data_str_m1_o1_o1_pcu_sym.15
_audit_creation_date              2020-01-03
_audit_creation_method            'Materials Studio'
_symmetry_space_group_name_H-M    'P1'
_symmetry_Int_Tables_number       1
_symmetry_cell_setting            triclinic
loop_
_symmetry_equiv_pos_as_xyz
  x,y,z
_cell_length_a                    26.1814
_cell_length_b                    26.1812
_cell_length_c                    26.1762
_cell_angle_alpha                 89.7135
_cell_angle_beta                  89.6908
_cell_angle_gamma                 90.2249
loop_
_atom_site_label
_atom_site_type_symbol
_atom_site_fract_x
_atom_site_fract_y
_atom_site_fract_z
_atom_site_U_iso_or_equiv
_atom_site_adp_type
_atom_site_occupancy
C1     C     0.39034   0.24874   0.25094   0.00000  Uiso   1.00
C2     C     0.61013   0.24943   0.25106   0.00000  Uiso   1.00
C3     C     0.97273   0.72966   0.20602   0.00000  Uiso   1.00
C4     C     0.02616   0.77166   0.71056   0.00000  Uiso   1.00
C5     C     0.97389   0.21202   0.27582   0.00000  Uiso   1.00
C6     C     0.02467   0.72018   0.21309   0.00000  Uiso   1.00
C7     C     0.97392   0.28009   0.78638   0.00000  Uiso   1.00
C8     C     0.78160   0.71603   0.02532   0.00000  Uiso   1.00
C9     C     0.21598   0.28127   0.97478   0.00000  Uiso   1.00
C10    C     0.70367   0.22892   0.02855   0.00000  Uiso   1.00
C11    C     0.27300   0.79247   0.97268   0.00000  Uiso   1.00
C12    C     0.22590   0.28977   0.02640   0.00000  Uiso   1.00
C13    C     0.24928   0.74886   0.38993   0.00000  Uiso   1.00
C14    C     0.79092   0.72616   0.97373   0.00000  Uiso   1.00
C15    C     0.28300   0.78513   0.02482   0.00000  Uiso   1.00
C16    C     0.71073   0.21885   0.97617   0.00000  Uiso   1.00
C17    C     0.22068   0.71479   0.97470   0.00000  Uiso   1.00
C18    C     0.77999   0.28350   0.02463   0.00000  Uiso   1.00
C19    C     0.28918   0.22293   0.97374   0.00000  Uiso   1.00
C20    C     0.73004   0.79398   0.02774   0.00000  Uiso   1.00
C21    C     0.76941   0.29129   0.97354   0.00000  Uiso   1.00
C22    C     0.21170   0.72453   0.02615   0.00000  Uiso   1.00
C23    C     0.72095   0.78712   0.97564   0.00000  Uiso   1.00
C24    C     0.74937   0.24943   0.61006   0.00000  Uiso   1.00
C25    C     0.28081   0.21400   0.02600   0.00000  Uiso   1.00
C26    C     0.71007   0.47381   0.72450   0.00000  Uiso   1.00
C27    C     0.27529   0.52582   0.28830   0.00000  Uiso   1.00
C28    C     0.72655   0.47333   0.29142   0.00000  Uiso   1.00
C29    C     0.29116   0.52648   0.72645   0.00000  Uiso   1.00
C30    C     0.28480   0.47443   0.27893   0.00000  Uiso   1.00
C31    C     0.71927   0.52565   0.71517   0.00000  Uiso   1.00
C32    C     0.28317   0.47470   0.71647   0.00000  Uiso   1.00
C33    C     0.71668   0.52521   0.28342   0.00000  Uiso   1.00
C34    C     0.47362   0.27522   0.29066   0.00000  Uiso   1.00
C35    C     0.60991   0.74946   0.24967   0.00000  Uiso   1.00
C36    C     0.52696   0.70698   0.72868   0.00000  Uiso   1.00
C37    C     0.47325   0.70881   0.27344   0.00000  Uiso   1.00
C38    C     0.52693   0.27435   0.70864   0.00000  Uiso   1.00
C39    C     0.47530   0.71529   0.71814   0.00000  Uiso   1.00
C40    C     0.52566   0.28454   0.28194   0.00000  Uiso   1.00
C41    C     0.47496   0.28386   0.71676   0.00000  Uiso   1.00
C42    C     0.52516   0.71688   0.28331   0.00000  Uiso   1.00
C43    C     0.27372   0.70835   0.52672   0.00000  Uiso   1.00
C44    C     0.71232   0.27609   0.47430   0.00000  Uiso   1.00
C45    C     0.70921   0.72573   0.52677   0.00000  Uiso   1.00
C46    C     0.39022   0.24965   0.74929   0.00000  Uiso   1.00
C47    C     0.27464   0.29106   0.47321   0.00000  Uiso   1.00
C48    C     0.72187   0.28543   0.52566   0.00000  Uiso   1.00
C49    C     0.28331   0.71677   0.47467   0.00000  Uiso   1.00
C50    C     0.28424   0.28283   0.52514   0.00000  Uiso   1.00
C51    C     0.71739   0.71608   0.47480   0.00000  Uiso   1.00
C52    C     0.24421   0.55297   0.25334   0.00000  Uiso   1.00
C53    C     0.74594   0.44706   0.75504   0.00000  Uiso   1.00
C54    C     0.25196   0.55350   0.75234   0.00000  Uiso   1.00
C55    C     0.75191   0.44628   0.25185   0.00000  Uiso   1.00
C56    C     0.74508   0.55433   0.75355   0.00000  Uiso   1.00
C57    C     0.74970   0.75045   0.60991   0.00000  Uiso   1.00
C58    C     0.24623   0.44573   0.25401   0.00000  Uiso   1.00
C59    C     0.75171   0.55341   0.25227   0.00000  Uiso   1.00
C60    C     0.25244   0.44641   0.75174   0.00000  Uiso   1.00
C61    C     0.55324   0.74408   0.75832   0.00000  Uiso   1.00
C62    C     0.44709   0.24497   0.25437   0.00000  Uiso   1.00
C63    C     0.55376   0.24788   0.74771   0.00000  Uiso   1.00
C64    C     0.44629   0.74834   0.24793   0.00000  Uiso   1.00
C65    C     0.55434   0.24644   0.25549   0.00000  Uiso   1.00
C66    C     0.44596   0.74280   0.75503   0.00000  Uiso   1.00
C67    C     0.55354   0.74786   0.24826   0.00000  Uiso   1.00
C68    C     0.24941   0.25048   0.39005   0.00000  Uiso   1.00
C69    C     0.44661   0.24829   0.74721   0.00000  Uiso   1.00
C70    C     0.74728   0.24507   0.44700   0.00000  Uiso   1.00
C71    C     0.24419   0.74523   0.55309   0.00000  Uiso   1.00
C72    C     0.24790   0.25224   0.44632   0.00000  Uiso   1.00
C73    C     0.74839   0.75179   0.55374   0.00000  Uiso   1.00
C74    C     0.24586   0.74405   0.44579   0.00000  Uiso   1.00
C75    C     0.74677   0.24665   0.55423   0.00000  Uiso   1.00
C76    C     0.74804   0.75145   0.44660   0.00000  Uiso   1.00
C77    C     0.24841   0.25266   0.55347   0.00000  Uiso   1.00
C78    C     0.75538   0.05341   0.24569   0.00000  Uiso   1.00
C79    C     0.25066   0.39010   0.75033   0.00000  Uiso   1.00
C80    C     0.25164   0.94619   0.74714   0.00000  Uiso   1.00
C81    C     0.25268   0.05318   0.25728   0.00000  Uiso   1.00
C82    C     0.75374   0.94666   0.75144   0.00000  Uiso   1.00
C83    C     0.25205   0.05343   0.74790   0.00000  Uiso   1.00
C84    C     0.75374   0.94619   0.24539   0.00000  Uiso   1.00
C85    C     0.75255   0.05380   0.75215   0.00000  Uiso   1.00
C86    C     0.25433   0.94592   0.25552   0.00000  Uiso   1.00
C87    C     0.05343   0.75491   0.24371   0.00000  Uiso   1.00
C88    C     0.94622   0.25215   0.74891   0.00000  Uiso   1.00
C89    C     0.05309   0.74364   0.74794   0.00000  Uiso   1.00
C90    C     0.75033   0.60986   0.25059   0.00000  Uiso   1.00
C91    C     0.94663   0.24874   0.24678   0.00000  Uiso   1.00
C92    C     0.05342   0.25150   0.74880   0.00000  Uiso   1.00
C93    C     0.94607   0.75496   0.24556   0.00000  Uiso   1.00
C94    C     0.05381   0.24816   0.24784   0.00000  Uiso   1.00
C95    C     0.94588   0.74534   0.74678   0.00000  Uiso   1.00
C96    C     0.75405   0.75504   0.94686   0.00000  Uiso   1.00
C97    C     0.25252   0.25129   0.05379   0.00000  Uiso   1.00
C98    C     0.74256   0.25286   0.94687   0.00000  Uiso   1.00
C99    C     0.24839   0.75352   0.05331   0.00000  Uiso   1.00
C100   C     0.25177   0.25148   0.94656   0.00000  Uiso   1.00
C101   C     0.24855   0.60969   0.25081   0.00000  Uiso   1.00
C102   C     0.75387   0.75332   0.05425   0.00000  Uiso   1.00
C103   C     0.24778   0.75236   0.94616   0.00000  Uiso   1.00
C104   C     0.74436   0.25459   0.05417   0.00000  Uiso   1.00
C105   C     0.60974   0.74862   0.75203   0.00000  Uiso   1.00
C106   C     0.74910   0.39034   0.75126   0.00000  Uiso   1.00
C107   C     0.74911   0.61014   0.75058   0.00000  Uiso   1.00
C108   C     0.24940   0.38992   0.25074   0.00000  Uiso   1.00
C109   C     0.75053   0.39009   0.25042   0.00000  Uiso   1.00
C110   C     0.25039   0.60987   0.75057   0.00000  Uiso   1.00
C111   C     0.89022   0.75106   0.24928   0.00000  Uiso   1.00
C112   C     0.10972   0.25033   0.74974   0.00000  Uiso   1.00
C113   C     0.24967   0.75085   0.10980   0.00000  Uiso   1.00
C114   C     0.74842   0.25051   0.89040   0.00000  Uiso   1.00
C115   C     0.10966   0.74860   0.74966   0.00000  Uiso   1.00
C116   C     0.24971   0.25067   0.60983   0.00000  Uiso   1.00
C117   C     0.89022   0.24975   0.24924   0.00000  Uiso   1.00
C118   C     0.75108   0.75136   0.89027   0.00000  Uiso   1.00
C119   C     0.25047   0.25024   0.11017   0.00000  Uiso   1.00
C120   C     0.88980   0.25037   0.74979   0.00000  Uiso   1.00
C121   C     0.11008   0.75112   0.24855   0.00000  Uiso   1.00
C122   C     0.25036   0.25034   0.89027   0.00000  Uiso   1.00
C123   C     0.75062   0.75051   0.11021   0.00000  Uiso   1.00
C124   C     0.10998   0.24956   0.24966   0.00000  Uiso   1.00
C125   C     0.88997   0.74906   0.74924   0.00000  Uiso   1.00
C126   C     0.74882   0.25105   0.11005   0.00000  Uiso   1.00
C127   C     0.74947   0.75029   0.39013   0.00000  Uiso   1.00
C128   C     0.24946   0.75037   0.89001   0.00000  Uiso   1.00
C129   C     0.75083   0.89020   0.75026   0.00000  Uiso   1.00
C130   C     0.25046   0.10961   0.25157   0.00000  Uiso   1.00
C131   C     0.75127   0.10987   0.24905   0.00000  Uiso   1.00
C132   C     0.25030   0.88982   0.74945   0.00000  Uiso   1.00
C133   C     0.25048   0.10974   0.74956   0.00000  Uiso   1.00
C134   C     0.75067   0.89012   0.24906   0.00000  Uiso   1.00
C135   C     0.25100   0.88997   0.25116   0.00000  Uiso   1.00
C136   C     0.75042   0.11000   0.75053   0.00000  Uiso   1.00
C137   C     0.20366   0.47163   0.23267   0.00000  Uiso   1.00
C138   C     0.60997   0.24944   0.74950   0.00000  Uiso   1.00
C139   C     0.76655   0.52806   0.79541   0.00000  Uiso   1.00
C140   C     0.22341   0.47340   0.78864   0.00000  Uiso   1.00
C141   C     0.78777   0.52630   0.22206   0.00000  Uiso   1.00
C142   C     0.77781   0.47634   0.78860   0.00000  Uiso   1.00
C143   C     0.20944   0.52401   0.22190   0.00000  Uiso   1.00
C144   C     0.77805   0.47462   0.21328   0.00000  Uiso   1.00
C145   C     0.21442   0.52502   0.77975   0.00000  Uiso   1.00
C146   C     0.47093   0.76356   0.79816   0.00000  Uiso   1.00
C147   C     0.52819   0.20469   0.23380   0.00000  Uiso   1.00
C148   C     0.47369   0.21126   0.77600   0.00000  Uiso   1.00
C149   C     0.39006   0.74969   0.24951   0.00000  Uiso   1.00
C150   C     0.52654   0.77797   0.21182   0.00000  Uiso   1.00
C151   C     0.47651   0.21149   0.22249   0.00000  Uiso   1.00
C152   C     0.52339   0.77476   0.79329   0.00000  Uiso   1.00
C153   C     0.47465   0.78680   0.22104   0.00000  Uiso   1.00
C154   C     0.52522   0.22022   0.78509   0.00000  Uiso   1.00
C155   C     0.76902   0.20463   0.52807   0.00000  Uiso   1.00
C156   C     0.20416   0.76612   0.47188   0.00000  Uiso   1.00
C157   C     0.21119   0.22420   0.52648   0.00000  Uiso   1.00
C158   C     0.77791   0.78794   0.47356   0.00000  Uiso   1.00
C159   C     0.21082   0.77725   0.52370   0.00000  Uiso   1.00
C160   C     0.74936   0.24875   0.39026   0.00000  Uiso   1.00
C161   C     0.77958   0.21090   0.47568   0.00000  Uiso   1.00
C162   C     0.78669   0.77881   0.52540   0.00000  Uiso   1.00
C163   C     0.22005   0.21505   0.47488   0.00000  Uiso   1.00
C164   C     0.71765   0.97503   0.21664   0.00000  Uiso   1.00
C165   C     0.28209   0.02507   0.78340   0.00000  Uiso   1.00
C166   C     0.22860   0.97157   0.29622   0.00000  Uiso   1.00
C167   C     0.79213   0.02729   0.72594   0.00000  Uiso   1.00
C168   C     0.29038   0.97339   0.77345   0.00000  Uiso   1.00
C169   C     0.72806   0.02674   0.20795   0.00000  Uiso   1.00
C170   C     0.78459   0.97511   0.71611   0.00000  Uiso   1.00
C171   C     0.24857   0.74894   0.60972   0.00000  Uiso   1.00
C172   C     0.21848   0.02395   0.28924   0.00000  Uiso   1.00
C173   C     0.71567   0.02528   0.78027   0.00000  Uiso   1.00
C174   C     0.28301   0.97529   0.21973   0.00000  Uiso   1.00
C175   C     0.22358   0.02632   0.71045   0.00000  Uiso   1.00
C176   C     0.79350   0.97286   0.27044   0.00000  Uiso   1.00
C177   C     0.29099   0.02639   0.23031   0.00000  Uiso   1.00
C178   C     0.72578   0.97388   0.78890   0.00000  Uiso   1.00
C179   C     0.78629   0.02455   0.28006   0.00000  Uiso   1.00
C180   C     0.21448   0.97414   0.71883   0.00000  Uiso   1.00
C181   C     0.97496   0.78447   0.28132   0.00000  Uiso   1.00
C182   C     0.39004   0.74867   0.75065   0.00000  Uiso   1.00
C183   C     0.02533   0.21572   0.71895   0.00000  Uiso   1.00
C184   C     0.97169   0.70457   0.77227   0.00000  Uiso   1.00
C185   C     0.02719   0.27371   0.20791   0.00000  Uiso   1.00
C186   C     0.97370   0.22563   0.71041   0.00000  Uiso   1.00
C187   C     0.02661   0.79319   0.27061   0.00000  Uiso   1.00
C188   C     0.97502   0.28363   0.21537   0.00000  Uiso   1.00
C189   C     0.02408   0.71146   0.78220   0.00000  Uiso   1.00
C190   C     0.02532   0.22097   0.28544   0.00000  Uiso   1.00
C191   C     0.97499   0.78191   0.71904   0.00000  Uiso   1.00
C192   C     0.02611   0.28866   0.77757   0.00000  Uiso   1.00
H1     H     0.07440   0.46617   0.18587   0.00000  Uiso   1.00
H2     H     0.52803   0.07305   0.19461   0.00000  Uiso   1.00
H3     H     0.47848   0.08778   0.83752   0.00000  Uiso   1.00
H4     H     0.52340   0.84461   0.09027   0.00000  Uiso   1.00
H5     H     0.51542   0.19580   0.11279   0.00000  Uiso   1.00
H6     H     0.49634   0.88842   0.81534   0.00000  Uiso   1.00
H7     H     0.50495   0.90232   0.22946   0.00000  Uiso   1.00
H8     H     0.49081   0.22338   0.89881   0.00000  Uiso   1.00
H9     H     0.81906   0.07590   0.53357   0.00000  Uiso   1.00
H10    H     0.07266   0.80618   0.47160   0.00000  Uiso   1.00
H11    H     0.08737   0.16344   0.52187   0.00000  Uiso   1.00
H12    H     0.80821   0.52802   0.92613   0.00000  Uiso   1.00
H13    H     0.84355   0.91008   0.47695   0.00000  Uiso   1.00
H14    H     0.19631   0.88900   0.48655   0.00000  Uiso   1.00
H15    H     0.89382   0.19362   0.50530   0.00000  Uiso   1.00
H16    H     0.90359   0.76887   0.49644   0.00000  Uiso   1.00
H17    H     0.22238   0.09982   0.50808   0.00000  Uiso   1.00
H18    H     0.59952   0.98256   0.14751   0.00000  Uiso   1.00
H19    H     0.35398   0.01844   0.90007   0.00000  Uiso   1.00
H20    H     0.17106   0.96805   0.42191   0.00000  Uiso   1.00
H21    H     0.91984   0.02685   0.67231   0.00000  Uiso   1.00
H22    H     0.40089   0.00673   0.76056   0.00000  Uiso   1.00
H23    H     0.16195   0.47822   0.91227   0.00000  Uiso   1.00
H24    H     0.70779   0.02714   0.06942   0.00000  Uiso   1.00
H25    H     0.79458   0.00770   0.60294   0.00000  Uiso   1.00
H26    H     0.10261   0.99240   0.30073   0.00000  Uiso   1.00
H27    H     0.59566   0.01256   0.84464   0.00000  Uiso   1.00
H28    H     0.35135   0.98454   0.09961   0.00000  Uiso   1.00
H29    H     0.16156   0.02423   0.58725   0.00000  Uiso   1.00
H30    H     0.91810   0.97428   0.32748   0.00000  Uiso   1.00
H31    H     0.39896   0.99324   0.24601   0.00000  Uiso   1.00
H32    H     0.72841   0.98318   0.92240   0.00000  Uiso   1.00
H33    H     0.79149   0.98853   0.39398   0.00000  Uiso   1.00
H34    H     0.90844   0.52210   0.15391   0.00000  Uiso   1.00
H35    H     0.09787   0.00323   0.72149   0.00000  Uiso   1.00
H36    H     0.98270   0.85229   0.40046   0.00000  Uiso   1.00
H37    H     0.01907   0.09842   0.64812   0.00000  Uiso   1.00
H38    H     0.96749   0.57897   0.83064   0.00000  Uiso   1.00
H39    H     0.02645   0.32595   0.07997   0.00000  Uiso   1.00
H40    H     0.00782   0.23653   0.60024   0.00000  Uiso   1.00
H41    H     0.01049   0.91795   0.25503   0.00000  Uiso   1.00
H42    H     0.00753   0.39650   0.20388   0.00000  Uiso   1.00
H43    H     0.99051   0.70054   0.89543   0.00000  Uiso   1.00
H44    H     0.01202   0.15899   0.40580   0.00000  Uiso   1.00
H45    H     0.88921   0.51318   0.80416   0.00000  Uiso   1.00
H46    H     0.98365   0.90418   0.65454   0.00000  Uiso   1.00
H47    H     0.02370   0.41075   0.84180   0.00000  Uiso   1.00
H48    H     0.97366   0.67159   0.08166   0.00000  Uiso   1.00
H49    H     0.99175   0.76006   0.60218   0.00000  Uiso   1.00
H50    H     0.99146   0.08401   0.27180   0.00000  Uiso   1.00
H51    H     0.98927   0.60519   0.20971   0.00000  Uiso   1.00
H52    H     0.99895   0.27617   0.90660   0.00000  Uiso   1.00
H53    H     0.84680   0.59639   0.01792   0.00000  Uiso   1.00
H54    H     0.09809   0.35143   0.98134   0.00000  Uiso   1.00
H55    H     0.57812   0.17154   0.03193   0.00000  Uiso   1.00
H56    H     0.18808   0.50095   0.10176   0.00000  Uiso   1.00
H57    H     0.32338   0.92088   0.97392   0.00000  Uiso   1.00
H58    H     0.23706   0.40023   0.99255   0.00000  Uiso   1.00
H59    H     0.92439   0.73249   0.97997   0.00000  Uiso   1.00
H60    H     0.39536   0.79752   0.99129   0.00000  Uiso   1.00
H61    H     0.69933   0.10301   0.00829   0.00000  Uiso   1.00
H62    H     0.15983   0.59374   0.98817   0.00000  Uiso   1.00
H63    H     0.90152   0.35139   0.01754   0.00000  Uiso   1.00
H64    H     0.41202   0.15990   0.97568   0.00000  Uiso   1.00
H65    H     0.67512   0.91950   0.02635   0.00000  Uiso   1.00
H66    H     0.75290   0.39959   0.00572   0.00000  Uiso   1.00
H67    H     0.79761   0.47860   0.07432   0.00000  Uiso   1.00
H68    H     0.08401   0.72988   0.00844   0.00000  Uiso   1.00
H69    H     0.60729   0.79164   0.01102   0.00000  Uiso   1.00
H70    H     0.27863   0.09403   0.00058   0.00000  Uiso   1.00
H71    H     0.58838   0.47744   0.66001   0.00000  Uiso   1.00
H72    H     0.33962   0.51879   0.40888   0.00000  Uiso   1.00
H73    H     0.67066   0.47686   0.41695   0.00000  Uiso   1.00
H74    H     0.41595   0.52141   0.67070   0.00000  Uiso   1.00
H75    H     0.41927   0.48479   0.28245   0.00000  Uiso   1.00
H76    H     0.71739   0.51378   0.58205   0.00000  Uiso   1.00
H77    H     0.28995   0.51033   0.60406   0.00000  Uiso   1.00
H78    H     0.09912   0.49224   0.77704   0.00000  Uiso   1.00
H79    H     0.60698   0.48744   0.28585   0.00000  Uiso   1.00
H80    H     0.47591   0.33788   0.41344   0.00000  Uiso   1.00
H81    H     0.52549   0.58355   0.66822   0.00000  Uiso   1.00
H82    H     0.47469   0.58047   0.32600   0.00000  Uiso   1.00
H83    H     0.52459   0.33037   0.58229   0.00000  Uiso   1.00
H84    H     0.49497   0.70753   0.59071   0.00000  Uiso   1.00
H85    H     0.50886   0.41328   0.28384   0.00000  Uiso   1.00
H86    H     0.51042   0.39619   0.71333   0.00000  Uiso   1.00
H87    H     0.48775   0.71338   0.39348   0.00000  Uiso   1.00
H88    H     0.33179   0.58432   0.52217   0.00000  Uiso   1.00
H89    H     0.46489   0.80644   0.92767   0.00000  Uiso   1.00
H90    H     0.59285   0.34244   0.48166   0.00000  Uiso   1.00
H91    H     0.58220   0.66986   0.52621   0.00000  Uiso   1.00
H92    H     0.33125   0.41664   0.47661   0.00000  Uiso   1.00
H93    H     0.71612   0.42245   0.51922   0.00000  Uiso   1.00
H94    H     0.40758   0.71378   0.49760   0.00000  Uiso   1.00
H95    H     0.39639   0.28484   0.48956   0.00000  Uiso   1.00
H96    H     0.71478   0.60543   0.51136   0.00000  Uiso   1.00
O1     O     0.25000   0.25000   0.25000   0.00000  Uiso   1.00
O2     O     0.63420   0.71971   0.71971   0.00000  Uiso   1.00
O3     O     0.21971   0.36580   0.21971   0.00000  Uiso   1.00
O4     O     0.21971   0.63420   0.21971   0.00000  Uiso   1.00
O5     O     0.78029   0.36580   0.78029   0.00000  Uiso   1.00
O6     O     0.21971   0.36580   0.78029   0.00000  Uiso   1.00
O7     O     0.78029   0.63420   0.21971   0.00000  Uiso   1.00
O8     O     0.15096   0.41336   0.16792   0.00000  Uiso   1.00
O9     O     0.13379   0.39849   0.25876   0.00000  Uiso   1.00
O10    O     0.09370   0.47731   0.21641   0.00000  Uiso   1.00
O11    O     0.82800   0.58634   0.85322   0.00000  Uiso   1.00
O12    O     0.73631   0.59699   0.86644   0.00000  Uiso   1.00
O13    O     0.28029   0.28029   0.63420   0.00000  Uiso   1.00
O14    O     0.77903   0.51696   0.90474   0.00000  Uiso   1.00
O15    O     0.15456   0.41657   0.83902   0.00000  Uiso   1.00
O16    O     0.24330   0.41107   0.86823   0.00000  Uiso   1.00
O17    O     0.19154   0.49121   0.89213   0.00000  Uiso   1.00
O18    O     0.83504   0.58380   0.15079   0.00000  Uiso   1.00
O19    O     0.86906   0.58814   0.23767   0.00000  Uiso   1.00
O20    O     0.88947   0.50842   0.18405   0.00000  Uiso   1.00
O21    O     0.81727   0.42571   0.86565   0.00000  Uiso   1.00
O22    O     0.86257   0.41736   0.78409   0.00000  Uiso   1.00
O23    O     0.87463   0.49939   0.83624   0.00000  Uiso   1.00
O24    O     0.71971   0.71971   0.36580   0.00000  Uiso   1.00
O25    O     0.12650   0.57185   0.18790   0.00000  Uiso   1.00
O26    O     0.20490   0.58828   0.13912   0.00000  Uiso   1.00
O27    O     0.15822   0.50358   0.12622   0.00000  Uiso   1.00
O28    O     0.84137   0.42154   0.15358   0.00000  Uiso   1.00
O29    O     0.74956   0.41336   0.13599   0.00000  Uiso   1.00
O30    O     0.79539   0.49641   0.10768   0.00000  Uiso   1.00
O31    O     0.16114   0.58259   0.84425   0.00000  Uiso   1.00
O32    O     0.13452   0.58338   0.75440   0.00000  Uiso   1.00
O33    O     0.10997   0.50554   0.81058   0.00000  Uiso   1.00
O34    O     0.41238   0.82723   0.85233   0.00000  Uiso   1.00
O35    O     0.63420   0.28029   0.71971   0.00000  Uiso   1.00
O36    O     0.39501   0.73625   0.86461   0.00000  Uiso   1.00
O37    O     0.47295   0.77438   0.90933   0.00000  Uiso   1.00
O38    O     0.58648   0.14560   0.17316   0.00000  Uiso   1.00
O39    O     0.59670   0.13380   0.26504   0.00000  Uiso   1.00
O40    O     0.51649   0.09555   0.22283   0.00000  Uiso   1.00
O41    O     0.41685   0.16108   0.84483   0.00000  Uiso   1.00
O42    O     0.41143   0.13187   0.75604   0.00000  Uiso   1.00
O43    O     0.49148   0.10783   0.80788   0.00000  Uiso   1.00
O44    O     0.58447   0.84867   0.16406   0.00000  Uiso   1.00
O45    O     0.58921   0.76138   0.13124   0.00000  Uiso   1.00
O46    O     0.36580   0.71971   0.28029   0.00000  Uiso   1.00
O47    O     0.50966   0.81459   0.10945   0.00000  Uiso   1.00
O48    O     0.42510   0.13530   0.18234   0.00000  Uiso   1.00
O49    O     0.41850   0.21722   0.13741   0.00000  Uiso   1.00
O50    O     0.49987   0.16380   0.12576   0.00000  Uiso   1.00
O51    O     0.56459   0.80292   0.88109   0.00000  Uiso   1.00
O52    O     0.58984   0.85581   0.80805   0.00000  Uiso   1.00
O53    O     0.50201   0.86865   0.84699   0.00000  Uiso   1.00
O54    O     0.41878   0.84203   0.15572   0.00000  Uiso   1.00
O55    O     0.41354   0.86572   0.24595   0.00000  Uiso   1.00
O56    O     0.49394   0.89202   0.19504   0.00000  Uiso   1.00
O57    O     0.71971   0.28029   0.36580   0.00000  Uiso   1.00
O58    O     0.58255   0.15575   0.83884   0.00000  Uiso   1.00
O59    O     0.58333   0.24566   0.86516   0.00000  Uiso   1.00
O60    O     0.50537   0.18984   0.88960   0.00000  Uiso   1.00
O61    O     0.83521   0.15340   0.58605   0.00000  Uiso   1.00
O62    O     0.74480   0.13295   0.60022   0.00000  Uiso   1.00
O63    O     0.78911   0.09542   0.52105   0.00000  Uiso   1.00
O64    O     0.14559   0.82711   0.41339   0.00000  Uiso   1.00
O65    O     0.13336   0.73532   0.40324   0.00000  Uiso   1.00
O66    O     0.09506   0.77794   0.48334   0.00000  Uiso   1.00
O67    O     0.16080   0.15544   0.58318   0.00000  Uiso   1.00
O68    O     0.28029   0.71971   0.63420   0.00000  Uiso   1.00
O69    O     0.13191   0.24428   0.58918   0.00000  Uiso   1.00
O70    O     0.10753   0.19301   0.50890   0.00000  Uiso   1.00
O71    O     0.84839   0.83620   0.41572   0.00000  Uiso   1.00
O72    O     0.76089   0.86872   0.41128   0.00000  Uiso   1.00
O73    O     0.81403   0.89035   0.49090   0.00000  Uiso   1.00
O74    O     0.13516   0.81882   0.57565   0.00000  Uiso   1.00
O75    O     0.21775   0.86240   0.58133   0.00000  Uiso   1.00
O76    O     0.16425   0.87428   0.50018   0.00000  Uiso   1.00
O77    O     0.81621   0.13054   0.42529   0.00000  Uiso   1.00
O78    O     0.86281   0.21095   0.41206   0.00000  Uiso   1.00
O79    O     0.36580   0.71971   0.71971   0.00000  Uiso   1.00
O80    O     0.87670   0.16136   0.49509   0.00000  Uiso   1.00
O81    O     0.84282   0.84352   0.58103   0.00000  Uiso   1.00
O82    O     0.86552   0.75316   0.58643   0.00000  Uiso   1.00
O83    O     0.89201   0.80356   0.50566   0.00000  Uiso   1.00
O84    O     0.15551   0.16173   0.41743   0.00000  Uiso   1.00
O85    O     0.24527   0.13481   0.41693   0.00000  Uiso   1.00
O86    O     0.18888   0.11074   0.49471   0.00000  Uiso   1.00
O87    O     0.66882   0.91806   0.14895   0.00000  Uiso   1.00
O88    O     0.63439   0.91698   0.23614   0.00000  Uiso   1.00
O89    O     0.61598   0.99516   0.17921   0.00000  Uiso   1.00
O90    O     0.63420   0.28029   0.28029   0.00000  Uiso   1.00
O91    O     0.35117   0.08314   0.83030   0.00000  Uiso   1.00
O92    O     0.26485   0.08322   0.86652   0.00000  Uiso   1.00
O93    O     0.32210   0.00551   0.88416   0.00000  Uiso   1.00
O94    O     0.16132   0.91171   0.34643   0.00000  Uiso   1.00
O95    O     0.25071   0.90181   0.37027   0.00000  Uiso   1.00
O96    O     0.20225   0.98042   0.40380   0.00000  Uiso   1.00
O97    O     0.84460   0.08460   0.65937   0.00000  Uiso   1.00
O98    O     0.86832   0.09366   0.74915   0.00000  Uiso   1.00
O99    O     0.89874   0.01348   0.70114   0.00000  Uiso   1.00
O100   O     0.34753   0.91675   0.83726   0.00000  Uiso   1.00
O101   O     0.28029   0.71971   0.36580   0.00000  Uiso   1.00
O102   O     0.36793   0.91080   0.74626   0.00000  Uiso   1.00
O103   O     0.39649   0.99154   0.79489   0.00000  Uiso   1.00
O104   O     0.66338   0.07996   0.14972   0.00000  Uiso   1.00
O105   O     0.75482   0.09196   0.13229   0.00000  Uiso   1.00
O106   O     0.71198   0.00795   0.10238   0.00000  Uiso   1.00
O107   O     0.85720   0.91873   0.67165   0.00000  Uiso   1.00
O108   O     0.77222   0.91411   0.63368   0.00000  Uiso   1.00
O109   O     0.82725   0.99363   0.61551   0.00000  Uiso   1.00
O110   O     0.17492   0.07714   0.36416   0.00000  Uiso   1.00
O111   O     0.13519   0.08454   0.28011   0.00000  Uiso   1.00
O112   O     0.75000   0.75000   0.75000   0.00000  Uiso   1.00
O113   O     0.71971   0.28029   0.63420   0.00000  Uiso   1.00
O114   O     0.11868   0.00325   0.33301   0.00000  Uiso   1.00
O115   O     0.66181   0.08124   0.84725   0.00000  Uiso   1.00
O116   O     0.63339   0.08299   0.75826   0.00000  Uiso   1.00
O117   O     0.61266   0.00291   0.81210   0.00000  Uiso   1.00
O118   O     0.35026   0.91836   0.16889   0.00000  Uiso   1.00
O119   O     0.26282   0.92080   0.13586   0.00000  Uiso   1.00
O120   O     0.32133   0.99803   0.11854   0.00000  Uiso   1.00
O121   O     0.15468   0.08397   0.66175   0.00000  Uiso   1.00
O122   O     0.24317   0.09071   0.63146   0.00000  Uiso   1.00
O123   O     0.19134   0.01095   0.60640   0.00000  Uiso   1.00
O124   O     0.63420   0.71971   0.28029   0.00000  Uiso   1.00
O125   O     0.84293   0.91572   0.33859   0.00000  Uiso   1.00
O126   O     0.86862   0.90553   0.24895   0.00000  Uiso   1.00
O127   O     0.89950   0.98601   0.29666   0.00000  Uiso   1.00
O128   O     0.34702   0.08152   0.16663   0.00000  Uiso   1.00
O129   O     0.36596   0.09017   0.25803   0.00000  Uiso   1.00
O130   O     0.39684   0.00880   0.21156   0.00000  Uiso   1.00
O131   O     0.66114   0.91994   0.84604   0.00000  Uiso   1.00
O132   O     0.75231   0.91124   0.86566   0.00000  Uiso   1.00
O133   O     0.70570   0.99374   0.89414   0.00000  Uiso   1.00
O134   O     0.85252   0.08253   0.32995   0.00000  Uiso   1.00
O135   O     0.36580   0.28029   0.71971   0.00000  Uiso   1.00
O136   O     0.76398   0.07910   0.36177   0.00000  Uiso   1.00
O137   O     0.82389   0.00405   0.38218   0.00000  Uiso   1.00
O138   O     0.16202   0.91761   0.65106   0.00000  Uiso   1.00
O139   O     0.13342   0.91277   0.73986   0.00000  Uiso   1.00
O140   O     0.11078   0.99289   0.68746   0.00000  Uiso   1.00
O141   O     0.91813   0.85164   0.33087   0.00000  Uiso   1.00
O142   O     0.91782   0.76451   0.36498   0.00000  Uiso   1.00
O143   O     0.99586   0.82148   0.38266   0.00000  Uiso   1.00
O144   O     0.08329   0.16861   0.64977   0.00000  Uiso   1.00
O145   O     0.08443   0.13315   0.73640   0.00000  Uiso   1.00
O146   O     0.71971   0.71971   0.63420   0.00000  Uiso   1.00
O147   O     0.00641   0.11439   0.68014   0.00000  Uiso   1.00
O148   O     0.91163   0.65487   0.83968   0.00000  Uiso   1.00
O149   O     0.90229   0.63019   0.75038   0.00000  Uiso   1.00
O150   O     0.98041   0.59697   0.79962   0.00000  Uiso   1.00
O151   O     0.08450   0.33941   0.15443   0.00000  Uiso   1.00
O152   O     0.09373   0.24933   0.13214   0.00000  Uiso   1.00
O153   O     0.01356   0.29685   0.10094   0.00000  Uiso   1.00
O154   O     0.91766   0.16055   0.65455   0.00000  Uiso   1.00
O155   O     0.91114   0.25122   0.63220   0.00000  Uiso   1.00
O156   O     0.99215   0.20252   0.60461   0.00000  Uiso   1.00
O157   O     0.28029   0.28029   0.36580   0.00000  Uiso   1.00
O158   O     0.08019   0.85101   0.33516   0.00000  Uiso   1.00
O159   O     0.09203   0.86892   0.24426   0.00000  Uiso   1.00
O160   O     0.00825   0.89905   0.28792   0.00000  Uiso   1.00
O161   O     0.91882   0.32718   0.14186   0.00000  Uiso   1.00
O162   O     0.91371   0.36638   0.22621   0.00000  Uiso   1.00
O163   O     0.99355   0.38361   0.17134   0.00000  Uiso   1.00
O164   O     0.07717   0.63638   0.82531   0.00000  Uiso   1.00
O165   O     0.08516   0.72028   0.86508   0.00000  Uiso   1.00
O166   O     0.00378   0.66779   0.88211   0.00000  Uiso   1.00
O167   O     0.08138   0.15511   0.34048   0.00000  Uiso   1.00
O168   O     0.28029   0.36580   0.71971   0.00000  Uiso   1.00
O169   O     0.08374   0.24474   0.36669   0.00000  Uiso   1.00
O170   O     0.00336   0.19188   0.38916   0.00000  Uiso   1.00
O171   O     0.91868   0.83335   0.65179   0.00000  Uiso   1.00
O172   O     0.91840   0.86461   0.74003   0.00000  Uiso   1.00
O173   O     0.99705   0.88405   0.68377   0.00000  Uiso   1.00
O174   O     0.08389   0.33652   0.84679   0.00000  Uiso   1.00
O175   O     0.08977   0.36830   0.75872   0.00000  Uiso   1.00
O176   O     0.01035   0.39213   0.81171   0.00000  Uiso   1.00
O177   O     0.91526   0.66113   0.15707   0.00000  Uiso   1.00
O178   O     0.90545   0.75051   0.13060   0.00000  Uiso   1.00
O179   O     0.71971   0.63420   0.28029   0.00000  Uiso   1.00
O180   O     0.98589   0.70214   0.10040   0.00000  Uiso   1.00
O181   O     0.08173   0.83628   0.65546   0.00000  Uiso   1.00
O182   O     0.08859   0.74521   0.63396   0.00000  Uiso   1.00
O183   O     0.00790   0.79410   0.60526   0.00000  Uiso   1.00
O184   O     0.91844   0.15636   0.34134   0.00000  Uiso   1.00
O185   O     0.91292   0.13331   0.25084   0.00000  Uiso   1.00
O186   O     0.99411   0.10761   0.30107   0.00000  Uiso   1.00
O187   O     0.08281   0.66898   0.14825   0.00000  Uiso   1.00
O188   O     0.07853   0.63907   0.23734   0.00000  Uiso   1.00
O189   O     0.00387   0.61778   0.17719   0.00000  Uiso   1.00
O190   O     0.28029   0.63420   0.28029   0.00000  Uiso   1.00
O191   O     0.91731   0.34740   0.83983   0.00000  Uiso   1.00
O192   O     0.91192   0.25817   0.86688   0.00000  Uiso   1.00
O193   O     0.99234   0.30975   0.89058   0.00000  Uiso   1.00
O194   O     0.84836   0.66532   0.08207   0.00000  Uiso   1.00
O195   O     0.75991   0.63448   0.08521   0.00000  Uiso   1.00
O196   O     0.81458   0.61256   0.00634   0.00000  Uiso   1.00
O197   O     0.16836   0.35015   0.91692   0.00000  Uiso   1.00
O198   O     0.13334   0.26337   0.91622   0.00000  Uiso   1.00
O199   O     0.11464   0.31981   0.99421   0.00000  Uiso   1.00
O200   O     0.65349   0.16161   0.08840   0.00000  Uiso   1.00
O201   O     0.71971   0.36580   0.71971   0.00000  Uiso   1.00
O202   O     0.62968   0.25102   0.09836   0.00000  Uiso   1.00
O203   O     0.59619   0.20278   0.01967   0.00000  Uiso   1.00
O204   O     0.33774   0.84715   0.91529   0.00000  Uiso   1.00
O205   O     0.24732   0.86794   0.90639   0.00000  Uiso   1.00
O206   O     0.29443   0.89959   0.98662   0.00000  Uiso   1.00
O207   O     0.16124   0.34596   0.08280   0.00000  Uiso   1.00
O208   O     0.25194   0.36785   0.08876   0.00000  Uiso   1.00
O209   O     0.20291   0.39559   0.00800   0.00000  Uiso   1.00
O210   O     0.84827   0.66231   0.91989   0.00000  Uiso   1.00
O211   O     0.86620   0.75294   0.90883   0.00000  Uiso   1.00
O212   O     0.71971   0.63420   0.71971   0.00000  Uiso   1.00
O213   O     0.89690   0.70853   0.99142   0.00000  Uiso   1.00
O214   O     0.32650   0.85814   0.08142   0.00000  Uiso   1.00
O215   O     0.36609   0.77379   0.08502   0.00000  Uiso   1.00
O216   O     0.38251   0.82984   0.00582   0.00000  Uiso   1.00
O217   O     0.63673   0.17469   0.92243   0.00000  Uiso   1.00
O218   O     0.72114   0.13538   0.91651   0.00000  Uiso   1.00
O219   O     0.66709   0.11903   0.99714   0.00000  Uiso   1.00
O220   O     0.15509   0.65930   0.91900   0.00000  Uiso   1.00
O221   O     0.24488   0.63353   0.91646   0.00000  Uiso   1.00
O222   O     0.19230   0.61106   0.99709   0.00000  Uiso   1.00
O223   O     0.25000   0.25000   0.75000   0.00000  Uiso   1.00
O224   O     0.28029   0.36580   0.28029   0.00000  Uiso   1.00
O225   O     0.82965   0.35096   0.08193   0.00000  Uiso   1.00
O226   O     0.86418   0.26413   0.07898   0.00000  Uiso   1.00
O227   O     0.88073   0.32377   0.00249   0.00000  Uiso   1.00
O228   O     0.33749   0.15386   0.91598   0.00000  Uiso   1.00
O229   O     0.36837   0.24218   0.90953   0.00000  Uiso   1.00
O230   O     0.39307   0.18979   0.98908   0.00000  Uiso   1.00
O231   O     0.66242   0.84395   0.08424   0.00000  Uiso   1.00
O232   O     0.75229   0.86823   0.09508   0.00000  Uiso   1.00
O233   O     0.70555   0.90014   0.01457   0.00000  Uiso   1.00
O234   O     0.83293   0.34708   0.91827   0.00000  Uiso   1.00
O235   O     0.71971   0.36580   0.28029   0.00000  Uiso   1.00
O236   O     0.74146   0.36577   0.90923   0.00000  Uiso   1.00
O237   O     0.78749   0.39730   0.99051   0.00000  Uiso   1.00
O238   O     0.15562   0.65919   0.08121   0.00000  Uiso   1.00
O239   O     0.13312   0.74979   0.08743   0.00000  Uiso   1.00
O240   O     0.10717   0.70024   0.00584   0.00000  Uiso   1.00
O241   O     0.67207   0.85434   0.91852   0.00000  Uiso   1.00
O242   O     0.64069   0.76548   0.92041   0.00000  Uiso   1.00
O243   O     0.61893   0.82444   0.99600   0.00000  Uiso   1.00
O244   O     0.34856   0.16142   0.08275   0.00000  Uiso   1.00
O245   O     0.25971   0.13319   0.08777   0.00000  Uiso   1.00
O246   O     0.28029   0.63420   0.71971   0.00000  Uiso   1.00
O247   O     0.31201   0.11020   0.00761   0.00000  Uiso   1.00
O248   O     0.66302   0.41724   0.65374   0.00000  Uiso   1.00
O249   O     0.63058   0.40947   0.74138   0.00000  Uiso   1.00
O250   O     0.60734   0.49031   0.69011   0.00000  Uiso   1.00
O251   O     0.34459   0.58199   0.33730   0.00000  Uiso   1.00
O252   O     0.25614   0.58759   0.36817   0.00000  Uiso   1.00
O253   O     0.30800   0.50726   0.39153   0.00000  Uiso   1.00
O254   O     0.65967   0.41597   0.34412   0.00000  Uiso   1.00
O255   O     0.74965   0.40786   0.36813   0.00000  Uiso   1.00
O256   O     0.70117   0.48838   0.39729   0.00000  Uiso   1.00
O257   O     0.86580   0.78029   0.28029   0.00000  Uiso   1.00
O258   O     0.34394   0.58349   0.66062   0.00000  Uiso   1.00
O259   O     0.36781   0.59068   0.75090   0.00000  Uiso   1.00
O260   O     0.39688   0.51052   0.70170   0.00000  Uiso   1.00
O261   O     0.34005   0.41913   0.34449   0.00000  Uiso   1.00
O262   O     0.36425   0.41353   0.25426   0.00000  Uiso   1.00
O263   O     0.38987   0.49453   0.30422   0.00000  Uiso   1.00
O264   O     0.65380   0.58113   0.66001   0.00000  Uiso   1.00
O265   O     0.74381   0.58696   0.63517   0.00000  Uiso   1.00
O266   O     0.69319   0.50581   0.61065   0.00000  Uiso   1.00
O267   O     0.35267   0.41771   0.66783   0.00000  Uiso   1.00
O268   O     0.13420   0.21971   0.71971   0.00000  Uiso   1.00
O269   O     0.26581   0.41632   0.63371   0.00000  Uiso   1.00
O270   O     0.32261   0.49479   0.61483   0.00000  Uiso   1.00
O271   O     0.66568   0.58074   0.35261   0.00000  Uiso   1.00
O272   O     0.63441   0.58386   0.26464   0.00000  Uiso   1.00
O273   O     0.61417   0.50411   0.31890   0.00000  Uiso   1.00
O274   O     0.41685   0.34576   0.33795   0.00000  Uiso   1.00
O275   O     0.40827   0.25782   0.36932   0.00000  Uiso   1.00
O276   O     0.48910   0.30823   0.39394   0.00000  Uiso   1.00
O277   O     0.58459   0.65813   0.65978   0.00000  Uiso   1.00
O278   O     0.59358   0.63057   0.74883   0.00000  Uiso   1.00
O279   O     0.28029   0.78029   0.13420   0.00000  Uiso   1.00
O280   O     0.51373   0.60111   0.69971   0.00000  Uiso   1.00
O281   O     0.41600   0.65563   0.34019   0.00000  Uiso   1.00
O282   O     0.40798   0.63206   0.25010   0.00000  Uiso   1.00
O283   O     0.48846   0.60286   0.29837   0.00000  Uiso   1.00
O284   O     0.58455   0.34163   0.65641   0.00000  Uiso   1.00
O285   O     0.59185   0.25204   0.63114   0.00000  Uiso   1.00
O286   O     0.51145   0.30146   0.60336   0.00000  Uiso   1.00
O287   O     0.42236   0.64319   0.67035   0.00000  Uiso   1.00
O288   O     0.41405   0.72948   0.63559   0.00000  Uiso   1.00
O289   O     0.49603   0.67921   0.61599   0.00000  Uiso   1.00
O290   O     0.71971   0.21971   0.86580   0.00000  Uiso   1.00
O291   O     0.58245   0.33725   0.34852   0.00000  Uiso   1.00
O292   O     0.58675   0.36528   0.25936   0.00000  Uiso   1.00
O293   O     0.50692   0.38860   0.31246   0.00000  Uiso   1.00
O294   O     0.41792   0.33423   0.64875   0.00000  Uiso   1.00
O295   O     0.41652   0.36583   0.73669   0.00000  Uiso   1.00
O296   O     0.49497   0.38638   0.68040   0.00000  Uiso   1.00
O297   O     0.58073   0.64722   0.33359   0.00000  Uiso   1.00
O298   O     0.58383   0.73482   0.36564   0.00000  Uiso   1.00
O299   O     0.50416   0.68038   0.38555   0.00000  Uiso   1.00
O300   O     0.34209   0.65735   0.58345   0.00000  Uiso   1.00
O301   O     0.13420   0.78029   0.71971   0.00000  Uiso   1.00
O302   O     0.25275   0.63058   0.59199   0.00000  Uiso   1.00
O303   O     0.30165   0.60397   0.51071   0.00000  Uiso   1.00
O304   O     0.66384   0.34579   0.41793   0.00000  Uiso   1.00
O305   O     0.63180   0.25781   0.41306   0.00000  Uiso   1.00
O306   O     0.60961   0.31045   0.49314   0.00000  Uiso   1.00
O307   O     0.65760   0.65812   0.58458   0.00000  Uiso   1.00
O308   O     0.63183   0.74758   0.59219   0.00000  Uiso   1.00
O309   O     0.60361   0.69813   0.51215   0.00000  Uiso   1.00
O310   O     0.34185   0.34332   0.41580   0.00000  Uiso   1.00
O311   O     0.25222   0.36874   0.40862   0.00000  Uiso   1.00
O312   O     0.86580   0.21971   0.28029   0.00000  Uiso   1.00
O313   O     0.30159   0.39625   0.48904   0.00000  Uiso   1.00
O314   O     0.65716   0.34238   0.58018   0.00000  Uiso   1.00
O315   O     0.74802   0.36386   0.58692   0.00000  Uiso   1.00
O316   O     0.70009   0.39105   0.50524   0.00000  Uiso   1.00
O317   O     0.33472   0.64967   0.41745   0.00000  Uiso   1.00
O318   O     0.36543   0.73787   0.41490   0.00000  Uiso   1.00
O319   O     0.38626   0.68270   0.49389   0.00000  Uiso   1.00
O320   O     0.33510   0.35110   0.58154   0.00000  Uiso   1.00
O321   O     0.36613   0.26301   0.58400   0.00000  Uiso   1.00
O322   O     0.38699   0.31803   0.50477   0.00000  Uiso   1.00
O323   O     0.71971   0.78029   0.86580   0.00000  Uiso   1.00
O324   O     0.64800   0.66581   0.41913   0.00000  Uiso   1.00
O325   O     0.73584   0.63416   0.41550   0.00000  Uiso   1.00
O326   O     0.68164   0.61341   0.49522   0.00000  Uiso   1.00
O327   O     0.75000   0.75000   0.25000   0.00000  Uiso   1.00
O328   O     0.28029   0.21971   0.13420   0.00000  Uiso   1.00
O329   O     0.86580   0.21971   0.71971   0.00000  Uiso   1.00
O330   O     0.13420   0.78029   0.28029   0.00000  Uiso   1.00
O331   O     0.28029   0.21971   0.86580   0.00000  Uiso   1.00
O332   O     0.71971   0.78029   0.13420   0.00000  Uiso   1.00
O333   O     0.13420   0.21971   0.28029   0.00000  Uiso   1.00
O334   O     0.86580   0.78029   0.71971   0.00000  Uiso   1.00
O335   O     0.71971   0.21971   0.13420   0.00000  Uiso   1.00
O336   O     0.28029   0.78029   0.86580   0.00000  Uiso   1.00
O337   O     0.78029   0.71971   0.13420   0.00000  Uiso   1.00
O338   O     0.75000   0.25000   0.75000   0.00000  Uiso   1.00
O339   O     0.21971   0.28029   0.86580   0.00000  Uiso   1.00
O340   O     0.78029   0.86580   0.71971   0.00000  Uiso   1.00
O341   O     0.21971   0.13420   0.28029   0.00000  Uiso   1.00
O342   O     0.78029   0.28029   0.86580   0.00000  Uiso   1.00
O343   O     0.21971   0.71971   0.13420   0.00000  Uiso   1.00
O344   O     0.78029   0.13420   0.28029   0.00000  Uiso   1.00
O345   O     0.21971   0.86580   0.71971   0.00000  Uiso   1.00
O346   O     0.21971   0.28029   0.13420   0.00000  Uiso   1.00
O347   O     0.78029   0.71971   0.86580   0.00000  Uiso   1.00
O348   O     0.21971   0.13420   0.71971   0.00000  Uiso   1.00
O349   O     0.25000   0.75000   0.25000   0.00000  Uiso   1.00
O350   O     0.78029   0.86580   0.28029   0.00000  Uiso   1.00
O351   O     0.21971   0.71971   0.86580   0.00000  Uiso   1.00
O352   O     0.78029   0.28029   0.13420   0.00000  Uiso   1.00
O353   O     0.21971   0.86580   0.28029   0.00000  Uiso   1.00
O354   O     0.78029   0.13420   0.71971   0.00000  Uiso   1.00
O355   O     0.71971   0.86580   0.21971   0.00000  Uiso   1.00
O356   O     0.28029   0.13420   0.78029   0.00000  Uiso   1.00
O357   O     0.86580   0.28029   0.21971   0.00000  Uiso   1.00
O358   O     0.13420   0.71971   0.78029   0.00000  Uiso   1.00
O359   O     0.28029   0.13420   0.21971   0.00000  Uiso   1.00
O360   O     0.75000   0.25000   0.25000   0.00000  Uiso   1.00
O361   O     0.71971   0.86580   0.78029   0.00000  Uiso   1.00
O362   O     0.13420   0.71971   0.21971   0.00000  Uiso   1.00
O363   O     0.86580   0.28029   0.78029   0.00000  Uiso   1.00
O364   O     0.28029   0.86580   0.78029   0.00000  Uiso   1.00
O365   O     0.71971   0.13420   0.21971   0.00000  Uiso   1.00
O366   O     0.13420   0.28029   0.78029   0.00000  Uiso   1.00
O367   O     0.86580   0.71971   0.21971   0.00000  Uiso   1.00
O368   O     0.71971   0.13420   0.78029   0.00000  Uiso   1.00
O369   O     0.28029   0.86580   0.21971   0.00000  Uiso   1.00
O370   O     0.86580   0.71971   0.78029   0.00000  Uiso   1.00
O371   O     0.25000   0.75000   0.75000   0.00000  Uiso   1.00
O372   O     0.13420   0.28029   0.21971   0.00000  Uiso   1.00
O373   O     0.36580   0.78029   0.78029   0.00000  Uiso   1.00
O374   O     0.63420   0.21971   0.21971   0.00000  Uiso   1.00
O375   O     0.78029   0.78029   0.63420   0.00000  Uiso   1.00
O376   O     0.21971   0.21971   0.36580   0.00000  Uiso   1.00
O377   O     0.63420   0.78029   0.21971   0.00000  Uiso   1.00
O378   O     0.36580   0.21971   0.78029   0.00000  Uiso   1.00
O379   O     0.21971   0.78029   0.36580   0.00000  Uiso   1.00
O380   O     0.78029   0.21971   0.63420   0.00000  Uiso   1.00
O381   O     0.36580   0.21971   0.21971   0.00000  Uiso   1.00
O382   O     0.36580   0.28029   0.28029   0.00000  Uiso   1.00
O383   O     0.63420   0.78029   0.78029   0.00000  Uiso   1.00
O384   O     0.78029   0.21971   0.36580   0.00000  Uiso   1.00
O385   O     0.21971   0.78029   0.63420   0.00000  Uiso   1.00
O386   O     0.63420   0.21971   0.78029   0.00000  Uiso   1.00
O387   O     0.36580   0.78029   0.21971   0.00000  Uiso   1.00
O388   O     0.21971   0.21971   0.63420   0.00000  Uiso   1.00
O389   O     0.78029   0.78029   0.36580   0.00000  Uiso   1.00
O390   O     0.78029   0.36580   0.21971   0.00000  Uiso   1.00
O391   O     0.21971   0.63420   0.78029   0.00000  Uiso   1.00
O392   O     0.78029   0.63420   0.78029   0.00000  Uiso   1.00
S1     S     0.14469   0.43861   0.21893   0.00000  Uiso   1.00
S2     S     0.55871   0.14416   0.22351   0.00000  Uiso   1.00
S3     S     0.44645   0.15212   0.79650   0.00000  Uiso   1.00
S4     S     0.55431   0.80108   0.15341   0.00000  Uiso   1.00
S5     S     0.45342   0.18205   0.16614   0.00000  Uiso   1.00
S6     S     0.54714   0.82594   0.83208   0.00000  Uiso   1.00
S7     S     0.44851   0.84750   0.20426   0.00000  Uiso   1.00
S8     S     0.55068   0.20272   0.84559   0.00000  Uiso   1.00
S9     S     0.78457   0.14574   0.56044   0.00000  Uiso   1.00
S10    S     0.14382   0.77687   0.44124   0.00000  Uiso   1.00
S11    S     0.15197   0.20391   0.55382   0.00000  Uiso   1.00
S12    S     0.77764   0.55876   0.85571   0.00000  Uiso   1.00
S13    S     0.80068   0.84652   0.44599   0.00000  Uiso   1.00
S14    S     0.18198   0.83397   0.54684   0.00000  Uiso   1.00
S15    S     0.83430   0.17841   0.45035   0.00000  Uiso   1.00
S16    S     0.84760   0.79495   0.55145   0.00000  Uiso   1.00
S17    S     0.20227   0.15469   0.44948   0.00000  Uiso   1.00
S18    S     0.65834   0.94976   0.19517   0.00000  Uiso   1.00
S19    S     0.30529   0.05090   0.84191   0.00000  Uiso   1.00
S20    S     0.21065   0.93978   0.35482   0.00000  Uiso   1.00
S21    S     0.85177   0.05646   0.70878   0.00000  Uiso   1.00
S22    S     0.35131   0.94632   0.78814   0.00000  Uiso   1.00
S23    S     0.20289   0.44616   0.84791   0.00000  Uiso   1.00
S24    S     0.71431   0.05384   0.14748   0.00000  Uiso   1.00
S25    S     0.81051   0.94878   0.65857   0.00000  Uiso   1.00
S26    S     0.16109   0.04886   0.31674   0.00000  Uiso   1.00
S27    S     0.65508   0.04997   0.79976   0.00000  Uiso   1.00
S28    S     0.30469   0.95139   0.15983   0.00000  Uiso   1.00
S29    S     0.20292   0.05483   0.65174   0.00000  Uiso   1.00
S30    S     0.85205   0.94319   0.28883   0.00000  Uiso   1.00
S31    S     0.35133   0.05367   0.21665   0.00000  Uiso   1.00
S32    S     0.71112   0.94770   0.84975   0.00000  Uiso   1.00
S33    S     0.80709   0.04879   0.33941   0.00000  Uiso   1.00
S34    S     0.84608   0.55351   0.19829   0.00000  Uiso   1.00
S35    S     0.15449   0.94770   0.69908   0.00000  Uiso   1.00
S36    S     0.95006   0.80562   0.34078   0.00000  Uiso   1.00
S37    S     0.05156   0.15713   0.69607   0.00000  Uiso   1.00
S38    S     0.93992   0.64597   0.79053   0.00000  Uiso   1.00
S39    S     0.05645   0.28991   0.14803   0.00000  Uiso   1.00
S40    S     0.94692   0.20985   0.64973   0.00000  Uiso   1.00
S41    S     0.05382   0.85394   0.28459   0.00000  Uiso   1.00
S42    S     0.94864   0.34083   0.18848   0.00000  Uiso   1.00
S43    S     0.04924   0.68390   0.83937   0.00000  Uiso   1.00
S44    S     0.05035   0.20286   0.34631   0.00000  Uiso   1.00
S45    S     0.83393   0.45311   0.81852   0.00000  Uiso   1.00
S46    S     0.95054   0.84192   0.69832   0.00000  Uiso   1.00
S47    S     0.05432   0.34716   0.79899   0.00000  Uiso   1.00
S48    S     0.94292   0.71057   0.14759   0.00000  Uiso   1.00
S49    S     0.05296   0.78691   0.65025   0.00000  Uiso   1.00
S50    S     0.94791   0.15135   0.29242   0.00000  Uiso   1.00
S51    S     0.04860   0.66058   0.19349   0.00000  Uiso   1.00
S52    S     0.94721   0.29908   0.84661   0.00000  Uiso   1.00
S53    S     0.80109   0.65623   0.05153   0.00000  Uiso   1.00
S54    S     0.15725   0.30391   0.94886   0.00000  Uiso   1.00
S55    S     0.64514   0.21100   0.06036   0.00000  Uiso   1.00
S56    S     0.17480   0.54880   0.16832   0.00000  Uiso   1.00
S57    S     0.28818   0.85263   0.94350   0.00000  Uiso   1.00
S58    S     0.21036   0.35054   0.05327   0.00000  Uiso   1.00
S59    S     0.85143   0.71219   0.94661   0.00000  Uiso   1.00
S60    S     0.34018   0.81195   0.05088   0.00000  Uiso   1.00
S61    S     0.68375   0.16126   0.95149   0.00000  Uiso   1.00
S62    S     0.20292   0.65383   0.94992   0.00000  Uiso   1.00
S63    S     0.83977   0.30586   0.04871   0.00000  Uiso   1.00
S64    S     0.34780   0.20191   0.94528   0.00000  Uiso   1.00
S65    S     0.71241   0.85250   0.05705   0.00000  Uiso   1.00
S66    S     0.78273   0.35151   0.94591   0.00000  Uiso   1.00
S67    S     0.79151   0.44946   0.15174   0.00000  Uiso   1.00
S68    S     0.15095   0.70826   0.05206   0.00000  Uiso   1.00
S69    S     0.66214   0.80865   0.95141   0.00000  Uiso   1.00
S70    S     0.30052   0.15402   0.05265   0.00000  Uiso   1.00
S71    S     0.65196   0.44580   0.70212   0.00000  Uiso   1.00
S72    S     0.29632   0.55245   0.34717   0.00000  Uiso   1.00
S73    S     0.70903   0.44457   0.35110   0.00000  Uiso   1.00
S74    S     0.35098   0.55458   0.70980   0.00000  Uiso   1.00
S75    S     0.34559   0.44865   0.29567   0.00000  Uiso   1.00
S76    S     0.70237   0.55172   0.65431   0.00000  Uiso   1.00
S77    S     0.30627   0.44933   0.65748   0.00000  Uiso   1.00
S78    S     0.15410   0.55069   0.79732   0.00000  Uiso   1.00
S79    S     0.65707   0.55008   0.30522   0.00000  Uiso   1.00
S80    S     0.44507   0.29709   0.34873   0.00000  Uiso   1.00
S81    S     0.55639   0.64843   0.70902   0.00000  Uiso   1.00
S82    S     0.44458   0.64904   0.29072   0.00000  Uiso   1.00
S83    S     0.55556   0.29262   0.64908   0.00000  Uiso   1.00
S84    S     0.45027   0.69187   0.65926   0.00000  Uiso   1.00
S85    S     0.55211   0.34476   0.30074   0.00000  Uiso   1.00
S86    S     0.44952   0.34332   0.69536   0.00000  Uiso   1.00
S87    S     0.55007   0.69444   0.34271   0.00000  Uiso   1.00
S88    S     0.29297   0.64927   0.55517   0.00000  Uiso   1.00
S89    S     0.43637   0.77544   0.85688   0.00000  Uiso   1.00
S90    S     0.65356   0.29785   0.44781   0.00000  Uiso   1.00
S91    S     0.64979   0.70716   0.55570   0.00000  Uiso   1.00
S92    S     0.29280   0.35070   0.44481   0.00000  Uiso   1.00
S93    S     0.70658   0.34649   0.55137   0.00000  Uiso   1.00
S94    S     0.34331   0.69662   0.44863   0.00000  Uiso   1.00
S95    S     0.34386   0.30399   0.55050   0.00000  Uiso   1.00
S96    S     0.69533   0.65671   0.44960   0.00000  Uiso   1.00
Zn1    Zn    0.20660   0.29340   0.20660   0.00000  Uiso   1.00
Zn2    Zn    0.70660   0.20660   0.20660   0.00000  Uiso   1.00
Zn3    Zn    0.29340   0.20660   0.79340   0.00000  Uiso   1.00
Zn4    Zn    0.70660   0.79340   0.20660   0.00000  Uiso   1.00
Zn5    Zn    0.29340   0.20660   0.20660   0.00000  Uiso   1.00
Zn6    Zn    0.70660   0.79340   0.79340   0.00000  Uiso   1.00
Zn7    Zn    0.29340   0.79340   0.20660   0.00000  Uiso   1.00
Zn8    Zn    0.70660   0.20660   0.79340   0.00000  Uiso   1.00
Zn9    Zn    0.79340   0.20660   0.70660   0.00000  Uiso   1.00
Zn10   Zn    0.20660   0.79340   0.29340   0.00000  Uiso   1.00
Zn11   Zn    0.20660   0.20660   0.70660   0.00000  Uiso   1.00
Zn12   Zn    0.79340   0.70660   0.79340   0.00000  Uiso   1.00
Zn13   Zn    0.79340   0.79340   0.29340   0.00000  Uiso   1.00
Zn14   Zn    0.20660   0.79340   0.70660   0.00000  Uiso   1.00
Zn15   Zn    0.79340   0.20660   0.29340   0.00000  Uiso   1.00
Zn16   Zn    0.79340   0.79340   0.70660   0.00000  Uiso   1.00
Zn17   Zn    0.20660   0.20660   0.29340   0.00000  Uiso   1.00
Zn18   Zn    0.70660   0.29340   0.70660   0.00000  Uiso   1.00
Zn19   Zn    0.29340   0.70660   0.29340   0.00000  Uiso   1.00
Zn20   Zn    0.70660   0.29340   0.29340   0.00000  Uiso   1.00
Zn21   Zn    0.29340   0.70660   0.70660   0.00000  Uiso   1.00
Zn22   Zn    0.29340   0.29340   0.29340   0.00000  Uiso   1.00
Zn23   Zn    0.20660   0.29340   0.79340   0.00000  Uiso   1.00
Zn24   Zn    0.70660   0.70660   0.70660   0.00000  Uiso   1.00
Zn25   Zn    0.29340   0.29340   0.70660   0.00000  Uiso   1.00
Zn26   Zn    0.70660   0.70660   0.29340   0.00000  Uiso   1.00
Zn27   Zn    0.79340   0.70660   0.20660   0.00000  Uiso   1.00
Zn28   Zn    0.79340   0.29340   0.79340   0.00000  Uiso   1.00
Zn29   Zn    0.20660   0.70660   0.20660   0.00000  Uiso   1.00
Zn30   Zn    0.79340   0.29340   0.20660   0.00000  Uiso   1.00
Zn31   Zn    0.20660   0.70660   0.79340   0.00000  Uiso   1.00
Zn32   Zn    0.29340   0.79340   0.79340   0.00000  Uiso   1.00
loop_
_geom_bond_atom_site_label_1
_geom_bond_atom_site_label_2
_geom_bond_distance
_geom_bond_site_symmetry_2
_ccdc_geom_bond_type
C1     O381    1.291   .     A
C1     C62     1.493   .     S
C1     O382    1.300   .     A
C2     O374    1.296   .     A
C2     C65     1.467   .     S
C2     O90     1.282   .     A
C3     C93     1.414   .     A
C3     S48     1.793   .     S
C3     C6      1.396   1_655 S
C4     C89     1.413   .     A
C4     S49     1.767   .     S
C4     C191    1.384   1_455 S
C5     S50     1.776   .     S
C5     C91     1.420   .     A
C5     C190    1.390   1_655 S
C6     S51     1.762   .     S
C6     C87     1.430   .     A
C6     C3      1.396   1_455 S
C7     C88     1.426   .     A
C7     S52     1.794   .     S
C7     C192    1.402   1_655 S
C8     S53     1.784   .     S
C8     C102    1.436   .     A
C8     C14     1.395   1_554 S
C9     S54     1.786   .     S
C9     C100    1.427   .     A
C9     C12     1.396   1_556 S
C10    S55     1.799   .     S
C10    C104    1.429   .     A
C10    C16     1.409   1_554 S
C11    S57     1.789   .     S
C11    C103    1.424   .     A
C11    C15     1.403   1_556 S
C12    C97     1.421   .     A
C12    S58     1.790   .     S
C12    C9      1.396   1_554 S
C13    O379    1.296   .     A
C13    O101    1.282   .     A
C13    C74     1.469   .     S
C14    S59     1.773   .     S
C14    C96     1.416   .     A
C14    C8      1.395   1_556 S
C15    C99     1.429   .     A
C15    S60     1.791   .     S
C15    C11     1.403   1_554 S
C16    S61     1.788   .     S
C16    C98     1.434   .     A
C16    C10     1.409   1_556 S
C17    S62     1.786   .     S
C17    C103    1.418   .     A
C17    C22     1.391   1_556 S
C18    C104    1.422   .     A
C18    S63     1.788   .     S
C18    C21     1.381   1_554 S
C19    C100    1.426   .     A
C19    S64     1.792   .     S
C19    C25     1.402   1_556 S
C20    S65     1.778   .     S
C20    C102    1.417   .     A
C20    C23     1.398   1_554 S
C21    C98     1.415   .     A
C21    S66     1.764   .     S
C21    C18     1.381   1_556 S
C22    C99     1.418   .     A
C22    S68     1.775   .     S
C22    C17     1.391   1_554 S
C23    C96     1.425   .     A
C23    S69     1.762   .     S
C23    C20     1.398   1_556 S
C24    O380    1.291   .     A
C24    C75     1.466   .     S
C24    O113    1.288   .     A
C25    C97     1.427   .     A
C25    S70     1.794   .     S
C25    C19     1.402   1_554 S
C26    C31     1.398   .     A
C26    S71     1.789   .     S
C26    C53     1.421   .     A
C27    C52     1.418   .     A
C27    C30     1.392   .     A
C27    S72     1.783   .     S
C28    C33     1.398   .     A
C28    C55     1.421   .     A
C28    S73     1.788   .     S
C29    C32     1.397   .     A
C29    S74     1.779   .     S
C29    C54     1.420   .     A
C30    S75     1.787   .     S
C30    C58     1.420   .     A
C31    C56     1.428   .     A
C31    S76     1.788   .     S
C32    S77     1.787   .     S
C32    C60     1.424   .     A
C33    C59     1.425   .     A
C33    S79     1.785   .     S
C34    C62     1.422   .     A
C34    C40     1.400   .     A
C34    S80     1.788   .     S
C35    O124    1.287   .     A
C35    C67     1.477   .     S
C35    O377    1.287   .     A
C36    S81     1.795   .     S
C36    C39     1.399   .     A
C36    C61     1.424   .     A
C37    C42     1.400   .     A
C37    S82     1.788   .     S
C37    C64     1.421   .     A
C38    C41     1.400   .     A
C38    C63     1.423   .     A
C38    S83     1.788   .     S
C39    S84     1.788   .     S
C39    C66     1.430   .     A
C40    C65     1.430   .     A
C40    S85     1.792   .     S
C41    C69     1.426   .     A
C41    S86     1.784   .     S
C42    C67     1.426   .     A
C42    S87     1.787   .     S
C43    C71     1.419   .     A
C43    C49     1.400   .     A
C43    S88     1.789   .     S
C44    C70     1.419   .     A
C44    C48     1.391   .     A
C44    S90     1.785   .     S
C45    S91     1.791   .     S
C45    C73     1.422   .     A
C45    C51     1.400   .     A
C46    O378    1.291   .     A
C46    O135    1.287   .     A
C46    C69     1.478   .     S
C47    C50     1.399   .     A
C47    S92     1.788   .     S
C47    C72     1.423   .     A
C48    S93     1.784   .     S
C48    C75     1.421   .     A
C49    S94     1.791   .     S
C49    C74     1.432   .     A
C50    C77     1.426   .     A
C50    S95     1.786   .     S
C51    S96     1.787   .     S
C51    C76     1.424   .     A
C52    C101    1.490   .     S
C52    C143    1.445   .     A
C53    C142    1.437   .     A
C53    C106    1.491   .     S
C54    C145    1.421   .     A
C54    C110    1.477   .     S
C55    C144    1.421   .     A
C55    C109    1.472   .     S
C56    C139    1.411   .     A
C56    C107    1.466   .     S
C57    O375    1.289   .     A
C57    C73     1.471   .     S
C57    O146    1.286   .     A
C58    C108    1.467   .     S
C58    C137    1.422   .     A
C59    C141    1.422   .     A
C59    C90     1.479   .     S
C60    C79     1.475   .     S
C60    C140    1.419   .     A
C61    C105    1.492   .     S
C61    C152    1.449   .     A
C62    C151    1.437   .     A
C63    C154    1.422   .     A
C63    C138    1.473   .     S
C64    C153    1.429   .     A
C64    C149    1.473   .     S
C65    C147    1.411   .     A
C66    C182    1.478   .     S
C66    C146    1.417   .     A
C67    C150    1.427   .     A
C68    O376    1.289   .     A
C68    O157    1.285   .     A
C68    C72     1.474   .     S
C69    C148    1.419   .     A
C70    C161    1.444   .     A
C70    C160    1.489   .     S
C71    C171    1.491   .     S
C71    C159    1.437   .     A
C72    C163    1.421   .     A
C73    C162    1.427   .     A
C74    C156    1.412   .     A
C75    C155    1.424   .     A
C76    C158    1.425   .     A
C76    C127    1.479   .     S
C77    C116    1.477   .     S
C77    C157    1.418   .     A
C78    C169    1.409   .     A
C78    C179    1.428   .     A
C78    C131    1.486   .     S
C79    O6      1.289   .     A
C79    O168    1.285   .     A
C80    C132    1.477   .     S
C80    C180    1.428   .     A
C80    C168    1.420   .     A
C81    C177    1.414   .     A
C81    C130    1.486   .     S
C81    C172    1.438   .     A
C82    C178    1.417   .     A
C82    C129    1.480   .     S
C82    C170    1.429   .     A
C83    C165    1.428   .     A
C83    C175    1.425   .     A
C83    C133    1.476   .     S
C84    C134    1.472   .     S
C84    C176    1.417   .     A
C84    C164    1.427   .     A
C85    C167    1.424   .     A
C85    C136    1.473   .     S
C85    C173    1.419   .     A
C86    C174    1.419   .     A
C86    C135    1.472   .     S
C86    C166    1.429   .     A
C87    C187    1.415   .     A
C87    C121    1.493   .     S
C88    C120    1.478   .     S
C88    C186    1.421   .     A
C89    C189    1.439   .     A
C89    C115    1.487   .     S
C90    O7      1.288   .     A
C90    O179    1.287   .     A
C91    C188    1.429   .     A
C91    C117    1.478   .     S
C92    C112    1.475   .     S
C92    C192    1.425   .     A
C92    C183    1.427   .     A
C93    C181    1.434   .     A
C93    C111    1.468   .     S
C94    C185    1.425   .     A
C94    C190    1.419   .     A
C94    C124    1.472   .     S
C95    C184    1.430   .     A
C95    C125    1.468   .     S
C95    C191    1.416   .     A
C96    C118    1.487   .     S
C97    C119    1.477   .     S
C98    C114    1.487   .     S
C99    C113    1.480   .     S
C100   C122    1.475   .     S
C101   O4      1.284   .     A
C101   O190    1.306   .     A
C102   C123    1.468   .     S
C103   C128    1.471   .     S
C104   C126    1.471   .     S
C105   O383    1.285   .     A
C105   O2      1.305   .     A
C106   O5      1.290   .     A
C106   O201    1.302   .     A
C107   O212    1.284   .     A
C107   O392    1.295   .     A
C108   O224    1.287   .     A
C108   O3      1.293   .     A
C109   O235    1.285   .     A
C109   O390    1.288   .     A
C110   O246    1.287   .     A
C110   O391    1.288   .     A
C111   O367    1.300   .     A
C111   O257    1.288   .     A
C112   O366    1.294   .     A
C112   O268    1.295   .     A
C113   O343    1.293   .     A
C113   O279    1.285   .     A
C114   O290    1.279   .     A
C114   O342    1.305   .     A
C115   O301    1.304   .     A
C115   O358    1.277   .     A
C116   O388    1.290   .     A
C116   O13     1.286   .     A
C117   O357    1.284   .     A
C117   O312    1.293   .     A
C118   O347    1.299   .     A
C118   O323    1.290   .     A
C119   O346    1.291   .     A
C119   O328    1.284   .     A
C120   O363    1.285   .     A
C120   O329    1.291   .     A
C121   O330    1.296   .     A
C121   O362    1.285   .     A
C122   O331    1.293   .     A
C122   O339    1.294   .     A
C123   O332    1.289   .     A
C123   O337    1.286   .     A
C124   O333    1.288   .     A
C124   O372    1.284   .     A
C125   O334    1.292   .     A
C125   O370    1.279   .     A
C126   O335    1.280   .     A
C126   O352    1.292   .     A
C127   O24     1.288   .     A
C127   O389    1.288   .     A
C128   O351    1.288   .     A
C128   O336    1.285   .     A
C129   O340    1.282   .     A
C129   O361    1.294   .     A
C130   O359    1.305   .     A
C130   O341    1.277   .     A
C131   O365    1.298   .     A
C131   O344    1.288   .     A
C132   O345    1.285   .     A
C132   O364    1.292   .     A
C133   O348    1.295   .     A
C133   O356    1.294   .     A
C134   O355    1.289   .     A
C134   O350    1.296   .     A
C135   O353    1.280   .     A
C135   O369    1.292   .     A
C136   O354    1.284   .     A
C136   O368    1.287   .     A
C137   S1      1.805   .     S
C137   C143    1.406   .     A
C138   O35     1.284   .     A
C138   O386    1.289   .     A
C139   C142    1.399   .     A
C139   S12     1.799   .     S
C140   C145    1.391   .     A
C140   S23     1.784   .     S
C141   S34     1.789   .     S
C141   C144    1.396   .     A
C142   S45     1.777   .     S
C143   S56     1.795   .     S
C144   S67     1.777   .     S
C145   S78     1.778   .     S
C146   S89     1.808   .     S
C146   C152    1.408   .     A
C147   S2      1.798   .     S
C147   C151    1.398   .     A
C148   C154    1.390   .     A
C148   S3      1.781   .     S
C149   O46     1.286   .     A
C149   O387    1.287   .     A
C150   C153    1.399   .     A
C150   S4      1.791   .     S
C151   S5      1.776   .     S
C152   S6      1.797   .     S
C153   S7      1.787   .     S
C154   S8      1.780   .     S
C155   C161    1.406   .     A
C155   S9      1.804   .     S
C156   S10     1.798   .     S
C156   C159    1.400   .     A
C157   S11     1.782   .     S
C157   C163    1.391   .     A
C158   C162    1.397   .     A
C158   S13     1.790   .     S
C159   S14     1.776   .     S
C160   O384    1.284   .     A
C160   O57     1.304   .     A
C161   S15     1.795   .     S
C162   S16     1.788   .     S
C163   S17     1.779   .     S
C164   S18     1.781   .     S
C164   C169    1.397   1_565 S
C165   S19     1.786   .     S
C165   C168    1.397   1_545 S
C166   S20     1.801   .     S
C166   C172    1.409   1_565 S
C167   S21     1.790   .     S
C167   C170    1.405   1_545 S
C168   S22     1.791   .     S
C168   C165    1.397   1_565 S
C169   S24     1.771   .     S
C169   C164    1.397   1_545 S
C170   S25     1.791   .     S
C170   C167    1.405   1_565 S
C171   O385    1.289   .     A
C171   O68     1.301   .     A
C172   S26     1.789   .     S
C172   C166    1.409   1_545 S
C173   S27     1.788   .     S
C173   C178    1.390   1_545 S
C174   S28     1.782   .     S
C174   C177    1.383   1_565 S
C175   S29     1.792   .     S
C175   C180    1.402   1_545 S
C176   S30     1.788   .     S
C176   C179    1.391   1_565 S
C177   S31     1.765   .     S
C177   C174    1.383   1_545 S
C178   S32     1.770   .     S
C178   C173    1.390   1_565 S
C179   S33     1.769   .     S
C179   C176    1.391   1_545 S
C180   S35     1.794   .     S
C180   C175    1.402   1_565 S
C181   S36     1.776   .     S
C181   C187    1.397   1_655 S
C182   O79     1.281   .     A
C182   O373    1.302   .     A
C183   S37     1.788   .     S
C183   C186    1.396   1_455 S
C184   S38     1.804   .     S
C184   C189    1.409   1_655 S
C185   S39     1.789   .     S
C185   C188    1.404   1_455 S
C186   S40     1.789   .     S
C186   C183    1.396   1_655 S
C187   S41     1.781   .     S
C187   C181    1.397   1_455 S
C188   S42     1.794   .     S
C188   C185    1.404   1_655 S
C189   S43     1.788   .     S
C189   C184    1.409   1_455 S
C190   S44     1.789   .     S
C190   C5      1.390   1_455 S
C191   S46     1.782   .     S
C191   C4      1.384   1_655 S
C192   S47     1.791   .     S
C192   C7      1.402   1_455 S
H1     O10     0.992   .     S
H2     O40     0.994   .     S
H3     O43     0.993   .     S
H4     O47     0.995   .     S
H5     O50     0.988   .     S
H6     O53     0.987   .     S
H7     O56     0.986   .     S
H8     O60     0.989   .     S
H9     O63     0.994   .     S
H10    O66     0.994   .     S
H11    O70     0.993   .     S
H12    O14     0.993   .     S
H13    O73     0.995   .     S
H14    O76     0.987   .     S
H15    O80     0.993   .     S
H16    O83     0.989   .     S
H17    O86     0.989   .     S
H18    O89     0.994   .     S
H19    O93     0.994   .     S
H20    O96     0.994   .     S
H21    O99     0.994   .     S
H22    O103    0.987   1_545 S
H23    O17     0.993   .     S
H24    O106    1.003   .     S
H25    O109    0.990   1_545 S
H26    O114    0.988   1_565 S
H27    O117    0.993   .     S
H28    O120    0.994   .     S
H29    O123    0.992   .     S
H30    O127    0.992   .     S
H31    O130    0.990   1_565 S
H32    O133    0.990   .     S
H33    O137    0.987   1_565 S
H34    O20     0.994   .     S
H35    O140    0.990   1_545 S
H36    O143    0.995   .     S
H37    O147    0.994   .     S
H38    O150    0.994   .     S
H39    O153    0.994   .     S
H40    O156    0.985   1_455 S
H41    O160    0.992   .     S
H42    O163    0.989   1_455 S
H43    O166    0.991   1_655 S
H44    O170    0.991   .     S
H45    O23     0.987   .     S
H46    O173    0.993   .     S
H47    O176    0.993   .     S
H48    O180    0.993   .     S
H49    O183    0.989   1_655 S
H50    O186    0.989   .     S
H51    O189    0.986   1_655 S
H52    O193    0.989   .     S
H53    O196    0.993   .     S
H54    O199    0.994   .     S
H55    O203    0.994   .     S
H56    O27     1.010   .     S
H57    O206    0.994   .     S
H58    O209    0.986   1_556 S
H59    O213    0.997   .     S
H60    O216    0.989   1_556 S
H61    O219    0.989   1_554 S
H62    O222    0.991   .     S
H63    O227    0.988   .     S
H64    O230    0.993   .     S
H65    O233    0.994   .     S
H66    O237    0.989   1_554 S
H67    O30     0.994   .     S
H68    O240    0.989   .     S
H69    O243    0.989   1_554 S
H70    O247    0.988   .     S
H71    O250    0.993   .     S
H72    O253    0.993   .     S
H73    O256    0.993   .     S
H74    O260    0.991   .     S
H75    O263    0.990   .     S
H76    O266    0.999   .     S
H77    O270    0.990   .     S
H78    O33     0.989   .     S
H79    O273    0.990   .     S
H80    O276    0.993   .     S
H81    O280    0.994   .     S
H82    O283    0.994   .     S
H83    O286    0.994   .     S
H84    O289    0.992   .     S
H85    O293    0.988   .     S
H86    O296    0.989   .     S
H87    O299    0.989   .     S
H88    O303    0.991   .     S
H89    O37     0.992   .     S
H90    O306    0.993   .     S
H91    O309    0.995   .     S
H92    O313    0.993   .     S
H93    O316    0.994   .     S
H94    O319    0.991   .     S
H95    O322    0.989   .     S
H96    O326    0.990   .     S
O1     Zn22    1.972   .     S
O1     Zn17    1.959   .     S
O1     Zn5     1.970   .     S
O1     Zn1     1.971   .     S
O2     Zn24    1.956   .     S
O3     Zn1     1.957   .     S
O4     Zn29    1.957   .     S
O5     Zn28    1.957   .     S
O6     Zn23    1.953   .     S
O7     Zn27    1.953   .     S
O8     S1      1.501   .     D
O9     S1      1.502   .     D
O10    S1      1.680   .     S
O11    S12     1.502   .     D
O12    S12     1.503   .     D
O13    Zn25    1.960   .     S
O14    S12     1.683   .     S
O15    S23     1.501   .     D
O16    S23     1.502   .     D
O17    S23     1.683   .     S
O18    S34     1.501   .     D
O19    S34     1.503   .     D
O20    S34     1.683   .     S
O21    S45     1.487   .     D
O22    S45     1.502   .     D
O23    S45     1.679   .     S
O24    Zn26    1.960   .     S
O25    S56     1.493   .     D
O26    S56     1.501   .     D
O27    S56     1.679   .     S
O28    S67     1.500   .     D
O29    S67     1.507   .     D
O30    S67     1.684   .     S
O31    S78     1.501   .     D
O32    S78     1.503   .     D
O33    S78     1.683   .     S
O34    S89     1.501   .     D
O35    Zn18    1.953   .     S
O36    S89     1.501   .     D
O37    S89     1.678   .     S
O38    S2      1.502   .     D
O39    S2      1.502   .     D
O40    S2      1.683   .     S
O41    S3      1.500   .     D
O42    S3      1.502   .     D
O43    S3      1.683   .     S
O44    S4      1.501   .     D
O45    S4      1.503   .     D
O46    Zn19    1.953   .     S
O47    S4      1.682   .     S
O48    S5      1.488   .     D
O49    S5      1.502   .     D
O50    S5      1.679   .     S
O51    S6      1.489   .     D
O52    S6      1.496   .     D
O53    S6      1.676   .     S
O54    S7      1.501   .     D
O55    S7      1.501   .     D
O56    S7      1.678   .     S
O57    Zn20    1.957   .     S
O58    S8      1.499   .     D
O59    S8      1.503   .     D
O60    S8      1.681   .     S
O61    S9      1.502   .     D
O62    S9      1.504   .     D
O63    S9      1.681   .     S
O64    S10     1.501   .     D
O65    S10     1.503   .     D
O66    S10     1.682   .     S
O67    S11     1.500   .     D
O68    Zn21    1.957   .     S
O69    S11     1.503   .     D
O70    S11     1.683   .     S
O71    S13     1.502   .     D
O72    S13     1.503   .     D
O73    S13     1.684   .     S
O74    S14     1.487   .     D
O75    S14     1.502   .     D
O76    S14     1.679   .     S
O77    S15     1.494   .     D
O78    S15     1.505   .     D
O79    Zn21    1.957   .     S
O80    S15     1.678   .     S
O81    S16     1.497   .     D
O82    S16     1.501   .     D
O83    S16     1.679   .     S
O84    S17     1.499   .     D
O85    S17     1.504   .     D
O86    S17     1.681   .     S
O87    S18     1.495   .     D
O88    S18     1.503   .     D
O89    S18     1.681   .     S
O90    Zn20    1.957   .     S
O91    S19     1.494   .     D
O92    S19     1.502   .     D
O93    S19     1.681   .     S
O94    S20     1.501   .     D
O95    S20     1.503   .     D
O96    S20     1.684   .     S
O97    S21     1.498   .     D
O98    S21     1.505   .     D
O99    S21     1.682   .     S
O100   S22     1.500   .     D
O101   Zn19    1.956   .     S
O102   S22     1.505   .     D
O103   S22     1.681   .     S
O103   H22     0.987   1_565 S
O104   S24     1.502   .     D
O105   S24     1.504   .     D
O106   S24     1.690   .     S
O107   S25     1.497   .     D
O108   S25     1.503   .     D
O109   S25     1.679   .     S
O109   H25     0.990   1_565 S
O110   S26     1.494   .     D
O111   S26     1.502   .     D
O112   Zn16    1.959   .     S
O112   Zn6     1.970   .     S
O112   Zn12    1.971   .     S
O112   Zn24    1.972   .     S
O113   Zn18    1.956   .     S
O114   S26     1.679   .     S
O114   H26     0.988   1_545 S
O115   S27     1.503   .     D
O116   S27     1.500   .     D
O117   S27     1.684   .     S
O118   S28     1.496   .     D
O119   S28     1.497   .     D
O120   S28     1.681   .     S
O121   S29     1.501   .     D
O122   S29     1.502   .     D
O123   S29     1.684   .     S
O124   Zn26    1.959   .     S
O125   S30     1.502   .     D
O126   S30     1.503   .     D
O127   S30     1.684   .     S
O128   S31     1.500   .     D
O129   S31     1.498   .     D
O130   S31     1.682   .     S
O130   H31     0.990   1_545 S
O131   S32     1.498   .     D
O132   S32     1.502   .     D
O133   S32     1.684   .     S
O134   S33     1.498   .     D
O135   Zn25    1.959   .     S
O136   S33     1.500   .     D
O137   S33     1.678   .     S
O137   H33     0.987   1_545 S
O138   S35     1.499   .     D
O139   S35     1.503   .     D
O140   S35     1.677   .     S
O140   H35     0.990   1_565 S
O141   S36     1.492   .     D
O142   S36     1.501   .     D
O143   S36     1.681   .     S
O144   S37     1.494   .     D
O145   S37     1.502   .     D
O146   Zn24    1.953   .     S
O147   S37     1.680   .     S
O148   S38     1.501   .     D
O149   S38     1.503   .     D
O150   S38     1.684   .     S
O151   S39     1.497   .     D
O152   S39     1.504   .     D
O153   S39     1.682   .     S
O154   S40     1.503   .     D
O155   S40     1.506   .     D
O156   S40     1.680   .     S
O156   H40     0.985   1_655 S
O157   Zn22    1.953   .     S
O158   S41     1.498   .     D
O159   S41     1.500   .     D
O160   S41     1.684   .     S
O161   S42     1.496   .     D
O162   S42     1.504   .     D
O163   S42     1.678   .     S
O163   H42     0.989   1_655 S
O164   S43     1.492   .     D
O165   S43     1.500   .     D
O166   S43     1.680   .     S
O166   H43     0.991   1_455 S
O167   S44     1.502   .     D
O168   Zn25    1.959   .     S
O169   S44     1.501   .     D
O170   S44     1.683   .     S
O171   S46     1.497   .     D
O172   S46     1.501   .     D
O173   S46     1.681   .     S
O174   S47     1.501   .     D
O175   S47     1.503   .     D
O176   S47     1.683   .     S
O177   S48     1.500   .     D
O178   S48     1.504   .     D
O179   Zn26    1.959   .     S
O180   S48     1.682   .     S
O181   S49     1.501   .     D
O182   S49     1.501   .     D
O183   S49     1.682   .     S
O183   H49     0.989   1_455 S
O184   S50     1.498   .     D
O185   S50     1.503   .     D
O186   S50     1.684   .     S
O187   S51     1.496   .     D
O188   S51     1.502   .     D
O189   S51     1.676   .     S
O189   H51     0.986   1_455 S
O190   Zn19    1.957   .     S
O191   S52     1.501   .     D
O192   S52     1.505   .     D
O193   S52     1.678   .     S
O194   S53     1.496   .     D
O195   S53     1.498   .     D
O196   S53     1.686   .     S
O197   S54     1.494   .     D
O198   S54     1.503   .     D
O199   S54     1.680   .     S
O200   S55     1.501   .     D
O201   Zn18    1.957   .     S
O202   S55     1.504   .     D
O203   S55     1.685   .     S
O204   S57     1.497   .     D
O205   S57     1.503   .     D
O206   S57     1.681   .     S
O207   S58     1.501   .     D
O208   S58     1.505   .     D
O209   S58     1.680   .     S
O209   H58     0.986   1_554 S
O210   S59     1.487   .     D
O211   S59     1.499   .     D
O212   Zn24    1.957   .     S
O213   S59     1.679   .     S
O214   S60     1.496   .     D
O215   S60     1.503   .     D
O216   S60     1.678   .     S
O216   H60     0.989   1_554 S
O217   S61     1.493   .     D
O218   S61     1.502   .     D
O219   S61     1.679   .     S
O219   H61     0.989   1_556 S
O220   S62     1.502   .     D
O221   S62     1.502   .     D
O222   S62     1.684   .     S
O223   Zn11    1.972   .     S
O223   Zn3     1.971   .     S
O223   Zn23    1.970   .     S
O223   Zn25    1.959   .     S
O224   Zn22    1.957   .     S
O225   S63     1.493   .     D
O226   S63     1.494   .     D
O227   S63     1.676   .     S
O228   S64     1.501   .     D
O229   S64     1.503   .     D
O230   S64     1.683   .     S
O231   S65     1.502   .     D
O232   S65     1.504   .     D
O233   S65     1.678   .     S
O234   S66     1.502   .     D
O235   Zn20    1.953   .     S
O236   S66     1.497   .     D
O237   S66     1.682   .     S
O237   H66     0.989   1_556 S
O238   S68     1.497   .     D
O239   S68     1.505   .     D
O240   S68     1.684   .     S
O241   S69     1.492   .     D
O242   S69     1.503   .     D
O243   S69     1.675   .     S
O243   H69     0.989   1_556 S
O244   S70     1.500   .     D
O245   S70     1.505   .     D
O246   Zn21    1.953   .     S
O247   S70     1.676   .     S
O248   S71     1.501   .     D
O249   S71     1.501   .     D
O250   S71     1.683   .     S
O251   S72     1.499   .     D
O252   S72     1.504   .     D
O253   S72     1.684   .     S
O254   S73     1.503   .     D
O255   S73     1.504   .     D
O256   S73     1.683   .     S
O257   Zn13    1.956   .     S
O258   S74     1.503   .     D
O259   S74     1.502   .     D
O260   S74     1.682   .     S
O261   S75     1.496   .     D
O262   S75     1.506   .     D
O263   S75     1.683   .     S
O264   S76     1.496   .     D
O265   S76     1.504   .     D
O266   S76     1.680   .     S
O267   S77     1.498   .     D
O268   Zn11    1.956   .     S
O269   S77     1.504   .     D
O270   S77     1.680   .     S
O271   S79     1.498   .     D
O272   S79     1.505   .     D
O273   S79     1.679   .     S
O274   S80     1.502   .     D
O275   S80     1.502   .     D
O276   S80     1.682   .     S
O277   S81     1.502   .     D
O278   S81     1.504   .     D
O279   Zn7     1.960   .     S
O280   S81     1.684   .     S
O281   S82     1.503   .     D
O282   S82     1.503   .     D
O283   S82     1.683   .     S
O284   S83     1.502   .     D
O285   S83     1.504   .     D
O286   S83     1.683   .     S
O287   S84     1.493   .     D
O288   S84     1.503   .     D
O289   S84     1.679   .     S
O290   Zn8     1.960   .     S
O291   S85     1.498   .     D
O292   S85     1.505   .     D
O293   S85     1.680   .     S
O294   S86     1.497   .     D
O295   S86     1.504   .     D
O296   S86     1.680   .     S
O297   S87     1.496   .     D
O298   S87     1.505   .     D
O299   S87     1.678   .     S
O300   S88     1.502   .     D
O301   Zn14    1.953   .     S
O302   S88     1.502   .     D
O303   S88     1.681   .     S
O304   S90     1.498   .     D
O305   S90     1.504   .     D
O306   S90     1.683   .     S
O307   S91     1.502   .     D
O308   S91     1.504   .     D
O309   S91     1.683   .     S
O310   S92     1.502   .     D
O311   S92     1.503   .     D
O312   Zn15    1.953   .     S
O313   S92     1.682   .     S
O314   S93     1.497   .     D
O315   S93     1.504   .     D
O316   S93     1.684   .     S
O317   S94     1.496   .     D
O318   S94     1.504   .     D
O319   S94     1.678   .     S
O320   S95     1.498   .     D
O321   S95     1.504   .     D
O322   S95     1.679   .     S
O323   Zn6     1.957   .     S
O324   S96     1.496   .     D
O325   S96     1.507   .     D
O326   S96     1.679   .     S
O327   Zn27    1.970   .     S
O327   Zn26    1.959   .     S
O327   Zn4     1.971   .     S
O327   Zn13    1.972   .     S
O328   Zn5     1.957   .     S
O329   Zn9     1.957   .     S
O330   Zn10    1.957   .     S
O331   Zn3     1.956   .     S
O332   Zn4     1.956   .     S
O333   Zn17    1.959   .     S
O334   Zn16    1.959   .     S
O335   Zn2     1.953   .     S
O336   Zn32    1.953   .     S
O337   Zn27    1.957   .     S
O338   Zn8     1.959   .     S
O338   Zn18    1.971   .     S
O338   Zn28    1.972   .     S
O338   Zn9     1.970   .     S
O339   Zn23    1.957   .     S
O340   Zn16    1.959   .     S
O341   Zn17    1.959   .     S
O342   Zn28    1.953   .     S
O343   Zn29    1.953   .     S
O344   Zn15    1.957   .     S
O345   Zn14    1.957   .     S
O346   Zn1     1.956   .     S
O347   Zn12    1.956   .     S
O348   Zn11    1.957   .     S
O349   Zn19    1.971   .     S
O349   Zn10    1.970   .     S
O349   Zn29    1.972   .     S
O349   Zn7     1.959   .     S
O350   Zn13    1.957   .     S
O351   Zn31    1.960   .     S
O352   Zn30    1.960   .     S
O353   Zn10    1.953   .     S
O354   Zn9     1.953   .     S
O355   Zn4     1.957   .     S
O356   Zn3     1.957   .     S
O357   Zn30    1.959   .     S
O358   Zn31    1.959   .     S
O359   Zn5     1.953   .     S
O360   Zn2     1.972   .     S
O360   Zn15    1.971   .     S
O360   Zn30    1.959   .     S
O360   Zn20    1.970   .     S
O361   Zn6     1.953   .     S
O362   Zn29    1.956   .     S
O363   Zn28    1.956   .     S
O364   Zn32    1.957   .     S
O365   Zn2     1.957   .     S
O366   Zn23    1.957   .     S
O367   Zn27    1.957   .     S
O368   Zn8     1.959   .     S
O369   Zn7     1.959   .     S
O370   Zn12    1.953   .     S
O371   Zn14    1.971   .     S
O371   Zn31    1.959   .     S
O371   Zn32    1.972   .     S
O371   Zn21    1.970   .     S
O372   Zn1     1.953   .     S
O373   Zn32    1.956   .     S
O374   Zn2     1.956   .     S
O375   Zn16    1.960   .     S
O376   Zn17    1.960   .     S
O377   Zn4     1.953   .     S
O378   Zn3     1.953   .     S
O379   Zn10    1.957   .     S
O380   Zn9     1.957   .     S
O381   Zn5     1.957   .     S
O382   Zn22    1.956   .     S
O383   Zn6     1.957   .     S
O384   Zn15    1.956   .     S
O385   Zn14    1.956   .     S
O386   Zn8     1.959   .     S
O387   Zn7     1.959   .     S
O388   Zn11    1.953   .     S
O389   Zn13    1.953   .     S
O390   Zn30    1.959   .     S
O391   Zn31    1.959   .     S
O392   Zn12    1.957   .     S
