data_str_m1_o10_o18_pcu_sym.135
_audit_creation_date              2020-01-03
_audit_creation_method            'Materials Studio'
_symmetry_space_group_name_H-M    'P1'
_symmetry_Int_Tables_number       1
_symmetry_cell_setting            triclinic
loop_
_symmetry_equiv_pos_as_xyz
  x,y,z
_cell_length_a                    32.5209
_cell_length_b                    32.7635
_cell_length_c                    35.4499
_cell_angle_alpha                 98.6308
_cell_angle_beta                  72.7761
_cell_angle_gamma                 99.0497
loop_
_atom_site_label
_atom_site_type_symbol
_atom_site_fract_x
_atom_site_fract_y
_atom_site_fract_z
_atom_site_U_iso_or_equiv
_atom_site_adp_type
_atom_site_occupancy
Zn1    Zn    0.19244   0.14090   0.28278   0.00000  Uiso   1.00
Zn2    Zn    0.13459   0.12378   0.22258   0.00000  Uiso   1.00
Zn3    Zn    0.21166   0.19664   0.21188   0.00000  Uiso   1.00
Zn4    Zn    0.12798   0.20535   0.28277   0.00000  Uiso   1.00
O5     O     0.16667   0.16667   0.25000   0.00000  Uiso   1.00
O6     O     0.06990   0.18960   0.27820   0.00000  Uiso   1.00
O7     O     0.25440   0.15277   0.26768   0.00000  Uiso   1.00
O8     O     0.13800   0.06903   0.23607   0.00000  Uiso   1.00
O9     O     0.20437   0.25527   0.21806   0.00000  Uiso   1.00
O10    O     0.15693   0.12393   0.16625   0.00000  Uiso   1.00
O11    O     0.12687   0.20646   0.33749   0.00000  Uiso   1.00
O12    O     0.21088   0.17493   0.15877   0.00000  Uiso   1.00
O13    O     0.17198   0.16135   0.33749   0.00000  Uiso   1.00
O14    O     0.17849   0.08101   0.27821   0.00000  Uiso   1.00
O15    O     0.14581   0.26136   0.26767   0.00000  Uiso   1.00
O16    O     0.07452   0.13251   0.23607   0.00000  Uiso   1.00
O17    O     0.26785   0.19179   0.21806   0.00000  Uiso   1.00
C18    C     0.05235   0.15937   0.25915   0.00000  Uiso   1.00
C19    C     0.28115   0.17434   0.24146   0.00000  Uiso   1.00
C20    C     0.15594   0.05634   0.25857   0.00000  Uiso   1.00
C21    C     0.17685   0.27781   0.24168   0.00000  Uiso   1.00
C22    C     0.18781   0.14567   0.14379   0.00000  Uiso   1.00
C23    C     0.14491   0.18729   0.35637   0.00000  Uiso   1.00
C24    C     0.12895   0.18876   0.39996   0.00000  Uiso   1.00
C25    C     0.19593   0.13750   0.10072   0.00000  Uiso   1.00
C26    C     0.06849   0.19180   0.46063   0.00000  Uiso   1.00
C27    C     0.08657   0.19717   0.42001   0.00000  Uiso   1.00
C28    C     0.15380   0.17505   0.42041   0.00000  Uiso   1.00
C29    C     0.13566   0.16480   0.45926   0.00000  Uiso   1.00
C30    C     0.09403   0.17648   0.48064   0.00000  Uiso   1.00
C31    C     0.15888   0.14485   0.47808   0.00000  Uiso   1.00
C32    C     0.14784   0.15040   0.02010   0.00000  Uiso   1.00
C33    C     0.10573   0.15970   0.04079   0.00000  Uiso   1.00
C34    C     0.07895   0.17177   0.02139   0.00000  Uiso   1.00
C35    C     0.18880   0.11581   0.45760   0.00000  Uiso   1.00
C36    C     0.21313   0.10152   0.47857   0.00000  Uiso   1.00
C37    C     0.20854   0.11450   0.01899   0.00000  Uiso   1.00
C38    C     0.17656   0.14096   0.04007   0.00000  Uiso   1.00
C39    C     0.23331   0.09922   0.03940   0.00000  Uiso   1.00
C40    C     0.22438   0.10867   0.08048   0.00000  Uiso   1.00
C41    C     0.17526   0.15748   0.08003   0.00000  Uiso   1.00
H42    H     0.04689   0.17830   0.03907   0.00000  Uiso   1.00
H43    H     0.24139   0.09500   0.09661   0.00000  Uiso   1.00
H44    H     0.23444   0.07834   0.46338   0.00000  Uiso   1.00
H45    H     0.06773   0.20699   0.40326   0.00000  Uiso   1.00
H46    H     0.18780   0.17334   0.40591   0.00000  Uiso   1.00
H47    H     0.09181   0.15440   0.07158   0.00000  Uiso   1.00
C48    C     0.32750   0.17896   0.23823   0.00000  Uiso   1.00
C49    C     0.00743   0.15711   0.26068   0.00000  Uiso   1.00
H50    H     0.31829   0.13556   0.27981   0.00000  Uiso   1.00
C51    C     0.18079   0.32255   0.23949   0.00000  Uiso   1.00
C52    C     0.14918   0.01261   0.26219   0.00000  Uiso   1.00
N53    N     0.26708   0.07363   0.01918   0.00000  Uiso   1.00
O54    O     0.27167   0.04208   0.03529   0.00000  Uiso   1.00
O55    O     0.29779   0.08614   0.48877   0.00000  Uiso   1.00
N56    N     0.02400   0.20675   0.21175   0.00000  Uiso   1.00
O57    O     0.01200   0.24102   0.20644   0.00000  Uiso   1.00
O58    O     0.06183   0.19659   0.19060   0.00000  Uiso   1.00
N59    N     0.21949   0.00788   0.21264   0.00000  Uiso   1.00
O60    O     0.25718   0.33084   0.21056   0.00000  Uiso   1.00
O61    O     0.21672   0.03108   0.18694   0.00000  Uiso   1.00
C62    C     0.10586   0.32885   0.28981   0.00000  Uiso   1.00
C63    C     0.07379   0.02764   0.30948   0.00000  Uiso   1.00
C64    C     0.03258   0.00785   0.33742   0.00000  Uiso   1.00
H65    H     0.01609   0.31564   0.32076   0.00000  Uiso   1.00
H66    H     0.04043   0.32859   0.36152   0.00000  Uiso   1.00
H67    H     0.01009   0.03164   0.35103   0.00000  Uiso   1.00
H68    H     0.08899   0.05352   0.32687   0.00000  Uiso   1.00
H69    H     0.06461   0.04060   0.28628   0.00000  Uiso   1.00
H70    H     0.08934   0.30412   0.27236   0.00000  Uiso   1.00
H71    H     0.11260   0.31552   0.31410   0.00000  Uiso   1.00
C72    C     0.16015   0.20008   0.09799   0.00000  Uiso   1.00
C73    C     0.18730   0.23456   0.07309   0.00000  Uiso   1.00
C74    C     0.17436   0.27736   0.09206   0.00000  Uiso   1.00
H75    H     0.13972   0.27868   0.09457   0.00000  Uiso   1.00
H76    H     0.17957   0.28423   0.12208   0.00000  Uiso   1.00
H77    H     0.19451   0.30150   0.07331   0.00000  Uiso   1.00
H78    H     0.22217   0.23427   0.07050   0.00000  Uiso   1.00
H79    H     0.18299   0.22927   0.04274   0.00000  Uiso   1.00
H80    H     0.12538   0.20104   0.10211   0.00000  Uiso   1.00
H81    H     0.16366   0.20847   0.12843   0.00000  Uiso   1.00
C82    C     0.02215   0.20069   0.48267   0.00000  Uiso   1.00
C83    C     0.32910   0.21331   0.45764   0.00000  Uiso   1.00
C84    C     0.28315   0.22004   0.48283   0.00000  Uiso   1.00
H85    H     0.26606   0.19117   0.49596   0.00000  Uiso   1.00
H86    H     0.28416   0.24565   0.00705   0.00000  Uiso   1.00
H87    H     0.26463   0.22851   0.46396   0.00000  Uiso   1.00
H88    H     0.01176   0.24274   0.44496   0.00000  Uiso   1.00
H89    H     0.32683   0.18836   0.43308   0.00000  Uiso   1.00
H90    H     0.00413   0.17211   0.49592   0.00000  Uiso   1.00
H91    H     0.02355   0.22591   0.00719   0.00000  Uiso   1.00
C92    C     0.18887   0.09165   0.41717   0.00000  Uiso   1.00
C93    C     0.14469   0.06623   0.41830   0.00000  Uiso   1.00
C94    C     0.14604   0.03888   0.37924   0.00000  Uiso   1.00
H95    H     0.15465   0.05839   0.35435   0.00000  Uiso   1.00
H96    H     0.17018   0.01652   0.37327   0.00000  Uiso   1.00
H97    H     0.11364   0.02106   0.38112   0.00000  Uiso   1.00
H98    H     0.13537   0.04604   0.44279   0.00000  Uiso   1.00
H99    H     0.11932   0.08716   0.42381   0.00000  Uiso   1.00
H100   H     0.19908   0.11141   0.39266   0.00000  Uiso   1.00
H101   H     0.21348   0.06939   0.40848   0.00000  Uiso   1.00
Zn102  Zn    0.52577   0.14090   0.28278   0.00000  Uiso   1.00
Zn103  Zn    0.46792   0.12378   0.22258   0.00000  Uiso   1.00
Zn104  Zn    0.54500   0.19664   0.21188   0.00000  Uiso   1.00
Zn105  Zn    0.46131   0.20535   0.28277   0.00000  Uiso   1.00
O106   O     0.50000   0.16667   0.25000   0.00000  Uiso   1.00
O107   O     0.40323   0.18960   0.27820   0.00000  Uiso   1.00
O108   O     0.58773   0.15277   0.26768   0.00000  Uiso   1.00
O109   O     0.47133   0.06903   0.23607   0.00000  Uiso   1.00
O110   O     0.53771   0.25527   0.21806   0.00000  Uiso   1.00
O111   O     0.49027   0.12393   0.16625   0.00000  Uiso   1.00
O112   O     0.46020   0.20646   0.33749   0.00000  Uiso   1.00
O113   O     0.54421   0.17493   0.15877   0.00000  Uiso   1.00
O114   O     0.50532   0.16135   0.33749   0.00000  Uiso   1.00
O115   O     0.51182   0.08101   0.27821   0.00000  Uiso   1.00
O116   O     0.47914   0.26136   0.26767   0.00000  Uiso   1.00
O117   O     0.40785   0.13251   0.23607   0.00000  Uiso   1.00
O118   O     0.60119   0.19179   0.21806   0.00000  Uiso   1.00
C119   C     0.38568   0.15937   0.25915   0.00000  Uiso   1.00
C120   C     0.61449   0.17434   0.24146   0.00000  Uiso   1.00
C121   C     0.48928   0.05634   0.25857   0.00000  Uiso   1.00
C122   C     0.51018   0.27781   0.24168   0.00000  Uiso   1.00
C123   C     0.52115   0.14567   0.14379   0.00000  Uiso   1.00
C124   C     0.47825   0.18729   0.35637   0.00000  Uiso   1.00
C125   C     0.46229   0.18876   0.39996   0.00000  Uiso   1.00
C126   C     0.52926   0.13750   0.10072   0.00000  Uiso   1.00
C127   C     0.40182   0.19180   0.46063   0.00000  Uiso   1.00
C128   C     0.41990   0.19717   0.42001   0.00000  Uiso   1.00
C129   C     0.48713   0.17505   0.42041   0.00000  Uiso   1.00
C130   C     0.46899   0.16480   0.45926   0.00000  Uiso   1.00
C131   C     0.42736   0.17648   0.48064   0.00000  Uiso   1.00
C132   C     0.49221   0.14485   0.47808   0.00000  Uiso   1.00
C133   C     0.48117   0.15040   0.02010   0.00000  Uiso   1.00
C134   C     0.43906   0.15970   0.04079   0.00000  Uiso   1.00
C135   C     0.41228   0.17177   0.02139   0.00000  Uiso   1.00
C136   C     0.52213   0.11581   0.45760   0.00000  Uiso   1.00
C137   C     0.54646   0.10152   0.47857   0.00000  Uiso   1.00
C138   C     0.54187   0.11450   0.01899   0.00000  Uiso   1.00
C139   C     0.50989   0.14096   0.04007   0.00000  Uiso   1.00
C140   C     0.56665   0.09922   0.03940   0.00000  Uiso   1.00
C141   C     0.55771   0.10867   0.08048   0.00000  Uiso   1.00
C142   C     0.50859   0.15748   0.08003   0.00000  Uiso   1.00
H143   H     0.38022   0.17830   0.03907   0.00000  Uiso   1.00
H144   H     0.57472   0.09500   0.09661   0.00000  Uiso   1.00
H145   H     0.56777   0.07834   0.46338   0.00000  Uiso   1.00
H146   H     0.40106   0.20699   0.40326   0.00000  Uiso   1.00
H147   H     0.52113   0.17334   0.40591   0.00000  Uiso   1.00
H148   H     0.42515   0.15440   0.07158   0.00000  Uiso   1.00
C149   C     0.66084   0.17896   0.23823   0.00000  Uiso   1.00
C150   C     0.34077   0.15711   0.26068   0.00000  Uiso   1.00
H151   H     0.65163   0.13556   0.27981   0.00000  Uiso   1.00
C152   C     0.51412   0.32255   0.23949   0.00000  Uiso   1.00
C153   C     0.48251   0.01261   0.26219   0.00000  Uiso   1.00
N154   N     0.60042   0.07363   0.01918   0.00000  Uiso   1.00
O155   O     0.60500   0.04208   0.03529   0.00000  Uiso   1.00
O156   O     0.63113   0.08614   0.48877   0.00000  Uiso   1.00
N157   N     0.35734   0.20675   0.21175   0.00000  Uiso   1.00
O158   O     0.34534   0.24102   0.20644   0.00000  Uiso   1.00
O159   O     0.39517   0.19659   0.19060   0.00000  Uiso   1.00
N160   N     0.55283   0.00788   0.21264   0.00000  Uiso   1.00
O161   O     0.59052   0.33084   0.21056   0.00000  Uiso   1.00
O162   O     0.55005   0.03108   0.18694   0.00000  Uiso   1.00
C163   C     0.43920   0.32885   0.28981   0.00000  Uiso   1.00
C164   C     0.40712   0.02764   0.30948   0.00000  Uiso   1.00
C165   C     0.36591   0.00785   0.33742   0.00000  Uiso   1.00
H166   H     0.34942   0.31564   0.32076   0.00000  Uiso   1.00
H167   H     0.37377   0.32859   0.36152   0.00000  Uiso   1.00
H168   H     0.34342   0.03164   0.35103   0.00000  Uiso   1.00
H169   H     0.42232   0.05352   0.32687   0.00000  Uiso   1.00
H170   H     0.39795   0.04060   0.28628   0.00000  Uiso   1.00
H171   H     0.42267   0.30412   0.27236   0.00000  Uiso   1.00
H172   H     0.44593   0.31552   0.31410   0.00000  Uiso   1.00
C173   C     0.49348   0.20008   0.09799   0.00000  Uiso   1.00
C174   C     0.52064   0.23456   0.07309   0.00000  Uiso   1.00
C175   C     0.50769   0.27736   0.09206   0.00000  Uiso   1.00
H176   H     0.47305   0.27868   0.09457   0.00000  Uiso   1.00
H177   H     0.51291   0.28423   0.12208   0.00000  Uiso   1.00
H178   H     0.52785   0.30150   0.07331   0.00000  Uiso   1.00
H179   H     0.55551   0.23427   0.07050   0.00000  Uiso   1.00
H180   H     0.51632   0.22927   0.04274   0.00000  Uiso   1.00
H181   H     0.45871   0.20104   0.10211   0.00000  Uiso   1.00
H182   H     0.49699   0.20847   0.12843   0.00000  Uiso   1.00
C183   C     0.35549   0.20069   0.48267   0.00000  Uiso   1.00
C184   C     0.66243   0.21331   0.45764   0.00000  Uiso   1.00
C185   C     0.61649   0.22004   0.48283   0.00000  Uiso   1.00
H186   H     0.59940   0.19117   0.49596   0.00000  Uiso   1.00
H187   H     0.61750   0.24565   0.00705   0.00000  Uiso   1.00
H188   H     0.59796   0.22851   0.46396   0.00000  Uiso   1.00
H189   H     0.34509   0.24274   0.44496   0.00000  Uiso   1.00
H190   H     0.66017   0.18836   0.43308   0.00000  Uiso   1.00
H191   H     0.33747   0.17211   0.49592   0.00000  Uiso   1.00
H192   H     0.35688   0.22591   0.00719   0.00000  Uiso   1.00
C193   C     0.52221   0.09165   0.41717   0.00000  Uiso   1.00
C194   C     0.47802   0.06623   0.41830   0.00000  Uiso   1.00
C195   C     0.47937   0.03888   0.37924   0.00000  Uiso   1.00
H196   H     0.48798   0.05839   0.35435   0.00000  Uiso   1.00
H197   H     0.50351   0.01652   0.37327   0.00000  Uiso   1.00
H198   H     0.44698   0.02106   0.38112   0.00000  Uiso   1.00
H199   H     0.46871   0.04604   0.44279   0.00000  Uiso   1.00
H200   H     0.45265   0.08716   0.42381   0.00000  Uiso   1.00
H201   H     0.53241   0.11141   0.39266   0.00000  Uiso   1.00
H202   H     0.54681   0.06939   0.40848   0.00000  Uiso   1.00
Zn203  Zn    0.85910   0.14090   0.28278   0.00000  Uiso   1.00
Zn204  Zn    0.80125   0.12378   0.22258   0.00000  Uiso   1.00
Zn205  Zn    0.87833   0.19664   0.21188   0.00000  Uiso   1.00
Zn206  Zn    0.79465   0.20535   0.28277   0.00000  Uiso   1.00
O207   O     0.83333   0.16667   0.25000   0.00000  Uiso   1.00
O208   O     0.73656   0.18960   0.27820   0.00000  Uiso   1.00
O209   O     0.92106   0.15277   0.26768   0.00000  Uiso   1.00
O210   O     0.80467   0.06903   0.23607   0.00000  Uiso   1.00
O211   O     0.87104   0.25527   0.21806   0.00000  Uiso   1.00
O212   O     0.82360   0.12393   0.16625   0.00000  Uiso   1.00
O213   O     0.79354   0.20646   0.33749   0.00000  Uiso   1.00
O214   O     0.87755   0.17493   0.15877   0.00000  Uiso   1.00
O215   O     0.83865   0.16135   0.33749   0.00000  Uiso   1.00
O216   O     0.84515   0.08101   0.27821   0.00000  Uiso   1.00
O217   O     0.81247   0.26136   0.26767   0.00000  Uiso   1.00
O218   O     0.74119   0.13251   0.23607   0.00000  Uiso   1.00
O219   O     0.93452   0.19179   0.21806   0.00000  Uiso   1.00
C220   C     0.71902   0.15937   0.25915   0.00000  Uiso   1.00
C221   C     0.94782   0.17434   0.24146   0.00000  Uiso   1.00
C222   C     0.82261   0.05634   0.25857   0.00000  Uiso   1.00
C223   C     0.84352   0.27781   0.24168   0.00000  Uiso   1.00
C224   C     0.85448   0.14567   0.14379   0.00000  Uiso   1.00
C225   C     0.81158   0.18729   0.35637   0.00000  Uiso   1.00
C226   C     0.79562   0.18876   0.39996   0.00000  Uiso   1.00
C227   C     0.86260   0.13750   0.10072   0.00000  Uiso   1.00
C228   C     0.73516   0.19180   0.46063   0.00000  Uiso   1.00
C229   C     0.75323   0.19717   0.42001   0.00000  Uiso   1.00
C230   C     0.82047   0.17505   0.42041   0.00000  Uiso   1.00
C231   C     0.80233   0.16480   0.45926   0.00000  Uiso   1.00
C232   C     0.76070   0.17648   0.48064   0.00000  Uiso   1.00
C233   C     0.82555   0.14485   0.47808   0.00000  Uiso   1.00
C234   C     0.81451   0.15040   0.02010   0.00000  Uiso   1.00
C235   C     0.77239   0.15970   0.04079   0.00000  Uiso   1.00
C236   C     0.74561   0.17177   0.02139   0.00000  Uiso   1.00
C237   C     0.85546   0.11581   0.45760   0.00000  Uiso   1.00
C238   C     0.87979   0.10152   0.47857   0.00000  Uiso   1.00
C239   C     0.87520   0.11450   0.01899   0.00000  Uiso   1.00
C240   C     0.84322   0.14096   0.04007   0.00000  Uiso   1.00
C241   C     0.89998   0.09922   0.03940   0.00000  Uiso   1.00
C242   C     0.89104   0.10867   0.08048   0.00000  Uiso   1.00
C243   C     0.84193   0.15748   0.08003   0.00000  Uiso   1.00
H244   H     0.71355   0.17830   0.03907   0.00000  Uiso   1.00
H245   H     0.90806   0.09500   0.09661   0.00000  Uiso   1.00
H246   H     0.90111   0.07834   0.46338   0.00000  Uiso   1.00
H247   H     0.73439   0.20699   0.40326   0.00000  Uiso   1.00
H248   H     0.85446   0.17334   0.40591   0.00000  Uiso   1.00
H249   H     0.75848   0.15440   0.07158   0.00000  Uiso   1.00
C250   C     0.99417   0.17896   0.23823   0.00000  Uiso   1.00
C251   C     0.67410   0.15711   0.26068   0.00000  Uiso   1.00
H252   H     0.98496   0.13556   0.27981   0.00000  Uiso   1.00
C253   C     0.84746   0.32255   0.23949   0.00000  Uiso   1.00
C254   C     0.81585   0.01261   0.26219   0.00000  Uiso   1.00
N255   N     0.93375   0.07363   0.01918   0.00000  Uiso   1.00
O256   O     0.93834   0.04208   0.03529   0.00000  Uiso   1.00
O257   O     0.96446   0.08614   0.48877   0.00000  Uiso   1.00
N258   N     0.69067   0.20675   0.21175   0.00000  Uiso   1.00
O259   O     0.67867   0.24102   0.20644   0.00000  Uiso   1.00
O260   O     0.72850   0.19659   0.19060   0.00000  Uiso   1.00
N261   N     0.88616   0.00788   0.21264   0.00000  Uiso   1.00
O262   O     0.92385   0.33084   0.21056   0.00000  Uiso   1.00
O263   O     0.88339   0.03108   0.18694   0.00000  Uiso   1.00
C264   C     0.77253   0.32885   0.28981   0.00000  Uiso   1.00
C265   C     0.74045   0.02764   0.30948   0.00000  Uiso   1.00
C266   C     0.69925   0.00785   0.33742   0.00000  Uiso   1.00
H267   H     0.68276   0.31564   0.32076   0.00000  Uiso   1.00
H268   H     0.70710   0.32859   0.36152   0.00000  Uiso   1.00
H269   H     0.67676   0.03164   0.35103   0.00000  Uiso   1.00
H270   H     0.75565   0.05352   0.32687   0.00000  Uiso   1.00
H271   H     0.73128   0.04060   0.28628   0.00000  Uiso   1.00
H272   H     0.75601   0.30412   0.27236   0.00000  Uiso   1.00
H273   H     0.77927   0.31552   0.31410   0.00000  Uiso   1.00
C274   C     0.82681   0.20008   0.09799   0.00000  Uiso   1.00
C275   C     0.85397   0.23456   0.07309   0.00000  Uiso   1.00
C276   C     0.84103   0.27736   0.09206   0.00000  Uiso   1.00
H277   H     0.80638   0.27868   0.09457   0.00000  Uiso   1.00
H278   H     0.84624   0.28423   0.12208   0.00000  Uiso   1.00
H279   H     0.86118   0.30150   0.07331   0.00000  Uiso   1.00
H280   H     0.88884   0.23427   0.07050   0.00000  Uiso   1.00
H281   H     0.84966   0.22927   0.04274   0.00000  Uiso   1.00
H282   H     0.79205   0.20104   0.10211   0.00000  Uiso   1.00
H283   H     0.83032   0.20847   0.12843   0.00000  Uiso   1.00
C284   C     0.68882   0.20069   0.48267   0.00000  Uiso   1.00
C285   C     0.99577   0.21331   0.45764   0.00000  Uiso   1.00
C286   C     0.94982   0.22004   0.48283   0.00000  Uiso   1.00
H287   H     0.93273   0.19117   0.49596   0.00000  Uiso   1.00
H288   H     0.95083   0.24565   0.00705   0.00000  Uiso   1.00
H289   H     0.93129   0.22851   0.46396   0.00000  Uiso   1.00
H290   H     0.67843   0.24274   0.44496   0.00000  Uiso   1.00
H291   H     0.99350   0.18836   0.43308   0.00000  Uiso   1.00
H292   H     0.67080   0.17211   0.49592   0.00000  Uiso   1.00
H293   H     0.69021   0.22591   0.00719   0.00000  Uiso   1.00
C294   C     0.85554   0.09165   0.41717   0.00000  Uiso   1.00
C295   C     0.81136   0.06623   0.41830   0.00000  Uiso   1.00
C296   C     0.81271   0.03888   0.37924   0.00000  Uiso   1.00
H297   H     0.82131   0.05839   0.35435   0.00000  Uiso   1.00
H298   H     0.83685   0.01652   0.37327   0.00000  Uiso   1.00
H299   H     0.78031   0.02106   0.38112   0.00000  Uiso   1.00
H300   H     0.80204   0.04604   0.44279   0.00000  Uiso   1.00
H301   H     0.78598   0.08716   0.42381   0.00000  Uiso   1.00
H302   H     0.86574   0.11141   0.39266   0.00000  Uiso   1.00
H303   H     0.88015   0.06939   0.40848   0.00000  Uiso   1.00
Zn304  Zn    0.19244   0.47423   0.28278   0.00000  Uiso   1.00
Zn305  Zn    0.13459   0.45711   0.22258   0.00000  Uiso   1.00
Zn306  Zn    0.21166   0.52997   0.21188   0.00000  Uiso   1.00
Zn307  Zn    0.12798   0.53868   0.28277   0.00000  Uiso   1.00
O308   O     0.16667   0.50000   0.25000   0.00000  Uiso   1.00
O309   O     0.06990   0.52293   0.27820   0.00000  Uiso   1.00
O310   O     0.25440   0.48610   0.26768   0.00000  Uiso   1.00
O311   O     0.13800   0.40236   0.23607   0.00000  Uiso   1.00
O312   O     0.20437   0.58860   0.21806   0.00000  Uiso   1.00
O313   O     0.15693   0.45726   0.16625   0.00000  Uiso   1.00
O314   O     0.12687   0.53979   0.33749   0.00000  Uiso   1.00
O315   O     0.21088   0.50826   0.15877   0.00000  Uiso   1.00
O316   O     0.17198   0.49468   0.33749   0.00000  Uiso   1.00
O317   O     0.17849   0.41434   0.27821   0.00000  Uiso   1.00
O318   O     0.14581   0.59469   0.26767   0.00000  Uiso   1.00
O319   O     0.07452   0.46584   0.23607   0.00000  Uiso   1.00
O320   O     0.26785   0.52512   0.21806   0.00000  Uiso   1.00
C321   C     0.05235   0.49270   0.25915   0.00000  Uiso   1.00
C322   C     0.28115   0.50767   0.24146   0.00000  Uiso   1.00
C323   C     0.15594   0.38967   0.25857   0.00000  Uiso   1.00
C324   C     0.17685   0.61114   0.24168   0.00000  Uiso   1.00
C325   C     0.18781   0.47900   0.14379   0.00000  Uiso   1.00
C326   C     0.14491   0.52063   0.35637   0.00000  Uiso   1.00
C327   C     0.12895   0.52209   0.39996   0.00000  Uiso   1.00
C328   C     0.19593   0.47083   0.10072   0.00000  Uiso   1.00
C329   C     0.06849   0.52513   0.46063   0.00000  Uiso   1.00
C330   C     0.08657   0.53050   0.42001   0.00000  Uiso   1.00
C331   C     0.15380   0.50839   0.42041   0.00000  Uiso   1.00
C332   C     0.13566   0.49813   0.45926   0.00000  Uiso   1.00
C333   C     0.09403   0.50981   0.48064   0.00000  Uiso   1.00
C334   C     0.15888   0.47818   0.47808   0.00000  Uiso   1.00
C335   C     0.14784   0.48373   0.02010   0.00000  Uiso   1.00
C336   C     0.10573   0.49304   0.04079   0.00000  Uiso   1.00
C337   C     0.07895   0.50510   0.02139   0.00000  Uiso   1.00
C338   C     0.18880   0.44914   0.45760   0.00000  Uiso   1.00
C339   C     0.21313   0.43485   0.47857   0.00000  Uiso   1.00
C340   C     0.20854   0.44783   0.01899   0.00000  Uiso   1.00
C341   C     0.17656   0.47429   0.04007   0.00000  Uiso   1.00
C342   C     0.23331   0.43255   0.03940   0.00000  Uiso   1.00
C343   C     0.22438   0.44200   0.08048   0.00000  Uiso   1.00
C344   C     0.17526   0.49081   0.08003   0.00000  Uiso   1.00
H345   H     0.04689   0.51164   0.03907   0.00000  Uiso   1.00
H346   H     0.24139   0.42833   0.09661   0.00000  Uiso   1.00
H347   H     0.23444   0.41168   0.46338   0.00000  Uiso   1.00
H348   H     0.06773   0.54033   0.40326   0.00000  Uiso   1.00
H349   H     0.18780   0.50668   0.40591   0.00000  Uiso   1.00
H350   H     0.09181   0.48774   0.07158   0.00000  Uiso   1.00
C351   C     0.32750   0.51229   0.23823   0.00000  Uiso   1.00
C352   C     0.00743   0.49044   0.26068   0.00000  Uiso   1.00
H353   H     0.31829   0.46890   0.27981   0.00000  Uiso   1.00
C354   C     0.18079   0.65588   0.23949   0.00000  Uiso   1.00
C355   C     0.14918   0.34594   0.26219   0.00000  Uiso   1.00
N356   N     0.26708   0.40696   0.01918   0.00000  Uiso   1.00
O357   O     0.27167   0.37541   0.03529   0.00000  Uiso   1.00
O358   O     0.29779   0.41947   0.48877   0.00000  Uiso   1.00
N359   N     0.02400   0.54008   0.21175   0.00000  Uiso   1.00
O360   O     0.01200   0.57435   0.20644   0.00000  Uiso   1.00
O361   O     0.06183   0.52993   0.19060   0.00000  Uiso   1.00
N362   N     0.21949   0.34121   0.21264   0.00000  Uiso   1.00
O363   O     0.25718   0.66417   0.21056   0.00000  Uiso   1.00
O364   O     0.21672   0.36441   0.18694   0.00000  Uiso   1.00
C365   C     0.10586   0.66218   0.28981   0.00000  Uiso   1.00
C366   C     0.07379   0.36097   0.30948   0.00000  Uiso   1.00
C367   C     0.03258   0.34118   0.33742   0.00000  Uiso   1.00
H368   H     0.01609   0.64898   0.32076   0.00000  Uiso   1.00
H369   H     0.04043   0.66192   0.36152   0.00000  Uiso   1.00
H370   H     0.01009   0.36498   0.35103   0.00000  Uiso   1.00
H371   H     0.08899   0.38686   0.32687   0.00000  Uiso   1.00
H372   H     0.06461   0.37393   0.28628   0.00000  Uiso   1.00
H373   H     0.08934   0.63746   0.27236   0.00000  Uiso   1.00
H374   H     0.11260   0.64886   0.31410   0.00000  Uiso   1.00
C375   C     0.16015   0.53341   0.09799   0.00000  Uiso   1.00
C376   C     0.18730   0.56790   0.07309   0.00000  Uiso   1.00
C377   C     0.17436   0.61070   0.09206   0.00000  Uiso   1.00
H378   H     0.13972   0.61202   0.09457   0.00000  Uiso   1.00
H379   H     0.17957   0.61756   0.12208   0.00000  Uiso   1.00
H380   H     0.19451   0.63483   0.07331   0.00000  Uiso   1.00
H381   H     0.22217   0.56760   0.07050   0.00000  Uiso   1.00
H382   H     0.18299   0.56261   0.04274   0.00000  Uiso   1.00
H383   H     0.12538   0.53438   0.10211   0.00000  Uiso   1.00
H384   H     0.16366   0.54181   0.12843   0.00000  Uiso   1.00
C385   C     0.02215   0.53403   0.48267   0.00000  Uiso   1.00
C386   C     0.32910   0.54664   0.45764   0.00000  Uiso   1.00
C387   C     0.28315   0.55337   0.48283   0.00000  Uiso   1.00
H388   H     0.26606   0.52451   0.49596   0.00000  Uiso   1.00
H389   H     0.28416   0.57899   0.00705   0.00000  Uiso   1.00
H390   H     0.26463   0.56184   0.46396   0.00000  Uiso   1.00
H391   H     0.01176   0.57607   0.44496   0.00000  Uiso   1.00
H392   H     0.32683   0.52170   0.43308   0.00000  Uiso   1.00
H393   H     0.00413   0.50545   0.49592   0.00000  Uiso   1.00
H394   H     0.02355   0.55925   0.00719   0.00000  Uiso   1.00
C395   C     0.18887   0.42499   0.41717   0.00000  Uiso   1.00
C396   C     0.14469   0.39956   0.41830   0.00000  Uiso   1.00
C397   C     0.14604   0.37221   0.37924   0.00000  Uiso   1.00
H398   H     0.15465   0.39172   0.35435   0.00000  Uiso   1.00
H399   H     0.17018   0.34985   0.37327   0.00000  Uiso   1.00
H400   H     0.11364   0.35440   0.38112   0.00000  Uiso   1.00
H401   H     0.13537   0.37937   0.44279   0.00000  Uiso   1.00
H402   H     0.11932   0.42049   0.42381   0.00000  Uiso   1.00
H403   H     0.19908   0.44474   0.39266   0.00000  Uiso   1.00
H404   H     0.21348   0.40272   0.40848   0.00000  Uiso   1.00
Zn405  Zn    0.52577   0.47423   0.28278   0.00000  Uiso   1.00
Zn406  Zn    0.46792   0.45711   0.22258   0.00000  Uiso   1.00
Zn407  Zn    0.54500   0.52997   0.21188   0.00000  Uiso   1.00
Zn408  Zn    0.46131   0.53868   0.28277   0.00000  Uiso   1.00
O409   O     0.50000   0.50000   0.25000   0.00000  Uiso   1.00
O410   O     0.40323   0.52293   0.27820   0.00000  Uiso   1.00
O411   O     0.58773   0.48610   0.26768   0.00000  Uiso   1.00
O412   O     0.47133   0.40236   0.23607   0.00000  Uiso   1.00
O413   O     0.53771   0.58860   0.21806   0.00000  Uiso   1.00
O414   O     0.49027   0.45726   0.16625   0.00000  Uiso   1.00
O415   O     0.46020   0.53979   0.33749   0.00000  Uiso   1.00
O416   O     0.54421   0.50826   0.15877   0.00000  Uiso   1.00
O417   O     0.50532   0.49468   0.33749   0.00000  Uiso   1.00
O418   O     0.51182   0.41434   0.27821   0.00000  Uiso   1.00
O419   O     0.47914   0.59469   0.26767   0.00000  Uiso   1.00
O420   O     0.40785   0.46584   0.23607   0.00000  Uiso   1.00
O421   O     0.60119   0.52512   0.21806   0.00000  Uiso   1.00
C422   C     0.38568   0.49270   0.25915   0.00000  Uiso   1.00
C423   C     0.61449   0.50767   0.24146   0.00000  Uiso   1.00
C424   C     0.48928   0.38967   0.25857   0.00000  Uiso   1.00
C425   C     0.51018   0.61114   0.24168   0.00000  Uiso   1.00
C426   C     0.52115   0.47900   0.14379   0.00000  Uiso   1.00
C427   C     0.47825   0.52063   0.35637   0.00000  Uiso   1.00
C428   C     0.46229   0.52209   0.39996   0.00000  Uiso   1.00
C429   C     0.52926   0.47083   0.10072   0.00000  Uiso   1.00
C430   C     0.40182   0.52513   0.46063   0.00000  Uiso   1.00
C431   C     0.41990   0.53050   0.42001   0.00000  Uiso   1.00
C432   C     0.48713   0.50839   0.42041   0.00000  Uiso   1.00
C433   C     0.46899   0.49813   0.45926   0.00000  Uiso   1.00
C434   C     0.42736   0.50981   0.48064   0.00000  Uiso   1.00
C435   C     0.49221   0.47818   0.47808   0.00000  Uiso   1.00
C436   C     0.48117   0.48373   0.02010   0.00000  Uiso   1.00
C437   C     0.43906   0.49304   0.04079   0.00000  Uiso   1.00
C438   C     0.41228   0.50510   0.02139   0.00000  Uiso   1.00
C439   C     0.52213   0.44914   0.45760   0.00000  Uiso   1.00
C440   C     0.54646   0.43485   0.47857   0.00000  Uiso   1.00
C441   C     0.54187   0.44783   0.01899   0.00000  Uiso   1.00
C442   C     0.50989   0.47429   0.04007   0.00000  Uiso   1.00
C443   C     0.56665   0.43255   0.03940   0.00000  Uiso   1.00
C444   C     0.55771   0.44200   0.08048   0.00000  Uiso   1.00
C445   C     0.50859   0.49081   0.08003   0.00000  Uiso   1.00
H446   H     0.38022   0.51164   0.03907   0.00000  Uiso   1.00
H447   H     0.57472   0.42833   0.09661   0.00000  Uiso   1.00
H448   H     0.56777   0.41168   0.46338   0.00000  Uiso   1.00
H449   H     0.40106   0.54033   0.40326   0.00000  Uiso   1.00
H450   H     0.52113   0.50668   0.40591   0.00000  Uiso   1.00
H451   H     0.42515   0.48774   0.07158   0.00000  Uiso   1.00
C452   C     0.66084   0.51229   0.23823   0.00000  Uiso   1.00
C453   C     0.34077   0.49044   0.26068   0.00000  Uiso   1.00
H454   H     0.65163   0.46890   0.27981   0.00000  Uiso   1.00
C455   C     0.51412   0.65588   0.23949   0.00000  Uiso   1.00
C456   C     0.48251   0.34594   0.26219   0.00000  Uiso   1.00
N457   N     0.60042   0.40696   0.01918   0.00000  Uiso   1.00
O458   O     0.60500   0.37541   0.03529   0.00000  Uiso   1.00
O459   O     0.63113   0.41947   0.48877   0.00000  Uiso   1.00
N460   N     0.35734   0.54008   0.21175   0.00000  Uiso   1.00
O461   O     0.34534   0.57435   0.20644   0.00000  Uiso   1.00
O462   O     0.39517   0.52993   0.19060   0.00000  Uiso   1.00
N463   N     0.55283   0.34121   0.21264   0.00000  Uiso   1.00
O464   O     0.59052   0.66417   0.21056   0.00000  Uiso   1.00
O465   O     0.55005   0.36441   0.18694   0.00000  Uiso   1.00
C466   C     0.43920   0.66218   0.28981   0.00000  Uiso   1.00
C467   C     0.40712   0.36097   0.30948   0.00000  Uiso   1.00
C468   C     0.36591   0.34118   0.33742   0.00000  Uiso   1.00
H469   H     0.34942   0.64898   0.32076   0.00000  Uiso   1.00
H470   H     0.37377   0.66192   0.36152   0.00000  Uiso   1.00
H471   H     0.34342   0.36498   0.35103   0.00000  Uiso   1.00
H472   H     0.42232   0.38686   0.32687   0.00000  Uiso   1.00
H473   H     0.39795   0.37393   0.28628   0.00000  Uiso   1.00
H474   H     0.42267   0.63746   0.27236   0.00000  Uiso   1.00
H475   H     0.44593   0.64886   0.31410   0.00000  Uiso   1.00
C476   C     0.49348   0.53341   0.09799   0.00000  Uiso   1.00
C477   C     0.52064   0.56790   0.07309   0.00000  Uiso   1.00
C478   C     0.50769   0.61070   0.09206   0.00000  Uiso   1.00
H479   H     0.47305   0.61202   0.09457   0.00000  Uiso   1.00
H480   H     0.51291   0.61756   0.12208   0.00000  Uiso   1.00
H481   H     0.52785   0.63483   0.07331   0.00000  Uiso   1.00
H482   H     0.55551   0.56760   0.07050   0.00000  Uiso   1.00
H483   H     0.51632   0.56261   0.04274   0.00000  Uiso   1.00
H484   H     0.45871   0.53438   0.10211   0.00000  Uiso   1.00
H485   H     0.49699   0.54181   0.12843   0.00000  Uiso   1.00
C486   C     0.35549   0.53403   0.48267   0.00000  Uiso   1.00
C487   C     0.66243   0.54664   0.45764   0.00000  Uiso   1.00
C488   C     0.61649   0.55337   0.48283   0.00000  Uiso   1.00
H489   H     0.59940   0.52451   0.49596   0.00000  Uiso   1.00
H490   H     0.61750   0.57899   0.00705   0.00000  Uiso   1.00
H491   H     0.59796   0.56184   0.46396   0.00000  Uiso   1.00
H492   H     0.34509   0.57607   0.44496   0.00000  Uiso   1.00
H493   H     0.66017   0.52170   0.43308   0.00000  Uiso   1.00
H494   H     0.33747   0.50545   0.49592   0.00000  Uiso   1.00
H495   H     0.35688   0.55925   0.00719   0.00000  Uiso   1.00
C496   C     0.52221   0.42499   0.41717   0.00000  Uiso   1.00
C497   C     0.47802   0.39956   0.41830   0.00000  Uiso   1.00
C498   C     0.47937   0.37221   0.37924   0.00000  Uiso   1.00
H499   H     0.48798   0.39172   0.35435   0.00000  Uiso   1.00
H500   H     0.50351   0.34985   0.37327   0.00000  Uiso   1.00
H501   H     0.44698   0.35440   0.38112   0.00000  Uiso   1.00
H502   H     0.46871   0.37937   0.44279   0.00000  Uiso   1.00
H503   H     0.45265   0.42049   0.42381   0.00000  Uiso   1.00
H504   H     0.53241   0.44474   0.39266   0.00000  Uiso   1.00
H505   H     0.54681   0.40272   0.40848   0.00000  Uiso   1.00
Zn506  Zn    0.85910   0.47423   0.28278   0.00000  Uiso   1.00
Zn507  Zn    0.80125   0.45711   0.22258   0.00000  Uiso   1.00
Zn508  Zn    0.87833   0.52997   0.21188   0.00000  Uiso   1.00
Zn509  Zn    0.79465   0.53868   0.28277   0.00000  Uiso   1.00
O510   O     0.83333   0.50000   0.25000   0.00000  Uiso   1.00
O511   O     0.73656   0.52293   0.27820   0.00000  Uiso   1.00
O512   O     0.92106   0.48610   0.26768   0.00000  Uiso   1.00
O513   O     0.80467   0.40236   0.23607   0.00000  Uiso   1.00
O514   O     0.87104   0.58860   0.21806   0.00000  Uiso   1.00
O515   O     0.82360   0.45726   0.16625   0.00000  Uiso   1.00
O516   O     0.79354   0.53979   0.33749   0.00000  Uiso   1.00
O517   O     0.87755   0.50826   0.15877   0.00000  Uiso   1.00
O518   O     0.83865   0.49468   0.33749   0.00000  Uiso   1.00
O519   O     0.84515   0.41434   0.27821   0.00000  Uiso   1.00
O520   O     0.81247   0.59469   0.26767   0.00000  Uiso   1.00
O521   O     0.74119   0.46584   0.23607   0.00000  Uiso   1.00
O522   O     0.93452   0.52512   0.21806   0.00000  Uiso   1.00
C523   C     0.71902   0.49270   0.25915   0.00000  Uiso   1.00
C524   C     0.94782   0.50767   0.24146   0.00000  Uiso   1.00
C525   C     0.82261   0.38967   0.25857   0.00000  Uiso   1.00
C526   C     0.84352   0.61114   0.24168   0.00000  Uiso   1.00
C527   C     0.85448   0.47900   0.14379   0.00000  Uiso   1.00
C528   C     0.81158   0.52063   0.35637   0.00000  Uiso   1.00
C529   C     0.79562   0.52209   0.39996   0.00000  Uiso   1.00
C530   C     0.86260   0.47083   0.10072   0.00000  Uiso   1.00
C531   C     0.73516   0.52513   0.46063   0.00000  Uiso   1.00
C532   C     0.75323   0.53050   0.42001   0.00000  Uiso   1.00
C533   C     0.82047   0.50839   0.42041   0.00000  Uiso   1.00
C534   C     0.80233   0.49813   0.45926   0.00000  Uiso   1.00
C535   C     0.76070   0.50981   0.48064   0.00000  Uiso   1.00
C536   C     0.82555   0.47818   0.47808   0.00000  Uiso   1.00
C537   C     0.81451   0.48373   0.02010   0.00000  Uiso   1.00
C538   C     0.77239   0.49304   0.04079   0.00000  Uiso   1.00
C539   C     0.74561   0.50510   0.02139   0.00000  Uiso   1.00
C540   C     0.85546   0.44914   0.45760   0.00000  Uiso   1.00
C541   C     0.87979   0.43485   0.47857   0.00000  Uiso   1.00
C542   C     0.87520   0.44783   0.01899   0.00000  Uiso   1.00
C543   C     0.84322   0.47429   0.04007   0.00000  Uiso   1.00
C544   C     0.89998   0.43255   0.03940   0.00000  Uiso   1.00
C545   C     0.89104   0.44200   0.08048   0.00000  Uiso   1.00
C546   C     0.84193   0.49081   0.08003   0.00000  Uiso   1.00
H547   H     0.71355   0.51164   0.03907   0.00000  Uiso   1.00
H548   H     0.90806   0.42833   0.09661   0.00000  Uiso   1.00
H549   H     0.90111   0.41168   0.46338   0.00000  Uiso   1.00
H550   H     0.73439   0.54033   0.40326   0.00000  Uiso   1.00
H551   H     0.85446   0.50668   0.40591   0.00000  Uiso   1.00
H552   H     0.75848   0.48774   0.07158   0.00000  Uiso   1.00
C553   C     0.99417   0.51229   0.23823   0.00000  Uiso   1.00
C554   C     0.67410   0.49044   0.26068   0.00000  Uiso   1.00
H555   H     0.98496   0.46890   0.27981   0.00000  Uiso   1.00
C556   C     0.84746   0.65588   0.23949   0.00000  Uiso   1.00
C557   C     0.81585   0.34594   0.26219   0.00000  Uiso   1.00
N558   N     0.93375   0.40696   0.01918   0.00000  Uiso   1.00
O559   O     0.93834   0.37541   0.03529   0.00000  Uiso   1.00
O560   O     0.96446   0.41947   0.48877   0.00000  Uiso   1.00
N561   N     0.69067   0.54008   0.21175   0.00000  Uiso   1.00
O562   O     0.67867   0.57435   0.20644   0.00000  Uiso   1.00
O563   O     0.72850   0.52993   0.19060   0.00000  Uiso   1.00
N564   N     0.88616   0.34121   0.21264   0.00000  Uiso   1.00
O565   O     0.92385   0.66417   0.21056   0.00000  Uiso   1.00
O566   O     0.88339   0.36441   0.18694   0.00000  Uiso   1.00
C567   C     0.77253   0.66218   0.28981   0.00000  Uiso   1.00
C568   C     0.74045   0.36097   0.30948   0.00000  Uiso   1.00
C569   C     0.69925   0.34118   0.33742   0.00000  Uiso   1.00
H570   H     0.68276   0.64898   0.32076   0.00000  Uiso   1.00
H571   H     0.70710   0.66192   0.36152   0.00000  Uiso   1.00
H572   H     0.67676   0.36498   0.35103   0.00000  Uiso   1.00
H573   H     0.75565   0.38686   0.32687   0.00000  Uiso   1.00
H574   H     0.73128   0.37393   0.28628   0.00000  Uiso   1.00
H575   H     0.75601   0.63746   0.27236   0.00000  Uiso   1.00
H576   H     0.77927   0.64886   0.31410   0.00000  Uiso   1.00
C577   C     0.82681   0.53341   0.09799   0.00000  Uiso   1.00
C578   C     0.85397   0.56790   0.07309   0.00000  Uiso   1.00
C579   C     0.84103   0.61070   0.09206   0.00000  Uiso   1.00
H580   H     0.80638   0.61202   0.09457   0.00000  Uiso   1.00
H581   H     0.84624   0.61756   0.12208   0.00000  Uiso   1.00
H582   H     0.86118   0.63483   0.07331   0.00000  Uiso   1.00
H583   H     0.88884   0.56760   0.07050   0.00000  Uiso   1.00
H584   H     0.84966   0.56261   0.04274   0.00000  Uiso   1.00
H585   H     0.79205   0.53438   0.10211   0.00000  Uiso   1.00
H586   H     0.83032   0.54181   0.12843   0.00000  Uiso   1.00
C587   C     0.68882   0.53403   0.48267   0.00000  Uiso   1.00
C588   C     0.99577   0.54664   0.45764   0.00000  Uiso   1.00
C589   C     0.94982   0.55337   0.48283   0.00000  Uiso   1.00
H590   H     0.93273   0.52451   0.49596   0.00000  Uiso   1.00
H591   H     0.95083   0.57899   0.00705   0.00000  Uiso   1.00
H592   H     0.93129   0.56184   0.46396   0.00000  Uiso   1.00
H593   H     0.67843   0.57607   0.44496   0.00000  Uiso   1.00
H594   H     0.99350   0.52170   0.43308   0.00000  Uiso   1.00
H595   H     0.67080   0.50545   0.49592   0.00000  Uiso   1.00
H596   H     0.69021   0.55925   0.00719   0.00000  Uiso   1.00
C597   C     0.85554   0.42499   0.41717   0.00000  Uiso   1.00
C598   C     0.81136   0.39956   0.41830   0.00000  Uiso   1.00
C599   C     0.81271   0.37221   0.37924   0.00000  Uiso   1.00
H600   H     0.82131   0.39172   0.35435   0.00000  Uiso   1.00
H601   H     0.83685   0.34985   0.37327   0.00000  Uiso   1.00
H602   H     0.78031   0.35440   0.38112   0.00000  Uiso   1.00
H603   H     0.80204   0.37937   0.44279   0.00000  Uiso   1.00
H604   H     0.78598   0.42049   0.42381   0.00000  Uiso   1.00
H605   H     0.86574   0.44474   0.39266   0.00000  Uiso   1.00
H606   H     0.88015   0.40272   0.40848   0.00000  Uiso   1.00
Zn607  Zn    0.19244   0.80756   0.28278   0.00000  Uiso   1.00
Zn608  Zn    0.13459   0.79044   0.22258   0.00000  Uiso   1.00
Zn609  Zn    0.21166   0.86331   0.21188   0.00000  Uiso   1.00
Zn610  Zn    0.12798   0.87202   0.28277   0.00000  Uiso   1.00
O611   O     0.16667   0.83333   0.25000   0.00000  Uiso   1.00
O612   O     0.06990   0.85627   0.27820   0.00000  Uiso   1.00
O613   O     0.25440   0.81944   0.26768   0.00000  Uiso   1.00
O614   O     0.13800   0.73570   0.23607   0.00000  Uiso   1.00
O615   O     0.20437   0.92193   0.21806   0.00000  Uiso   1.00
O616   O     0.15693   0.79060   0.16625   0.00000  Uiso   1.00
O617   O     0.12687   0.87313   0.33749   0.00000  Uiso   1.00
O618   O     0.21088   0.84159   0.15877   0.00000  Uiso   1.00
O619   O     0.17198   0.82802   0.33749   0.00000  Uiso   1.00
O620   O     0.17849   0.74768   0.27821   0.00000  Uiso   1.00
O621   O     0.14581   0.92803   0.26767   0.00000  Uiso   1.00
O622   O     0.07452   0.79917   0.23607   0.00000  Uiso   1.00
O623   O     0.26785   0.85845   0.21806   0.00000  Uiso   1.00
C624   C     0.05235   0.82603   0.25915   0.00000  Uiso   1.00
C625   C     0.28115   0.84101   0.24146   0.00000  Uiso   1.00
C626   C     0.15594   0.72300   0.25857   0.00000  Uiso   1.00
C627   C     0.17685   0.94447   0.24168   0.00000  Uiso   1.00
C628   C     0.18781   0.81234   0.14379   0.00000  Uiso   1.00
C629   C     0.14491   0.85396   0.35637   0.00000  Uiso   1.00
C630   C     0.12895   0.85542   0.39996   0.00000  Uiso   1.00
C631   C     0.19593   0.80417   0.10072   0.00000  Uiso   1.00
C632   C     0.06849   0.85846   0.46063   0.00000  Uiso   1.00
C633   C     0.08657   0.86383   0.42001   0.00000  Uiso   1.00
C634   C     0.15380   0.84172   0.42041   0.00000  Uiso   1.00
C635   C     0.13566   0.83147   0.45926   0.00000  Uiso   1.00
C636   C     0.09403   0.84314   0.48064   0.00000  Uiso   1.00
C637   C     0.15888   0.81152   0.47808   0.00000  Uiso   1.00
C638   C     0.14784   0.81706   0.02010   0.00000  Uiso   1.00
C639   C     0.10573   0.82637   0.04079   0.00000  Uiso   1.00
C640   C     0.07895   0.83844   0.02139   0.00000  Uiso   1.00
C641   C     0.18880   0.78247   0.45760   0.00000  Uiso   1.00
C642   C     0.21313   0.76818   0.47857   0.00000  Uiso   1.00
C643   C     0.20854   0.78116   0.01899   0.00000  Uiso   1.00
C644   C     0.17656   0.80762   0.04007   0.00000  Uiso   1.00
C645   C     0.23331   0.76589   0.03940   0.00000  Uiso   1.00
C646   C     0.22438   0.77533   0.08048   0.00000  Uiso   1.00
C647   C     0.17526   0.82414   0.08003   0.00000  Uiso   1.00
H648   H     0.04689   0.84497   0.03907   0.00000  Uiso   1.00
H649   H     0.24139   0.76166   0.09661   0.00000  Uiso   1.00
H650   H     0.23444   0.74501   0.46338   0.00000  Uiso   1.00
H651   H     0.06773   0.87366   0.40326   0.00000  Uiso   1.00
H652   H     0.18780   0.84001   0.40591   0.00000  Uiso   1.00
H653   H     0.09181   0.82107   0.07158   0.00000  Uiso   1.00
C654   C     0.32750   0.84562   0.23823   0.00000  Uiso   1.00
C655   C     0.00743   0.82378   0.26068   0.00000  Uiso   1.00
H656   H     0.31829   0.80223   0.27981   0.00000  Uiso   1.00
C657   C     0.18079   0.98921   0.23949   0.00000  Uiso   1.00
C658   C     0.14918   0.67927   0.26219   0.00000  Uiso   1.00
N659   N     0.26708   0.74030   0.01918   0.00000  Uiso   1.00
O660   O     0.27167   0.70874   0.03529   0.00000  Uiso   1.00
O661   O     0.29779   0.75280   0.48877   0.00000  Uiso   1.00
N662   N     0.02400   0.87342   0.21175   0.00000  Uiso   1.00
O663   O     0.01200   0.90768   0.20644   0.00000  Uiso   1.00
O664   O     0.06183   0.86326   0.19060   0.00000  Uiso   1.00
N665   N     0.21949   0.67454   0.21264   0.00000  Uiso   1.00
O666   O     0.25718   0.99750   0.21056   0.00000  Uiso   1.00
O667   O     0.21672   0.69775   0.18694   0.00000  Uiso   1.00
C668   C     0.10586   0.99552   0.28981   0.00000  Uiso   1.00
C669   C     0.07379   0.69431   0.30948   0.00000  Uiso   1.00
C670   C     0.03258   0.67451   0.33742   0.00000  Uiso   1.00
H671   H     0.01609   0.98231   0.32076   0.00000  Uiso   1.00
H672   H     0.04043   0.99525   0.36152   0.00000  Uiso   1.00
H673   H     0.01009   0.69831   0.35103   0.00000  Uiso   1.00
H674   H     0.08899   0.72019   0.32687   0.00000  Uiso   1.00
H675   H     0.06461   0.70726   0.28628   0.00000  Uiso   1.00
H676   H     0.08934   0.97079   0.27236   0.00000  Uiso   1.00
H677   H     0.11260   0.98219   0.31410   0.00000  Uiso   1.00
C678   C     0.16015   0.86675   0.09799   0.00000  Uiso   1.00
C679   C     0.18730   0.90123   0.07309   0.00000  Uiso   1.00
C680   C     0.17436   0.94403   0.09206   0.00000  Uiso   1.00
H681   H     0.13972   0.94535   0.09457   0.00000  Uiso   1.00
H682   H     0.17957   0.95089   0.12208   0.00000  Uiso   1.00
H683   H     0.19451   0.96817   0.07331   0.00000  Uiso   1.00
H684   H     0.22217   0.90093   0.07050   0.00000  Uiso   1.00
H685   H     0.18299   0.89594   0.04274   0.00000  Uiso   1.00
H686   H     0.12538   0.86771   0.10211   0.00000  Uiso   1.00
H687   H     0.16366   0.87514   0.12843   0.00000  Uiso   1.00
C688   C     0.02215   0.86736   0.48267   0.00000  Uiso   1.00
C689   C     0.32910   0.87997   0.45764   0.00000  Uiso   1.00
C690   C     0.28315   0.88671   0.48283   0.00000  Uiso   1.00
H691   H     0.26606   0.85784   0.49596   0.00000  Uiso   1.00
H692   H     0.28416   0.91232   0.00705   0.00000  Uiso   1.00
H693   H     0.26463   0.89517   0.46396   0.00000  Uiso   1.00
H694   H     0.01176   0.90941   0.44496   0.00000  Uiso   1.00
H695   H     0.32683   0.85503   0.43308   0.00000  Uiso   1.00
H696   H     0.00413   0.83878   0.49592   0.00000  Uiso   1.00
H697   H     0.02355   0.89258   0.00719   0.00000  Uiso   1.00
C698   C     0.18887   0.75832   0.41717   0.00000  Uiso   1.00
C699   C     0.14469   0.73289   0.41830   0.00000  Uiso   1.00
C700   C     0.14604   0.70555   0.37924   0.00000  Uiso   1.00
H701   H     0.15465   0.72505   0.35435   0.00000  Uiso   1.00
H702   H     0.17018   0.68319   0.37327   0.00000  Uiso   1.00
H703   H     0.11364   0.68773   0.38112   0.00000  Uiso   1.00
H704   H     0.13537   0.71270   0.44279   0.00000  Uiso   1.00
H705   H     0.11932   0.75382   0.42381   0.00000  Uiso   1.00
H706   H     0.19908   0.77807   0.39266   0.00000  Uiso   1.00
H707   H     0.21348   0.73606   0.40848   0.00000  Uiso   1.00
Zn708  Zn    0.52577   0.80756   0.28278   0.00000  Uiso   1.00
Zn709  Zn    0.46792   0.79044   0.22258   0.00000  Uiso   1.00
Zn710  Zn    0.54500   0.86331   0.21188   0.00000  Uiso   1.00
Zn711  Zn    0.46131   0.87202   0.28277   0.00000  Uiso   1.00
O712   O     0.50000   0.83333   0.25000   0.00000  Uiso   1.00
O713   O     0.40323   0.85627   0.27820   0.00000  Uiso   1.00
O714   O     0.58773   0.81944   0.26768   0.00000  Uiso   1.00
O715   O     0.47133   0.73570   0.23607   0.00000  Uiso   1.00
O716   O     0.53771   0.92193   0.21806   0.00000  Uiso   1.00
O717   O     0.49027   0.79060   0.16625   0.00000  Uiso   1.00
O718   O     0.46020   0.87313   0.33749   0.00000  Uiso   1.00
O719   O     0.54421   0.84159   0.15877   0.00000  Uiso   1.00
O720   O     0.50532   0.82802   0.33749   0.00000  Uiso   1.00
O721   O     0.51182   0.74768   0.27821   0.00000  Uiso   1.00
O722   O     0.47914   0.92803   0.26767   0.00000  Uiso   1.00
O723   O     0.40785   0.79917   0.23607   0.00000  Uiso   1.00
O724   O     0.60119   0.85845   0.21806   0.00000  Uiso   1.00
C725   C     0.38568   0.82603   0.25915   0.00000  Uiso   1.00
C726   C     0.61449   0.84101   0.24146   0.00000  Uiso   1.00
C727   C     0.48928   0.72300   0.25857   0.00000  Uiso   1.00
C728   C     0.51018   0.94447   0.24168   0.00000  Uiso   1.00
C729   C     0.52115   0.81234   0.14379   0.00000  Uiso   1.00
C730   C     0.47825   0.85396   0.35637   0.00000  Uiso   1.00
C731   C     0.46229   0.85542   0.39996   0.00000  Uiso   1.00
C732   C     0.52926   0.80417   0.10072   0.00000  Uiso   1.00
C733   C     0.40182   0.85846   0.46063   0.00000  Uiso   1.00
C734   C     0.41990   0.86383   0.42001   0.00000  Uiso   1.00
C735   C     0.48713   0.84172   0.42041   0.00000  Uiso   1.00
C736   C     0.46899   0.83147   0.45926   0.00000  Uiso   1.00
C737   C     0.42736   0.84314   0.48064   0.00000  Uiso   1.00
C738   C     0.49221   0.81152   0.47808   0.00000  Uiso   1.00
C739   C     0.48117   0.81706   0.02010   0.00000  Uiso   1.00
C740   C     0.43906   0.82637   0.04079   0.00000  Uiso   1.00
C741   C     0.41228   0.83844   0.02139   0.00000  Uiso   1.00
C742   C     0.52213   0.78247   0.45760   0.00000  Uiso   1.00
C743   C     0.54646   0.76818   0.47857   0.00000  Uiso   1.00
C744   C     0.54187   0.78116   0.01899   0.00000  Uiso   1.00
C745   C     0.50989   0.80762   0.04007   0.00000  Uiso   1.00
C746   C     0.56665   0.76589   0.03940   0.00000  Uiso   1.00
C747   C     0.55771   0.77533   0.08048   0.00000  Uiso   1.00
C748   C     0.50859   0.82414   0.08003   0.00000  Uiso   1.00
H749   H     0.38022   0.84497   0.03907   0.00000  Uiso   1.00
H750   H     0.57472   0.76166   0.09661   0.00000  Uiso   1.00
H751   H     0.56777   0.74501   0.46338   0.00000  Uiso   1.00
H752   H     0.40106   0.87366   0.40326   0.00000  Uiso   1.00
H753   H     0.52113   0.84001   0.40591   0.00000  Uiso   1.00
H754   H     0.42515   0.82107   0.07158   0.00000  Uiso   1.00
C755   C     0.66084   0.84562   0.23823   0.00000  Uiso   1.00
C756   C     0.34077   0.82378   0.26068   0.00000  Uiso   1.00
H757   H     0.65163   0.80223   0.27981   0.00000  Uiso   1.00
C758   C     0.51412   0.98921   0.23949   0.00000  Uiso   1.00
C759   C     0.48251   0.67927   0.26219   0.00000  Uiso   1.00
N760   N     0.60042   0.74030   0.01918   0.00000  Uiso   1.00
O761   O     0.60500   0.70874   0.03529   0.00000  Uiso   1.00
O762   O     0.63113   0.75280   0.48877   0.00000  Uiso   1.00
N763   N     0.35734   0.87342   0.21175   0.00000  Uiso   1.00
O764   O     0.34534   0.90768   0.20644   0.00000  Uiso   1.00
O765   O     0.39517   0.86326   0.19060   0.00000  Uiso   1.00
N766   N     0.55283   0.67454   0.21264   0.00000  Uiso   1.00
O767   O     0.59052   0.99750   0.21056   0.00000  Uiso   1.00
O768   O     0.55005   0.69775   0.18694   0.00000  Uiso   1.00
C769   C     0.43920   0.99552   0.28981   0.00000  Uiso   1.00
C770   C     0.40712   0.69431   0.30948   0.00000  Uiso   1.00
C771   C     0.36591   0.67451   0.33742   0.00000  Uiso   1.00
H772   H     0.34942   0.98231   0.32076   0.00000  Uiso   1.00
H773   H     0.37377   0.99525   0.36152   0.00000  Uiso   1.00
H774   H     0.34342   0.69831   0.35103   0.00000  Uiso   1.00
H775   H     0.42232   0.72019   0.32687   0.00000  Uiso   1.00
H776   H     0.39795   0.70726   0.28628   0.00000  Uiso   1.00
H777   H     0.42267   0.97079   0.27236   0.00000  Uiso   1.00
H778   H     0.44593   0.98219   0.31410   0.00000  Uiso   1.00
C779   C     0.49348   0.86675   0.09799   0.00000  Uiso   1.00
C780   C     0.52064   0.90123   0.07309   0.00000  Uiso   1.00
C781   C     0.50769   0.94403   0.09206   0.00000  Uiso   1.00
H782   H     0.47305   0.94535   0.09457   0.00000  Uiso   1.00
H783   H     0.51291   0.95089   0.12208   0.00000  Uiso   1.00
H784   H     0.52785   0.96817   0.07331   0.00000  Uiso   1.00
H785   H     0.55551   0.90093   0.07050   0.00000  Uiso   1.00
H786   H     0.51632   0.89594   0.04274   0.00000  Uiso   1.00
H787   H     0.45871   0.86771   0.10211   0.00000  Uiso   1.00
H788   H     0.49699   0.87514   0.12843   0.00000  Uiso   1.00
C789   C     0.35549   0.86736   0.48267   0.00000  Uiso   1.00
C790   C     0.66243   0.87997   0.45764   0.00000  Uiso   1.00
C791   C     0.61649   0.88671   0.48283   0.00000  Uiso   1.00
H792   H     0.59940   0.85784   0.49596   0.00000  Uiso   1.00
H793   H     0.61750   0.91232   0.00705   0.00000  Uiso   1.00
H794   H     0.59796   0.89517   0.46396   0.00000  Uiso   1.00
H795   H     0.34509   0.90941   0.44496   0.00000  Uiso   1.00
H796   H     0.66017   0.85503   0.43308   0.00000  Uiso   1.00
H797   H     0.33747   0.83878   0.49592   0.00000  Uiso   1.00
H798   H     0.35688   0.89258   0.00719   0.00000  Uiso   1.00
C799   C     0.52221   0.75832   0.41717   0.00000  Uiso   1.00
C800   C     0.47802   0.73289   0.41830   0.00000  Uiso   1.00
C801   C     0.47937   0.70555   0.37924   0.00000  Uiso   1.00
H802   H     0.48798   0.72505   0.35435   0.00000  Uiso   1.00
H803   H     0.50351   0.68319   0.37327   0.00000  Uiso   1.00
H804   H     0.44698   0.68773   0.38112   0.00000  Uiso   1.00
H805   H     0.46871   0.71270   0.44279   0.00000  Uiso   1.00
H806   H     0.45265   0.75382   0.42381   0.00000  Uiso   1.00
H807   H     0.53241   0.77807   0.39266   0.00000  Uiso   1.00
H808   H     0.54681   0.73606   0.40848   0.00000  Uiso   1.00
Zn809  Zn    0.85910   0.80756   0.28278   0.00000  Uiso   1.00
Zn810  Zn    0.80125   0.79044   0.22258   0.00000  Uiso   1.00
Zn811  Zn    0.87833   0.86331   0.21188   0.00000  Uiso   1.00
Zn812  Zn    0.79465   0.87202   0.28277   0.00000  Uiso   1.00
O813   O     0.83333   0.83333   0.25000   0.00000  Uiso   1.00
O814   O     0.73656   0.85627   0.27820   0.00000  Uiso   1.00
O815   O     0.92106   0.81944   0.26768   0.00000  Uiso   1.00
O816   O     0.80467   0.73570   0.23607   0.00000  Uiso   1.00
O817   O     0.87104   0.92193   0.21806   0.00000  Uiso   1.00
O818   O     0.82360   0.79060   0.16625   0.00000  Uiso   1.00
O819   O     0.79354   0.87313   0.33749   0.00000  Uiso   1.00
O820   O     0.87755   0.84159   0.15877   0.00000  Uiso   1.00
O821   O     0.83865   0.82802   0.33749   0.00000  Uiso   1.00
O822   O     0.84515   0.74768   0.27821   0.00000  Uiso   1.00
O823   O     0.81247   0.92803   0.26767   0.00000  Uiso   1.00
O824   O     0.74119   0.79917   0.23607   0.00000  Uiso   1.00
O825   O     0.93452   0.85845   0.21806   0.00000  Uiso   1.00
C826   C     0.71902   0.82603   0.25915   0.00000  Uiso   1.00
C827   C     0.94782   0.84101   0.24146   0.00000  Uiso   1.00
C828   C     0.82261   0.72300   0.25857   0.00000  Uiso   1.00
C829   C     0.84352   0.94447   0.24168   0.00000  Uiso   1.00
C830   C     0.85448   0.81234   0.14379   0.00000  Uiso   1.00
C831   C     0.81158   0.85396   0.35637   0.00000  Uiso   1.00
C832   C     0.79562   0.85542   0.39996   0.00000  Uiso   1.00
C833   C     0.86260   0.80417   0.10072   0.00000  Uiso   1.00
C834   C     0.73516   0.85846   0.46063   0.00000  Uiso   1.00
C835   C     0.75323   0.86383   0.42001   0.00000  Uiso   1.00
C836   C     0.82047   0.84172   0.42041   0.00000  Uiso   1.00
C837   C     0.80233   0.83147   0.45926   0.00000  Uiso   1.00
C838   C     0.76070   0.84314   0.48064   0.00000  Uiso   1.00
C839   C     0.82555   0.81152   0.47808   0.00000  Uiso   1.00
C840   C     0.81451   0.81706   0.02010   0.00000  Uiso   1.00
C841   C     0.77239   0.82637   0.04079   0.00000  Uiso   1.00
C842   C     0.74561   0.83844   0.02139   0.00000  Uiso   1.00
C843   C     0.85546   0.78247   0.45760   0.00000  Uiso   1.00
C844   C     0.87979   0.76818   0.47857   0.00000  Uiso   1.00
C845   C     0.87520   0.78116   0.01899   0.00000  Uiso   1.00
C846   C     0.84322   0.80762   0.04007   0.00000  Uiso   1.00
C847   C     0.89998   0.76589   0.03940   0.00000  Uiso   1.00
C848   C     0.89104   0.77533   0.08048   0.00000  Uiso   1.00
C849   C     0.84193   0.82414   0.08003   0.00000  Uiso   1.00
H850   H     0.71355   0.84497   0.03907   0.00000  Uiso   1.00
H851   H     0.90806   0.76166   0.09661   0.00000  Uiso   1.00
H852   H     0.90111   0.74501   0.46338   0.00000  Uiso   1.00
H853   H     0.73439   0.87366   0.40326   0.00000  Uiso   1.00
H854   H     0.85446   0.84001   0.40591   0.00000  Uiso   1.00
H855   H     0.75848   0.82107   0.07158   0.00000  Uiso   1.00
C856   C     0.99417   0.84562   0.23823   0.00000  Uiso   1.00
C857   C     0.67410   0.82378   0.26068   0.00000  Uiso   1.00
H858   H     0.98496   0.80223   0.27981   0.00000  Uiso   1.00
C859   C     0.84746   0.98921   0.23949   0.00000  Uiso   1.00
C860   C     0.81585   0.67927   0.26219   0.00000  Uiso   1.00
N861   N     0.93375   0.74030   0.01918   0.00000  Uiso   1.00
O862   O     0.93834   0.70874   0.03529   0.00000  Uiso   1.00
O863   O     0.96446   0.75280   0.48877   0.00000  Uiso   1.00
N864   N     0.69067   0.87342   0.21175   0.00000  Uiso   1.00
O865   O     0.67867   0.90768   0.20644   0.00000  Uiso   1.00
O866   O     0.72850   0.86326   0.19060   0.00000  Uiso   1.00
N867   N     0.88616   0.67454   0.21264   0.00000  Uiso   1.00
O868   O     0.92385   0.99750   0.21056   0.00000  Uiso   1.00
O869   O     0.88339   0.69775   0.18694   0.00000  Uiso   1.00
C870   C     0.77253   0.99552   0.28981   0.00000  Uiso   1.00
C871   C     0.74045   0.69431   0.30948   0.00000  Uiso   1.00
C872   C     0.69925   0.67451   0.33742   0.00000  Uiso   1.00
H873   H     0.68276   0.98231   0.32076   0.00000  Uiso   1.00
H874   H     0.70710   0.99525   0.36152   0.00000  Uiso   1.00
H875   H     0.67676   0.69831   0.35103   0.00000  Uiso   1.00
H876   H     0.75565   0.72019   0.32687   0.00000  Uiso   1.00
H877   H     0.73128   0.70726   0.28628   0.00000  Uiso   1.00
H878   H     0.75601   0.97079   0.27236   0.00000  Uiso   1.00
H879   H     0.77927   0.98219   0.31410   0.00000  Uiso   1.00
C880   C     0.82681   0.86675   0.09799   0.00000  Uiso   1.00
C881   C     0.85397   0.90123   0.07309   0.00000  Uiso   1.00
C882   C     0.84103   0.94403   0.09206   0.00000  Uiso   1.00
H883   H     0.80638   0.94535   0.09457   0.00000  Uiso   1.00
H884   H     0.84624   0.95089   0.12208   0.00000  Uiso   1.00
H885   H     0.86118   0.96817   0.07331   0.00000  Uiso   1.00
H886   H     0.88884   0.90093   0.07050   0.00000  Uiso   1.00
H887   H     0.84966   0.89594   0.04274   0.00000  Uiso   1.00
H888   H     0.79205   0.86771   0.10211   0.00000  Uiso   1.00
H889   H     0.83032   0.87514   0.12843   0.00000  Uiso   1.00
C890   C     0.68882   0.86736   0.48267   0.00000  Uiso   1.00
C891   C     0.99577   0.87997   0.45764   0.00000  Uiso   1.00
C892   C     0.94982   0.88671   0.48283   0.00000  Uiso   1.00
H893   H     0.93273   0.85784   0.49596   0.00000  Uiso   1.00
H894   H     0.95083   0.91232   0.00705   0.00000  Uiso   1.00
H895   H     0.93129   0.89517   0.46396   0.00000  Uiso   1.00
H896   H     0.67843   0.90941   0.44496   0.00000  Uiso   1.00
H897   H     0.99350   0.85503   0.43308   0.00000  Uiso   1.00
H898   H     0.67080   0.83878   0.49592   0.00000  Uiso   1.00
H899   H     0.69021   0.89258   0.00719   0.00000  Uiso   1.00
C900   C     0.85554   0.75832   0.41717   0.00000  Uiso   1.00
C901   C     0.81136   0.73289   0.41830   0.00000  Uiso   1.00
C902   C     0.81271   0.70555   0.37924   0.00000  Uiso   1.00
H903   H     0.82131   0.72505   0.35435   0.00000  Uiso   1.00
H904   H     0.83685   0.68319   0.37327   0.00000  Uiso   1.00
H905   H     0.78031   0.68773   0.38112   0.00000  Uiso   1.00
H906   H     0.80204   0.71270   0.44279   0.00000  Uiso   1.00
H907   H     0.78598   0.75382   0.42381   0.00000  Uiso   1.00
H908   H     0.86574   0.77807   0.39266   0.00000  Uiso   1.00
H909   H     0.88015   0.73606   0.40848   0.00000  Uiso   1.00
Zn910  Zn    0.19244   0.14090   0.78278   0.00000  Uiso   1.00
Zn911  Zn    0.13459   0.12378   0.72258   0.00000  Uiso   1.00
Zn912  Zn    0.21166   0.19664   0.71188   0.00000  Uiso   1.00
Zn913  Zn    0.12798   0.20535   0.78277   0.00000  Uiso   1.00
O914   O     0.16667   0.16667   0.75000   0.00000  Uiso   1.00
O915   O     0.06990   0.18960   0.77820   0.00000  Uiso   1.00
O916   O     0.25440   0.15277   0.76768   0.00000  Uiso   1.00
O917   O     0.13800   0.06903   0.73607   0.00000  Uiso   1.00
O918   O     0.20437   0.25527   0.71806   0.00000  Uiso   1.00
O919   O     0.15693   0.12393   0.66625   0.00000  Uiso   1.00
O920   O     0.12687   0.20646   0.83749   0.00000  Uiso   1.00
O921   O     0.21088   0.17493   0.65877   0.00000  Uiso   1.00
O922   O     0.17198   0.16135   0.83749   0.00000  Uiso   1.00
O923   O     0.17849   0.08101   0.77821   0.00000  Uiso   1.00
O924   O     0.14581   0.26136   0.76767   0.00000  Uiso   1.00
O925   O     0.07452   0.13251   0.73607   0.00000  Uiso   1.00
O926   O     0.26785   0.19179   0.71806   0.00000  Uiso   1.00
C927   C     0.05235   0.15937   0.75915   0.00000  Uiso   1.00
C928   C     0.28115   0.17434   0.74146   0.00000  Uiso   1.00
C929   C     0.15594   0.05634   0.75857   0.00000  Uiso   1.00
C930   C     0.17685   0.27781   0.74168   0.00000  Uiso   1.00
C931   C     0.18781   0.14567   0.64379   0.00000  Uiso   1.00
C932   C     0.14491   0.18729   0.85637   0.00000  Uiso   1.00
C933   C     0.12895   0.18876   0.89996   0.00000  Uiso   1.00
C934   C     0.19593   0.13750   0.60072   0.00000  Uiso   1.00
C935   C     0.06849   0.19180   0.96063   0.00000  Uiso   1.00
C936   C     0.08657   0.19717   0.92001   0.00000  Uiso   1.00
C937   C     0.15380   0.17505   0.92041   0.00000  Uiso   1.00
C938   C     0.13566   0.16480   0.95926   0.00000  Uiso   1.00
C939   C     0.09403   0.17648   0.98064   0.00000  Uiso   1.00
C940   C     0.15888   0.14485   0.97808   0.00000  Uiso   1.00
C941   C     0.14784   0.15040   0.52010   0.00000  Uiso   1.00
C942   C     0.10573   0.15970   0.54079   0.00000  Uiso   1.00
C943   C     0.07895   0.17177   0.52139   0.00000  Uiso   1.00
C944   C     0.18880   0.11581   0.95760   0.00000  Uiso   1.00
C945   C     0.21313   0.10152   0.97857   0.00000  Uiso   1.00
C946   C     0.20854   0.11450   0.51899   0.00000  Uiso   1.00
C947   C     0.17656   0.14096   0.54007   0.00000  Uiso   1.00
C948   C     0.23331   0.09922   0.53940   0.00000  Uiso   1.00
C949   C     0.22438   0.10867   0.58048   0.00000  Uiso   1.00
C950   C     0.17526   0.15748   0.58003   0.00000  Uiso   1.00
H951   H     0.04689   0.17830   0.53907   0.00000  Uiso   1.00
H952   H     0.24139   0.09500   0.59661   0.00000  Uiso   1.00
H953   H     0.23444   0.07834   0.96338   0.00000  Uiso   1.00
H954   H     0.06773   0.20699   0.90326   0.00000  Uiso   1.00
H955   H     0.18780   0.17334   0.90591   0.00000  Uiso   1.00
H956   H     0.09181   0.15440   0.57158   0.00000  Uiso   1.00
C957   C     0.32750   0.17896   0.73823   0.00000  Uiso   1.00
C958   C     0.00743   0.15711   0.76068   0.00000  Uiso   1.00
H959   H     0.31829   0.13556   0.77981   0.00000  Uiso   1.00
C960   C     0.18079   0.32255   0.73949   0.00000  Uiso   1.00
C961   C     0.14918   0.01261   0.76219   0.00000  Uiso   1.00
N962   N     0.26708   0.07363   0.51918   0.00000  Uiso   1.00
O963   O     0.27167   0.04208   0.53529   0.00000  Uiso   1.00
O964   O     0.29779   0.08614   0.98877   0.00000  Uiso   1.00
N965   N     0.02400   0.20675   0.71175   0.00000  Uiso   1.00
O966   O     0.01200   0.24102   0.70644   0.00000  Uiso   1.00
O967   O     0.06183   0.19659   0.69060   0.00000  Uiso   1.00
N968   N     0.21949   0.00788   0.71264   0.00000  Uiso   1.00
O969   O     0.25718   0.33084   0.71056   0.00000  Uiso   1.00
O970   O     0.21672   0.03108   0.68694   0.00000  Uiso   1.00
C971   C     0.10586   0.32885   0.78981   0.00000  Uiso   1.00
C972   C     0.07379   0.02764   0.80948   0.00000  Uiso   1.00
C973   C     0.03258   0.00785   0.83742   0.00000  Uiso   1.00
H974   H     0.01609   0.31564   0.82076   0.00000  Uiso   1.00
H975   H     0.04043   0.32859   0.86152   0.00000  Uiso   1.00
H976   H     0.01009   0.03164   0.85103   0.00000  Uiso   1.00
H977   H     0.08899   0.05352   0.82687   0.00000  Uiso   1.00
H978   H     0.06461   0.04060   0.78628   0.00000  Uiso   1.00
H979   H     0.08934   0.30412   0.77236   0.00000  Uiso   1.00
H980   H     0.11260   0.31552   0.81410   0.00000  Uiso   1.00
C981   C     0.16015   0.20008   0.59799   0.00000  Uiso   1.00
C982   C     0.18730   0.23456   0.57309   0.00000  Uiso   1.00
C983   C     0.17436   0.27736   0.59206   0.00000  Uiso   1.00
H984   H     0.13972   0.27868   0.59457   0.00000  Uiso   1.00
H985   H     0.17957   0.28423   0.62208   0.00000  Uiso   1.00
H986   H     0.19451   0.30150   0.57331   0.00000  Uiso   1.00
H987   H     0.22217   0.23427   0.57050   0.00000  Uiso   1.00
H988   H     0.18299   0.22927   0.54274   0.00000  Uiso   1.00
H989   H     0.12538   0.20104   0.60211   0.00000  Uiso   1.00
H990   H     0.16366   0.20847   0.62843   0.00000  Uiso   1.00
C991   C     0.02215   0.20069   0.98267   0.00000  Uiso   1.00
C992   C     0.32910   0.21331   0.95764   0.00000  Uiso   1.00
C993   C     0.28315   0.22004   0.98283   0.00000  Uiso   1.00
H994   H     0.26606   0.19117   0.99596   0.00000  Uiso   1.00
H995   H     0.28416   0.24565   0.50705   0.00000  Uiso   1.00
H996   H     0.26463   0.22851   0.96396   0.00000  Uiso   1.00
H997   H     0.01176   0.24274   0.94496   0.00000  Uiso   1.00
H998   H     0.32683   0.18836   0.93308   0.00000  Uiso   1.00
H999   H     0.00413   0.17211   0.99592   0.00000  Uiso   1.00
H1000  H     0.02355   0.22591   0.50719   0.00000  Uiso   1.00
C1001  C     0.18887   0.09165   0.91717   0.00000  Uiso   1.00
C1002  C     0.14469   0.06623   0.91830   0.00000  Uiso   1.00
C1003  C     0.14604   0.03888   0.87924   0.00000  Uiso   1.00
H1004  H     0.15465   0.05839   0.85435   0.00000  Uiso   1.00
H1005  H     0.17018   0.01652   0.87327   0.00000  Uiso   1.00
H1006  H     0.11364   0.02106   0.88112   0.00000  Uiso   1.00
H1007  H     0.13537   0.04604   0.94279   0.00000  Uiso   1.00
H1008  H     0.11932   0.08716   0.92381   0.00000  Uiso   1.00
H1009  H     0.19908   0.11141   0.89266   0.00000  Uiso   1.00
H1010  H     0.21348   0.06939   0.90848   0.00000  Uiso   1.00
Zn1011 Zn    0.52577   0.14090   0.78278   0.00000  Uiso   1.00
Zn1012 Zn    0.46792   0.12378   0.72258   0.00000  Uiso   1.00
Zn1013 Zn    0.54500   0.19664   0.71188   0.00000  Uiso   1.00
Zn1014 Zn    0.46131   0.20535   0.78277   0.00000  Uiso   1.00
O1015  O     0.50000   0.16667   0.75000   0.00000  Uiso   1.00
O1016  O     0.40323   0.18960   0.77820   0.00000  Uiso   1.00
O1017  O     0.58773   0.15277   0.76768   0.00000  Uiso   1.00
O1018  O     0.47133   0.06903   0.73607   0.00000  Uiso   1.00
O1019  O     0.53771   0.25527   0.71806   0.00000  Uiso   1.00
O1020  O     0.49027   0.12393   0.66625   0.00000  Uiso   1.00
O1021  O     0.46020   0.20646   0.83749   0.00000  Uiso   1.00
O1022  O     0.54421   0.17493   0.65877   0.00000  Uiso   1.00
O1023  O     0.50532   0.16135   0.83749   0.00000  Uiso   1.00
O1024  O     0.51182   0.08101   0.77821   0.00000  Uiso   1.00
O1025  O     0.47914   0.26136   0.76767   0.00000  Uiso   1.00
O1026  O     0.40785   0.13251   0.73607   0.00000  Uiso   1.00
O1027  O     0.60119   0.19179   0.71806   0.00000  Uiso   1.00
C1028  C     0.38568   0.15937   0.75915   0.00000  Uiso   1.00
C1029  C     0.61449   0.17434   0.74146   0.00000  Uiso   1.00
C1030  C     0.48928   0.05634   0.75857   0.00000  Uiso   1.00
C1031  C     0.51018   0.27781   0.74168   0.00000  Uiso   1.00
C1032  C     0.52115   0.14567   0.64379   0.00000  Uiso   1.00
C1033  C     0.47825   0.18729   0.85637   0.00000  Uiso   1.00
C1034  C     0.46229   0.18876   0.89996   0.00000  Uiso   1.00
C1035  C     0.52926   0.13750   0.60072   0.00000  Uiso   1.00
C1036  C     0.40182   0.19180   0.96063   0.00000  Uiso   1.00
C1037  C     0.41990   0.19717   0.92001   0.00000  Uiso   1.00
C1038  C     0.48713   0.17505   0.92041   0.00000  Uiso   1.00
C1039  C     0.46899   0.16480   0.95926   0.00000  Uiso   1.00
C1040  C     0.42736   0.17648   0.98064   0.00000  Uiso   1.00
C1041  C     0.49221   0.14485   0.97808   0.00000  Uiso   1.00
C1042  C     0.48117   0.15040   0.52010   0.00000  Uiso   1.00
C1043  C     0.43906   0.15970   0.54079   0.00000  Uiso   1.00
C1044  C     0.41228   0.17177   0.52139   0.00000  Uiso   1.00
C1045  C     0.52213   0.11581   0.95760   0.00000  Uiso   1.00
C1046  C     0.54646   0.10152   0.97857   0.00000  Uiso   1.00
C1047  C     0.54187   0.11450   0.51899   0.00000  Uiso   1.00
C1048  C     0.50989   0.14096   0.54007   0.00000  Uiso   1.00
C1049  C     0.56665   0.09922   0.53940   0.00000  Uiso   1.00
C1050  C     0.55771   0.10867   0.58048   0.00000  Uiso   1.00
C1051  C     0.50859   0.15748   0.58003   0.00000  Uiso   1.00
H1052  H     0.38022   0.17830   0.53907   0.00000  Uiso   1.00
H1053  H     0.57472   0.09500   0.59661   0.00000  Uiso   1.00
H1054  H     0.56777   0.07834   0.96338   0.00000  Uiso   1.00
H1055  H     0.40106   0.20699   0.90326   0.00000  Uiso   1.00
H1056  H     0.52113   0.17334   0.90591   0.00000  Uiso   1.00
H1057  H     0.42515   0.15440   0.57158   0.00000  Uiso   1.00
C1058  C     0.66084   0.17896   0.73823   0.00000  Uiso   1.00
C1059  C     0.34077   0.15711   0.76068   0.00000  Uiso   1.00
H1060  H     0.65163   0.13556   0.77981   0.00000  Uiso   1.00
C1061  C     0.51412   0.32255   0.73949   0.00000  Uiso   1.00
C1062  C     0.48251   0.01261   0.76219   0.00000  Uiso   1.00
N1063  N     0.60042   0.07363   0.51918   0.00000  Uiso   1.00
O1064  O     0.60500   0.04208   0.53529   0.00000  Uiso   1.00
O1065  O     0.63113   0.08614   0.98877   0.00000  Uiso   1.00
N1066  N     0.35734   0.20675   0.71175   0.00000  Uiso   1.00
O1067  O     0.34534   0.24102   0.70644   0.00000  Uiso   1.00
O1068  O     0.39517   0.19659   0.69060   0.00000  Uiso   1.00
N1069  N     0.55283   0.00788   0.71264   0.00000  Uiso   1.00
O1070  O     0.59052   0.33084   0.71056   0.00000  Uiso   1.00
O1071  O     0.55005   0.03108   0.68694   0.00000  Uiso   1.00
C1072  C     0.43920   0.32885   0.78981   0.00000  Uiso   1.00
C1073  C     0.40712   0.02764   0.80948   0.00000  Uiso   1.00
C1074  C     0.36591   0.00785   0.83742   0.00000  Uiso   1.00
H1075  H     0.34942   0.31564   0.82076   0.00000  Uiso   1.00
H1076  H     0.37377   0.32859   0.86152   0.00000  Uiso   1.00
H1077  H     0.34342   0.03164   0.85103   0.00000  Uiso   1.00
H1078  H     0.42232   0.05352   0.82687   0.00000  Uiso   1.00
H1079  H     0.39795   0.04060   0.78628   0.00000  Uiso   1.00
H1080  H     0.42267   0.30412   0.77236   0.00000  Uiso   1.00
H1081  H     0.44593   0.31552   0.81410   0.00000  Uiso   1.00
C1082  C     0.49348   0.20008   0.59799   0.00000  Uiso   1.00
C1083  C     0.52064   0.23456   0.57309   0.00000  Uiso   1.00
C1084  C     0.50769   0.27736   0.59206   0.00000  Uiso   1.00
H1085  H     0.47305   0.27868   0.59457   0.00000  Uiso   1.00
H1086  H     0.51291   0.28423   0.62208   0.00000  Uiso   1.00
H1087  H     0.52785   0.30150   0.57331   0.00000  Uiso   1.00
H1088  H     0.55551   0.23427   0.57050   0.00000  Uiso   1.00
H1089  H     0.51632   0.22927   0.54274   0.00000  Uiso   1.00
H1090  H     0.45871   0.20104   0.60211   0.00000  Uiso   1.00
H1091  H     0.49699   0.20847   0.62843   0.00000  Uiso   1.00
C1092  C     0.35549   0.20069   0.98267   0.00000  Uiso   1.00
C1093  C     0.66243   0.21331   0.95764   0.00000  Uiso   1.00
C1094  C     0.61649   0.22004   0.98283   0.00000  Uiso   1.00
H1095  H     0.59940   0.19117   0.99596   0.00000  Uiso   1.00
H1096  H     0.61750   0.24565   0.50705   0.00000  Uiso   1.00
H1097  H     0.59796   0.22851   0.96396   0.00000  Uiso   1.00
H1098  H     0.34509   0.24274   0.94496   0.00000  Uiso   1.00
H1099  H     0.66017   0.18836   0.93308   0.00000  Uiso   1.00
H1100  H     0.33747   0.17211   0.99592   0.00000  Uiso   1.00
H1101  H     0.35688   0.22591   0.50719   0.00000  Uiso   1.00
C1102  C     0.52221   0.09165   0.91717   0.00000  Uiso   1.00
C1103  C     0.47802   0.06623   0.91830   0.00000  Uiso   1.00
C1104  C     0.47937   0.03888   0.87924   0.00000  Uiso   1.00
H1105  H     0.48798   0.05839   0.85435   0.00000  Uiso   1.00
H1106  H     0.50351   0.01652   0.87327   0.00000  Uiso   1.00
H1107  H     0.44698   0.02106   0.88112   0.00000  Uiso   1.00
H1108  H     0.46871   0.04604   0.94279   0.00000  Uiso   1.00
H1109  H     0.45265   0.08716   0.92381   0.00000  Uiso   1.00
H1110  H     0.53241   0.11141   0.89266   0.00000  Uiso   1.00
H1111  H     0.54681   0.06939   0.90848   0.00000  Uiso   1.00
Zn1112 Zn    0.85910   0.14090   0.78278   0.00000  Uiso   1.00
Zn1113 Zn    0.80125   0.12378   0.72258   0.00000  Uiso   1.00
Zn1114 Zn    0.87833   0.19664   0.71188   0.00000  Uiso   1.00
Zn1115 Zn    0.79465   0.20535   0.78277   0.00000  Uiso   1.00
O1116  O     0.83333   0.16667   0.75000   0.00000  Uiso   1.00
O1117  O     0.73656   0.18960   0.77820   0.00000  Uiso   1.00
O1118  O     0.92106   0.15277   0.76768   0.00000  Uiso   1.00
O1119  O     0.80467   0.06903   0.73607   0.00000  Uiso   1.00
O1120  O     0.87104   0.25527   0.71806   0.00000  Uiso   1.00
O1121  O     0.82360   0.12393   0.66625   0.00000  Uiso   1.00
O1122  O     0.79354   0.20646   0.83749   0.00000  Uiso   1.00
O1123  O     0.87755   0.17493   0.65877   0.00000  Uiso   1.00
O1124  O     0.83865   0.16135   0.83749   0.00000  Uiso   1.00
O1125  O     0.84515   0.08101   0.77821   0.00000  Uiso   1.00
O1126  O     0.81247   0.26136   0.76767   0.00000  Uiso   1.00
O1127  O     0.74119   0.13251   0.73607   0.00000  Uiso   1.00
O1128  O     0.93452   0.19179   0.71806   0.00000  Uiso   1.00
C1129  C     0.71902   0.15937   0.75915   0.00000  Uiso   1.00
C1130  C     0.94782   0.17434   0.74146   0.00000  Uiso   1.00
C1131  C     0.82261   0.05634   0.75857   0.00000  Uiso   1.00
C1132  C     0.84352   0.27781   0.74168   0.00000  Uiso   1.00
C1133  C     0.85448   0.14567   0.64379   0.00000  Uiso   1.00
C1134  C     0.81158   0.18729   0.85637   0.00000  Uiso   1.00
C1135  C     0.79562   0.18876   0.89996   0.00000  Uiso   1.00
C1136  C     0.86260   0.13750   0.60072   0.00000  Uiso   1.00
C1137  C     0.73516   0.19180   0.96063   0.00000  Uiso   1.00
C1138  C     0.75323   0.19717   0.92001   0.00000  Uiso   1.00
C1139  C     0.82047   0.17505   0.92041   0.00000  Uiso   1.00
C1140  C     0.80233   0.16480   0.95926   0.00000  Uiso   1.00
C1141  C     0.76070   0.17648   0.98064   0.00000  Uiso   1.00
C1142  C     0.82555   0.14485   0.97808   0.00000  Uiso   1.00
C1143  C     0.81451   0.15040   0.52010   0.00000  Uiso   1.00
C1144  C     0.77239   0.15970   0.54079   0.00000  Uiso   1.00
C1145  C     0.74561   0.17177   0.52139   0.00000  Uiso   1.00
C1146  C     0.85546   0.11581   0.95760   0.00000  Uiso   1.00
C1147  C     0.87979   0.10152   0.97857   0.00000  Uiso   1.00
C1148  C     0.87520   0.11450   0.51899   0.00000  Uiso   1.00
C1149  C     0.84322   0.14096   0.54007   0.00000  Uiso   1.00
C1150  C     0.89998   0.09922   0.53940   0.00000  Uiso   1.00
C1151  C     0.89104   0.10867   0.58048   0.00000  Uiso   1.00
C1152  C     0.84193   0.15748   0.58003   0.00000  Uiso   1.00
H1153  H     0.71355   0.17830   0.53907   0.00000  Uiso   1.00
H1154  H     0.90806   0.09500   0.59661   0.00000  Uiso   1.00
H1155  H     0.90111   0.07834   0.96338   0.00000  Uiso   1.00
H1156  H     0.73439   0.20699   0.90326   0.00000  Uiso   1.00
H1157  H     0.85446   0.17334   0.90591   0.00000  Uiso   1.00
H1158  H     0.75848   0.15440   0.57158   0.00000  Uiso   1.00
C1159  C     0.99417   0.17896   0.73823   0.00000  Uiso   1.00
C1160  C     0.67410   0.15711   0.76068   0.00000  Uiso   1.00
H1161  H     0.98496   0.13556   0.77981   0.00000  Uiso   1.00
C1162  C     0.84746   0.32255   0.73949   0.00000  Uiso   1.00
C1163  C     0.81585   0.01261   0.76219   0.00000  Uiso   1.00
N1164  N     0.93375   0.07363   0.51918   0.00000  Uiso   1.00
O1165  O     0.93834   0.04208   0.53529   0.00000  Uiso   1.00
O1166  O     0.96446   0.08614   0.98877   0.00000  Uiso   1.00
N1167  N     0.69067   0.20675   0.71175   0.00000  Uiso   1.00
O1168  O     0.67867   0.24102   0.70644   0.00000  Uiso   1.00
O1169  O     0.72850   0.19659   0.69060   0.00000  Uiso   1.00
N1170  N     0.88616   0.00788   0.71264   0.00000  Uiso   1.00
O1171  O     0.92385   0.33084   0.71056   0.00000  Uiso   1.00
O1172  O     0.88339   0.03108   0.68694   0.00000  Uiso   1.00
C1173  C     0.77253   0.32885   0.78981   0.00000  Uiso   1.00
C1174  C     0.74045   0.02764   0.80948   0.00000  Uiso   1.00
C1175  C     0.69925   0.00785   0.83742   0.00000  Uiso   1.00
H1176  H     0.68276   0.31564   0.82076   0.00000  Uiso   1.00
H1177  H     0.70710   0.32859   0.86152   0.00000  Uiso   1.00
H1178  H     0.67676   0.03164   0.85103   0.00000  Uiso   1.00
H1179  H     0.75565   0.05352   0.82687   0.00000  Uiso   1.00
H1180  H     0.73128   0.04060   0.78628   0.00000  Uiso   1.00
H1181  H     0.75601   0.30412   0.77236   0.00000  Uiso   1.00
H1182  H     0.77927   0.31552   0.81410   0.00000  Uiso   1.00
C1183  C     0.82681   0.20008   0.59799   0.00000  Uiso   1.00
C1184  C     0.85397   0.23456   0.57309   0.00000  Uiso   1.00
C1185  C     0.84103   0.27736   0.59206   0.00000  Uiso   1.00
H1186  H     0.80638   0.27868   0.59457   0.00000  Uiso   1.00
H1187  H     0.84624   0.28423   0.62208   0.00000  Uiso   1.00
H1188  H     0.86118   0.30150   0.57331   0.00000  Uiso   1.00
H1189  H     0.88884   0.23427   0.57050   0.00000  Uiso   1.00
H1190  H     0.84966   0.22927   0.54274   0.00000  Uiso   1.00
H1191  H     0.79205   0.20104   0.60211   0.00000  Uiso   1.00
H1192  H     0.83032   0.20847   0.62843   0.00000  Uiso   1.00
C1193  C     0.68882   0.20069   0.98267   0.00000  Uiso   1.00
C1194  C     0.99577   0.21331   0.95764   0.00000  Uiso   1.00
C1195  C     0.94982   0.22004   0.98283   0.00000  Uiso   1.00
H1196  H     0.93273   0.19117   0.99596   0.00000  Uiso   1.00
H1197  H     0.95083   0.24565   0.50705   0.00000  Uiso   1.00
H1198  H     0.93129   0.22851   0.96396   0.00000  Uiso   1.00
H1199  H     0.67843   0.24274   0.94496   0.00000  Uiso   1.00
H1200  H     0.99350   0.18836   0.93308   0.00000  Uiso   1.00
H1201  H     0.67080   0.17211   0.99592   0.00000  Uiso   1.00
H1202  H     0.69021   0.22591   0.50719   0.00000  Uiso   1.00
C1203  C     0.85554   0.09165   0.91717   0.00000  Uiso   1.00
C1204  C     0.81136   0.06623   0.91830   0.00000  Uiso   1.00
C1205  C     0.81271   0.03888   0.87924   0.00000  Uiso   1.00
H1206  H     0.82131   0.05839   0.85435   0.00000  Uiso   1.00
H1207  H     0.83685   0.01652   0.87327   0.00000  Uiso   1.00
H1208  H     0.78031   0.02106   0.88112   0.00000  Uiso   1.00
H1209  H     0.80204   0.04604   0.94279   0.00000  Uiso   1.00
H1210  H     0.78598   0.08716   0.92381   0.00000  Uiso   1.00
H1211  H     0.86574   0.11141   0.89266   0.00000  Uiso   1.00
H1212  H     0.88015   0.06939   0.90848   0.00000  Uiso   1.00
Zn1213 Zn    0.19244   0.47423   0.78278   0.00000  Uiso   1.00
Zn1214 Zn    0.13459   0.45711   0.72258   0.00000  Uiso   1.00
Zn1215 Zn    0.21166   0.52997   0.71188   0.00000  Uiso   1.00
Zn1216 Zn    0.12798   0.53868   0.78277   0.00000  Uiso   1.00
O1217  O     0.16667   0.50000   0.75000   0.00000  Uiso   1.00
O1218  O     0.06990   0.52293   0.77820   0.00000  Uiso   1.00
O1219  O     0.25440   0.48610   0.76768   0.00000  Uiso   1.00
O1220  O     0.13800   0.40236   0.73607   0.00000  Uiso   1.00
O1221  O     0.20437   0.58860   0.71806   0.00000  Uiso   1.00
O1222  O     0.15693   0.45726   0.66625   0.00000  Uiso   1.00
O1223  O     0.12687   0.53979   0.83749   0.00000  Uiso   1.00
O1224  O     0.21088   0.50826   0.65877   0.00000  Uiso   1.00
O1225  O     0.17198   0.49468   0.83749   0.00000  Uiso   1.00
O1226  O     0.17849   0.41434   0.77821   0.00000  Uiso   1.00
O1227  O     0.14581   0.59469   0.76767   0.00000  Uiso   1.00
O1228  O     0.07452   0.46584   0.73607   0.00000  Uiso   1.00
O1229  O     0.26785   0.52512   0.71806   0.00000  Uiso   1.00
C1230  C     0.05235   0.49270   0.75915   0.00000  Uiso   1.00
C1231  C     0.28115   0.50767   0.74146   0.00000  Uiso   1.00
C1232  C     0.15594   0.38967   0.75857   0.00000  Uiso   1.00
C1233  C     0.17685   0.61114   0.74168   0.00000  Uiso   1.00
C1234  C     0.18781   0.47900   0.64379   0.00000  Uiso   1.00
C1235  C     0.14491   0.52063   0.85637   0.00000  Uiso   1.00
C1236  C     0.12895   0.52209   0.89996   0.00000  Uiso   1.00
C1237  C     0.19593   0.47083   0.60072   0.00000  Uiso   1.00
C1238  C     0.06849   0.52513   0.96063   0.00000  Uiso   1.00
C1239  C     0.08657   0.53050   0.92001   0.00000  Uiso   1.00
C1240  C     0.15380   0.50839   0.92041   0.00000  Uiso   1.00
C1241  C     0.13566   0.49813   0.95926   0.00000  Uiso   1.00
C1242  C     0.09403   0.50981   0.98064   0.00000  Uiso   1.00
C1243  C     0.15888   0.47818   0.97808   0.00000  Uiso   1.00
C1244  C     0.14784   0.48373   0.52010   0.00000  Uiso   1.00
C1245  C     0.10573   0.49304   0.54079   0.00000  Uiso   1.00
C1246  C     0.07895   0.50510   0.52139   0.00000  Uiso   1.00
C1247  C     0.18880   0.44914   0.95760   0.00000  Uiso   1.00
C1248  C     0.21313   0.43485   0.97857   0.00000  Uiso   1.00
C1249  C     0.20854   0.44783   0.51899   0.00000  Uiso   1.00
C1250  C     0.17656   0.47429   0.54007   0.00000  Uiso   1.00
C1251  C     0.23331   0.43255   0.53940   0.00000  Uiso   1.00
C1252  C     0.22438   0.44200   0.58048   0.00000  Uiso   1.00
C1253  C     0.17526   0.49081   0.58003   0.00000  Uiso   1.00
H1254  H     0.04689   0.51164   0.53907   0.00000  Uiso   1.00
H1255  H     0.24139   0.42833   0.59661   0.00000  Uiso   1.00
H1256  H     0.23444   0.41168   0.96338   0.00000  Uiso   1.00
H1257  H     0.06773   0.54033   0.90326   0.00000  Uiso   1.00
H1258  H     0.18780   0.50668   0.90591   0.00000  Uiso   1.00
H1259  H     0.09181   0.48774   0.57158   0.00000  Uiso   1.00
C1260  C     0.32750   0.51229   0.73823   0.00000  Uiso   1.00
C1261  C     0.00743   0.49044   0.76068   0.00000  Uiso   1.00
H1262  H     0.31829   0.46890   0.77981   0.00000  Uiso   1.00
C1263  C     0.18079   0.65588   0.73949   0.00000  Uiso   1.00
C1264  C     0.14918   0.34594   0.76219   0.00000  Uiso   1.00
N1265  N     0.26708   0.40696   0.51918   0.00000  Uiso   1.00
O1266  O     0.27167   0.37541   0.53529   0.00000  Uiso   1.00
O1267  O     0.29779   0.41947   0.98877   0.00000  Uiso   1.00
N1268  N     0.02400   0.54008   0.71175   0.00000  Uiso   1.00
O1269  O     0.01200   0.57435   0.70644   0.00000  Uiso   1.00
O1270  O     0.06183   0.52993   0.69060   0.00000  Uiso   1.00
N1271  N     0.21949   0.34121   0.71264   0.00000  Uiso   1.00
O1272  O     0.25718   0.66417   0.71056   0.00000  Uiso   1.00
O1273  O     0.21672   0.36441   0.68694   0.00000  Uiso   1.00
C1274  C     0.10586   0.66218   0.78981   0.00000  Uiso   1.00
C1275  C     0.07379   0.36097   0.80948   0.00000  Uiso   1.00
C1276  C     0.03258   0.34118   0.83742   0.00000  Uiso   1.00
H1277  H     0.01609   0.64898   0.82076   0.00000  Uiso   1.00
H1278  H     0.04043   0.66192   0.86152   0.00000  Uiso   1.00
H1279  H     0.01009   0.36498   0.85103   0.00000  Uiso   1.00
H1280  H     0.08899   0.38686   0.82687   0.00000  Uiso   1.00
H1281  H     0.06461   0.37393   0.78628   0.00000  Uiso   1.00
H1282  H     0.08934   0.63746   0.77236   0.00000  Uiso   1.00
H1283  H     0.11260   0.64886   0.81410   0.00000  Uiso   1.00
C1284  C     0.16015   0.53341   0.59799   0.00000  Uiso   1.00
C1285  C     0.18730   0.56790   0.57309   0.00000  Uiso   1.00
C1286  C     0.17436   0.61070   0.59206   0.00000  Uiso   1.00
H1287  H     0.13972   0.61202   0.59457   0.00000  Uiso   1.00
H1288  H     0.17957   0.61756   0.62208   0.00000  Uiso   1.00
H1289  H     0.19451   0.63483   0.57331   0.00000  Uiso   1.00
H1290  H     0.22217   0.56760   0.57050   0.00000  Uiso   1.00
H1291  H     0.18299   0.56261   0.54274   0.00000  Uiso   1.00
H1292  H     0.12538   0.53438   0.60211   0.00000  Uiso   1.00
H1293  H     0.16366   0.54181   0.62843   0.00000  Uiso   1.00
C1294  C     0.02215   0.53403   0.98267   0.00000  Uiso   1.00
C1295  C     0.32910   0.54664   0.95764   0.00000  Uiso   1.00
C1296  C     0.28315   0.55337   0.98283   0.00000  Uiso   1.00
H1297  H     0.26606   0.52451   0.99596   0.00000  Uiso   1.00
H1298  H     0.28416   0.57899   0.50705   0.00000  Uiso   1.00
H1299  H     0.26463   0.56184   0.96396   0.00000  Uiso   1.00
H1300  H     0.01176   0.57607   0.94496   0.00000  Uiso   1.00
H1301  H     0.32683   0.52170   0.93308   0.00000  Uiso   1.00
H1302  H     0.00413   0.50545   0.99592   0.00000  Uiso   1.00
H1303  H     0.02355   0.55925   0.50719   0.00000  Uiso   1.00
C1304  C     0.18887   0.42499   0.91717   0.00000  Uiso   1.00
C1305  C     0.14469   0.39956   0.91830   0.00000  Uiso   1.00
C1306  C     0.14604   0.37221   0.87924   0.00000  Uiso   1.00
H1307  H     0.15465   0.39172   0.85435   0.00000  Uiso   1.00
H1308  H     0.17018   0.34985   0.87327   0.00000  Uiso   1.00
H1309  H     0.11364   0.35440   0.88112   0.00000  Uiso   1.00
H1310  H     0.13537   0.37937   0.94279   0.00000  Uiso   1.00
H1311  H     0.11932   0.42049   0.92381   0.00000  Uiso   1.00
H1312  H     0.19908   0.44474   0.89266   0.00000  Uiso   1.00
H1313  H     0.21348   0.40272   0.90848   0.00000  Uiso   1.00
Zn1314 Zn    0.52577   0.47423   0.78278   0.00000  Uiso   1.00
Zn1315 Zn    0.46792   0.45711   0.72258   0.00000  Uiso   1.00
Zn1316 Zn    0.54500   0.52997   0.71188   0.00000  Uiso   1.00
Zn1317 Zn    0.46131   0.53868   0.78277   0.00000  Uiso   1.00
O1318  O     0.50000   0.50000   0.75000   0.00000  Uiso   1.00
O1319  O     0.40323   0.52293   0.77820   0.00000  Uiso   1.00
O1320  O     0.58773   0.48610   0.76768   0.00000  Uiso   1.00
O1321  O     0.47133   0.40236   0.73607   0.00000  Uiso   1.00
O1322  O     0.53771   0.58860   0.71806   0.00000  Uiso   1.00
O1323  O     0.49027   0.45726   0.66625   0.00000  Uiso   1.00
O1324  O     0.46020   0.53979   0.83749   0.00000  Uiso   1.00
O1325  O     0.54421   0.50826   0.65877   0.00000  Uiso   1.00
O1326  O     0.50532   0.49468   0.83749   0.00000  Uiso   1.00
O1327  O     0.51182   0.41434   0.77821   0.00000  Uiso   1.00
O1328  O     0.47914   0.59469   0.76767   0.00000  Uiso   1.00
O1329  O     0.40785   0.46584   0.73607   0.00000  Uiso   1.00
O1330  O     0.60119   0.52512   0.71806   0.00000  Uiso   1.00
C1331  C     0.38568   0.49270   0.75915   0.00000  Uiso   1.00
C1332  C     0.61449   0.50767   0.74146   0.00000  Uiso   1.00
C1333  C     0.48928   0.38967   0.75857   0.00000  Uiso   1.00
C1334  C     0.51018   0.61114   0.74168   0.00000  Uiso   1.00
C1335  C     0.52115   0.47900   0.64379   0.00000  Uiso   1.00
C1336  C     0.47825   0.52063   0.85637   0.00000  Uiso   1.00
C1337  C     0.46229   0.52209   0.89996   0.00000  Uiso   1.00
C1338  C     0.52926   0.47083   0.60072   0.00000  Uiso   1.00
C1339  C     0.40182   0.52513   0.96063   0.00000  Uiso   1.00
C1340  C     0.41990   0.53050   0.92001   0.00000  Uiso   1.00
C1341  C     0.48713   0.50839   0.92041   0.00000  Uiso   1.00
C1342  C     0.46899   0.49813   0.95926   0.00000  Uiso   1.00
C1343  C     0.42736   0.50981   0.98064   0.00000  Uiso   1.00
C1344  C     0.49221   0.47818   0.97808   0.00000  Uiso   1.00
C1345  C     0.48117   0.48373   0.52010   0.00000  Uiso   1.00
C1346  C     0.43906   0.49304   0.54079   0.00000  Uiso   1.00
C1347  C     0.41228   0.50510   0.52139   0.00000  Uiso   1.00
C1348  C     0.52213   0.44914   0.95760   0.00000  Uiso   1.00
C1349  C     0.54646   0.43485   0.97857   0.00000  Uiso   1.00
C1350  C     0.54187   0.44783   0.51899   0.00000  Uiso   1.00
C1351  C     0.50989   0.47429   0.54007   0.00000  Uiso   1.00
C1352  C     0.56665   0.43255   0.53940   0.00000  Uiso   1.00
C1353  C     0.55771   0.44200   0.58048   0.00000  Uiso   1.00
C1354  C     0.50859   0.49081   0.58003   0.00000  Uiso   1.00
H1355  H     0.38022   0.51164   0.53907   0.00000  Uiso   1.00
H1356  H     0.57472   0.42833   0.59661   0.00000  Uiso   1.00
H1357  H     0.56777   0.41168   0.96338   0.00000  Uiso   1.00
H1358  H     0.40106   0.54033   0.90326   0.00000  Uiso   1.00
H1359  H     0.52113   0.50668   0.90591   0.00000  Uiso   1.00
H1360  H     0.42515   0.48774   0.57158   0.00000  Uiso   1.00
C1361  C     0.66084   0.51229   0.73823   0.00000  Uiso   1.00
C1362  C     0.34077   0.49044   0.76068   0.00000  Uiso   1.00
H1363  H     0.65163   0.46890   0.77981   0.00000  Uiso   1.00
C1364  C     0.51412   0.65588   0.73949   0.00000  Uiso   1.00
C1365  C     0.48251   0.34594   0.76219   0.00000  Uiso   1.00
N1366  N     0.60042   0.40696   0.51918   0.00000  Uiso   1.00
O1367  O     0.60500   0.37541   0.53529   0.00000  Uiso   1.00
O1368  O     0.63113   0.41947   0.98877   0.00000  Uiso   1.00
N1369  N     0.35734   0.54008   0.71175   0.00000  Uiso   1.00
O1370  O     0.34534   0.57435   0.70644   0.00000  Uiso   1.00
O1371  O     0.39517   0.52993   0.69060   0.00000  Uiso   1.00
N1372  N     0.55283   0.34121   0.71264   0.00000  Uiso   1.00
O1373  O     0.59052   0.66417   0.71056   0.00000  Uiso   1.00
O1374  O     0.55005   0.36441   0.68694   0.00000  Uiso   1.00
C1375  C     0.43920   0.66218   0.78981   0.00000  Uiso   1.00
C1376  C     0.40712   0.36097   0.80948   0.00000  Uiso   1.00
C1377  C     0.36591   0.34118   0.83742   0.00000  Uiso   1.00
H1378  H     0.34942   0.64898   0.82076   0.00000  Uiso   1.00
H1379  H     0.37377   0.66192   0.86152   0.00000  Uiso   1.00
H1380  H     0.34342   0.36498   0.85103   0.00000  Uiso   1.00
H1381  H     0.42232   0.38686   0.82687   0.00000  Uiso   1.00
H1382  H     0.39795   0.37393   0.78628   0.00000  Uiso   1.00
H1383  H     0.42267   0.63746   0.77236   0.00000  Uiso   1.00
H1384  H     0.44593   0.64886   0.81410   0.00000  Uiso   1.00
C1385  C     0.49348   0.53341   0.59799   0.00000  Uiso   1.00
C1386  C     0.52064   0.56790   0.57309   0.00000  Uiso   1.00
C1387  C     0.50769   0.61070   0.59206   0.00000  Uiso   1.00
H1388  H     0.47305   0.61202   0.59457   0.00000  Uiso   1.00
H1389  H     0.51291   0.61756   0.62208   0.00000  Uiso   1.00
H1390  H     0.52785   0.63483   0.57331   0.00000  Uiso   1.00
H1391  H     0.55551   0.56760   0.57050   0.00000  Uiso   1.00
H1392  H     0.51632   0.56261   0.54274   0.00000  Uiso   1.00
H1393  H     0.45871   0.53438   0.60211   0.00000  Uiso   1.00
H1394  H     0.49699   0.54181   0.62843   0.00000  Uiso   1.00
C1395  C     0.35549   0.53403   0.98267   0.00000  Uiso   1.00
C1396  C     0.66243   0.54664   0.95764   0.00000  Uiso   1.00
C1397  C     0.61649   0.55337   0.98283   0.00000  Uiso   1.00
H1398  H     0.59940   0.52451   0.99596   0.00000  Uiso   1.00
H1399  H     0.61750   0.57899   0.50705   0.00000  Uiso   1.00
H1400  H     0.59796   0.56184   0.96396   0.00000  Uiso   1.00
H1401  H     0.34509   0.57607   0.94496   0.00000  Uiso   1.00
H1402  H     0.66017   0.52170   0.93308   0.00000  Uiso   1.00
H1403  H     0.33747   0.50545   0.99592   0.00000  Uiso   1.00
H1404  H     0.35688   0.55925   0.50719   0.00000  Uiso   1.00
C1405  C     0.52221   0.42499   0.91717   0.00000  Uiso   1.00
C1406  C     0.47802   0.39956   0.91830   0.00000  Uiso   1.00
C1407  C     0.47937   0.37221   0.87924   0.00000  Uiso   1.00
H1408  H     0.48798   0.39172   0.85435   0.00000  Uiso   1.00
H1409  H     0.50351   0.34985   0.87327   0.00000  Uiso   1.00
H1410  H     0.44698   0.35440   0.88112   0.00000  Uiso   1.00
H1411  H     0.46871   0.37937   0.94279   0.00000  Uiso   1.00
H1412  H     0.45265   0.42049   0.92381   0.00000  Uiso   1.00
H1413  H     0.53241   0.44474   0.89266   0.00000  Uiso   1.00
H1414  H     0.54681   0.40272   0.90848   0.00000  Uiso   1.00
Zn1415 Zn    0.85910   0.47423   0.78278   0.00000  Uiso   1.00
Zn1416 Zn    0.80125   0.45711   0.72258   0.00000  Uiso   1.00
Zn1417 Zn    0.87833   0.52997   0.71188   0.00000  Uiso   1.00
Zn1418 Zn    0.79465   0.53868   0.78277   0.00000  Uiso   1.00
O1419  O     0.83333   0.50000   0.75000   0.00000  Uiso   1.00
O1420  O     0.73656   0.52293   0.77820   0.00000  Uiso   1.00
O1421  O     0.92106   0.48610   0.76768   0.00000  Uiso   1.00
O1422  O     0.80467   0.40236   0.73607   0.00000  Uiso   1.00
O1423  O     0.87104   0.58860   0.71806   0.00000  Uiso   1.00
O1424  O     0.82360   0.45726   0.66625   0.00000  Uiso   1.00
O1425  O     0.79354   0.53979   0.83749   0.00000  Uiso   1.00
O1426  O     0.87755   0.50826   0.65877   0.00000  Uiso   1.00
O1427  O     0.83865   0.49468   0.83749   0.00000  Uiso   1.00
O1428  O     0.84515   0.41434   0.77821   0.00000  Uiso   1.00
O1429  O     0.81247   0.59469   0.76767   0.00000  Uiso   1.00
O1430  O     0.74119   0.46584   0.73607   0.00000  Uiso   1.00
O1431  O     0.93452   0.52512   0.71806   0.00000  Uiso   1.00
C1432  C     0.71902   0.49270   0.75915   0.00000  Uiso   1.00
C1433  C     0.94782   0.50767   0.74146   0.00000  Uiso   1.00
C1434  C     0.82261   0.38967   0.75857   0.00000  Uiso   1.00
C1435  C     0.84352   0.61114   0.74168   0.00000  Uiso   1.00
C1436  C     0.85448   0.47900   0.64379   0.00000  Uiso   1.00
C1437  C     0.81158   0.52063   0.85637   0.00000  Uiso   1.00
C1438  C     0.79562   0.52209   0.89996   0.00000  Uiso   1.00
C1439  C     0.86260   0.47083   0.60072   0.00000  Uiso   1.00
C1440  C     0.73516   0.52513   0.96063   0.00000  Uiso   1.00
C1441  C     0.75323   0.53050   0.92001   0.00000  Uiso   1.00
C1442  C     0.82047   0.50839   0.92041   0.00000  Uiso   1.00
C1443  C     0.80233   0.49813   0.95926   0.00000  Uiso   1.00
C1444  C     0.76070   0.50981   0.98064   0.00000  Uiso   1.00
C1445  C     0.82555   0.47818   0.97808   0.00000  Uiso   1.00
C1446  C     0.81451   0.48373   0.52010   0.00000  Uiso   1.00
C1447  C     0.77239   0.49304   0.54079   0.00000  Uiso   1.00
C1448  C     0.74561   0.50510   0.52139   0.00000  Uiso   1.00
C1449  C     0.85546   0.44914   0.95760   0.00000  Uiso   1.00
C1450  C     0.87979   0.43485   0.97857   0.00000  Uiso   1.00
C1451  C     0.87520   0.44783   0.51899   0.00000  Uiso   1.00
C1452  C     0.84322   0.47429   0.54007   0.00000  Uiso   1.00
C1453  C     0.89998   0.43255   0.53940   0.00000  Uiso   1.00
C1454  C     0.89104   0.44200   0.58048   0.00000  Uiso   1.00
C1455  C     0.84193   0.49081   0.58003   0.00000  Uiso   1.00
H1456  H     0.71355   0.51164   0.53907   0.00000  Uiso   1.00
H1457  H     0.90806   0.42833   0.59661   0.00000  Uiso   1.00
H1458  H     0.90111   0.41168   0.96338   0.00000  Uiso   1.00
H1459  H     0.73439   0.54033   0.90326   0.00000  Uiso   1.00
H1460  H     0.85446   0.50668   0.90591   0.00000  Uiso   1.00
H1461  H     0.75848   0.48774   0.57158   0.00000  Uiso   1.00
C1462  C     0.99417   0.51229   0.73823   0.00000  Uiso   1.00
C1463  C     0.67410   0.49044   0.76068   0.00000  Uiso   1.00
H1464  H     0.98496   0.46890   0.77981   0.00000  Uiso   1.00
C1465  C     0.84746   0.65588   0.73949   0.00000  Uiso   1.00
C1466  C     0.81585   0.34594   0.76219   0.00000  Uiso   1.00
N1467  N     0.93375   0.40696   0.51918   0.00000  Uiso   1.00
O1468  O     0.93834   0.37541   0.53529   0.00000  Uiso   1.00
O1469  O     0.96446   0.41947   0.98877   0.00000  Uiso   1.00
N1470  N     0.69067   0.54008   0.71175   0.00000  Uiso   1.00
O1471  O     0.67867   0.57435   0.70644   0.00000  Uiso   1.00
O1472  O     0.72850   0.52993   0.69060   0.00000  Uiso   1.00
N1473  N     0.88616   0.34121   0.71264   0.00000  Uiso   1.00
O1474  O     0.92385   0.66417   0.71056   0.00000  Uiso   1.00
O1475  O     0.88339   0.36441   0.68694   0.00000  Uiso   1.00
C1476  C     0.77253   0.66218   0.78981   0.00000  Uiso   1.00
C1477  C     0.74045   0.36097   0.80948   0.00000  Uiso   1.00
C1478  C     0.69925   0.34118   0.83742   0.00000  Uiso   1.00
H1479  H     0.68276   0.64898   0.82076   0.00000  Uiso   1.00
H1480  H     0.70710   0.66192   0.86152   0.00000  Uiso   1.00
H1481  H     0.67676   0.36498   0.85103   0.00000  Uiso   1.00
H1482  H     0.75565   0.38686   0.82687   0.00000  Uiso   1.00
H1483  H     0.73128   0.37393   0.78628   0.00000  Uiso   1.00
H1484  H     0.75601   0.63746   0.77236   0.00000  Uiso   1.00
H1485  H     0.77927   0.64886   0.81410   0.00000  Uiso   1.00
C1486  C     0.82681   0.53341   0.59799   0.00000  Uiso   1.00
C1487  C     0.85397   0.56790   0.57309   0.00000  Uiso   1.00
C1488  C     0.84103   0.61070   0.59206   0.00000  Uiso   1.00
H1489  H     0.80638   0.61202   0.59457   0.00000  Uiso   1.00
H1490  H     0.84624   0.61756   0.62208   0.00000  Uiso   1.00
H1491  H     0.86118   0.63483   0.57331   0.00000  Uiso   1.00
H1492  H     0.88884   0.56760   0.57050   0.00000  Uiso   1.00
H1493  H     0.84966   0.56261   0.54274   0.00000  Uiso   1.00
H1494  H     0.79205   0.53438   0.60211   0.00000  Uiso   1.00
H1495  H     0.83032   0.54181   0.62843   0.00000  Uiso   1.00
C1496  C     0.68882   0.53403   0.98267   0.00000  Uiso   1.00
C1497  C     0.99577   0.54664   0.95764   0.00000  Uiso   1.00
C1498  C     0.94982   0.55337   0.98283   0.00000  Uiso   1.00
H1499  H     0.93273   0.52451   0.99596   0.00000  Uiso   1.00
H1500  H     0.95083   0.57899   0.50705   0.00000  Uiso   1.00
H1501  H     0.93129   0.56184   0.96396   0.00000  Uiso   1.00
H1502  H     0.67843   0.57607   0.94496   0.00000  Uiso   1.00
H1503  H     0.99350   0.52170   0.93308   0.00000  Uiso   1.00
H1504  H     0.67080   0.50545   0.99592   0.00000  Uiso   1.00
H1505  H     0.69021   0.55925   0.50719   0.00000  Uiso   1.00
C1506  C     0.85554   0.42499   0.91717   0.00000  Uiso   1.00
C1507  C     0.81136   0.39956   0.91830   0.00000  Uiso   1.00
C1508  C     0.81271   0.37221   0.87924   0.00000  Uiso   1.00
H1509  H     0.82131   0.39172   0.85435   0.00000  Uiso   1.00
H1510  H     0.83685   0.34985   0.87327   0.00000  Uiso   1.00
H1511  H     0.78031   0.35440   0.88112   0.00000  Uiso   1.00
H1512  H     0.80204   0.37937   0.94279   0.00000  Uiso   1.00
H1513  H     0.78598   0.42049   0.92381   0.00000  Uiso   1.00
H1514  H     0.86574   0.44474   0.89266   0.00000  Uiso   1.00
H1515  H     0.88015   0.40272   0.90848   0.00000  Uiso   1.00
Zn1516 Zn    0.19244   0.80756   0.78278   0.00000  Uiso   1.00
Zn1517 Zn    0.13459   0.79044   0.72258   0.00000  Uiso   1.00
Zn1518 Zn    0.21166   0.86331   0.71188   0.00000  Uiso   1.00
Zn1519 Zn    0.12798   0.87202   0.78277   0.00000  Uiso   1.00
O1520  O     0.16667   0.83333   0.75000   0.00000  Uiso   1.00
O1521  O     0.06990   0.85627   0.77820   0.00000  Uiso   1.00
O1522  O     0.25440   0.81944   0.76768   0.00000  Uiso   1.00
O1523  O     0.13800   0.73570   0.73607   0.00000  Uiso   1.00
O1524  O     0.20437   0.92193   0.71806   0.00000  Uiso   1.00
O1525  O     0.15693   0.79060   0.66625   0.00000  Uiso   1.00
O1526  O     0.12687   0.87313   0.83749   0.00000  Uiso   1.00
O1527  O     0.21088   0.84159   0.65877   0.00000  Uiso   1.00
O1528  O     0.17198   0.82802   0.83749   0.00000  Uiso   1.00
O1529  O     0.17849   0.74768   0.77821   0.00000  Uiso   1.00
O1530  O     0.14581   0.92803   0.76767   0.00000  Uiso   1.00
O1531  O     0.07452   0.79917   0.73607   0.00000  Uiso   1.00
O1532  O     0.26785   0.85845   0.71806   0.00000  Uiso   1.00
C1533  C     0.05235   0.82603   0.75915   0.00000  Uiso   1.00
C1534  C     0.28115   0.84101   0.74146   0.00000  Uiso   1.00
C1535  C     0.15594   0.72300   0.75857   0.00000  Uiso   1.00
C1536  C     0.17685   0.94447   0.74168   0.00000  Uiso   1.00
C1537  C     0.18781   0.81234   0.64379   0.00000  Uiso   1.00
C1538  C     0.14491   0.85396   0.85637   0.00000  Uiso   1.00
C1539  C     0.12895   0.85542   0.89996   0.00000  Uiso   1.00
C1540  C     0.19593   0.80417   0.60072   0.00000  Uiso   1.00
C1541  C     0.06849   0.85846   0.96063   0.00000  Uiso   1.00
C1542  C     0.08657   0.86383   0.92001   0.00000  Uiso   1.00
C1543  C     0.15380   0.84172   0.92041   0.00000  Uiso   1.00
C1544  C     0.13566   0.83147   0.95926   0.00000  Uiso   1.00
C1545  C     0.09403   0.84314   0.98064   0.00000  Uiso   1.00
C1546  C     0.15888   0.81152   0.97808   0.00000  Uiso   1.00
C1547  C     0.14784   0.81706   0.52010   0.00000  Uiso   1.00
C1548  C     0.10573   0.82637   0.54079   0.00000  Uiso   1.00
C1549  C     0.07895   0.83844   0.52139   0.00000  Uiso   1.00
C1550  C     0.18880   0.78247   0.95760   0.00000  Uiso   1.00
C1551  C     0.21313   0.76818   0.97857   0.00000  Uiso   1.00
C1552  C     0.20854   0.78116   0.51899   0.00000  Uiso   1.00
C1553  C     0.17656   0.80762   0.54007   0.00000  Uiso   1.00
C1554  C     0.23331   0.76589   0.53940   0.00000  Uiso   1.00
C1555  C     0.22438   0.77533   0.58048   0.00000  Uiso   1.00
C1556  C     0.17526   0.82414   0.58003   0.00000  Uiso   1.00
H1557  H     0.04689   0.84497   0.53907   0.00000  Uiso   1.00
H1558  H     0.24139   0.76166   0.59661   0.00000  Uiso   1.00
H1559  H     0.23444   0.74501   0.96338   0.00000  Uiso   1.00
H1560  H     0.06773   0.87366   0.90326   0.00000  Uiso   1.00
H1561  H     0.18780   0.84001   0.90591   0.00000  Uiso   1.00
H1562  H     0.09181   0.82107   0.57158   0.00000  Uiso   1.00
C1563  C     0.32750   0.84562   0.73823   0.00000  Uiso   1.00
C1564  C     0.00743   0.82378   0.76068   0.00000  Uiso   1.00
H1565  H     0.31829   0.80223   0.77981   0.00000  Uiso   1.00
C1566  C     0.18079   0.98921   0.73949   0.00000  Uiso   1.00
C1567  C     0.14918   0.67927   0.76219   0.00000  Uiso   1.00
N1568  N     0.26708   0.74030   0.51918   0.00000  Uiso   1.00
O1569  O     0.27167   0.70874   0.53529   0.00000  Uiso   1.00
O1570  O     0.29779   0.75280   0.98877   0.00000  Uiso   1.00
N1571  N     0.02400   0.87342   0.71175   0.00000  Uiso   1.00
O1572  O     0.01200   0.90768   0.70644   0.00000  Uiso   1.00
O1573  O     0.06183   0.86326   0.69060   0.00000  Uiso   1.00
N1574  N     0.21949   0.67454   0.71264   0.00000  Uiso   1.00
O1575  O     0.25718   0.99750   0.71056   0.00000  Uiso   1.00
O1576  O     0.21672   0.69775   0.68694   0.00000  Uiso   1.00
C1577  C     0.10586   0.99552   0.78981   0.00000  Uiso   1.00
C1578  C     0.07379   0.69431   0.80948   0.00000  Uiso   1.00
C1579  C     0.03258   0.67451   0.83742   0.00000  Uiso   1.00
H1580  H     0.01609   0.98231   0.82076   0.00000  Uiso   1.00
H1581  H     0.04043   0.99525   0.86152   0.00000  Uiso   1.00
H1582  H     0.01009   0.69831   0.85103   0.00000  Uiso   1.00
H1583  H     0.08899   0.72019   0.82687   0.00000  Uiso   1.00
H1584  H     0.06461   0.70726   0.78628   0.00000  Uiso   1.00
H1585  H     0.08934   0.97079   0.77236   0.00000  Uiso   1.00
H1586  H     0.11260   0.98219   0.81410   0.00000  Uiso   1.00
C1587  C     0.16015   0.86675   0.59799   0.00000  Uiso   1.00
C1588  C     0.18730   0.90123   0.57309   0.00000  Uiso   1.00
C1589  C     0.17436   0.94403   0.59206   0.00000  Uiso   1.00
H1590  H     0.13972   0.94535   0.59457   0.00000  Uiso   1.00
H1591  H     0.17957   0.95089   0.62208   0.00000  Uiso   1.00
H1592  H     0.19451   0.96817   0.57331   0.00000  Uiso   1.00
H1593  H     0.22217   0.90093   0.57050   0.00000  Uiso   1.00
H1594  H     0.18299   0.89594   0.54274   0.00000  Uiso   1.00
H1595  H     0.12538   0.86771   0.60211   0.00000  Uiso   1.00
H1596  H     0.16366   0.87514   0.62843   0.00000  Uiso   1.00
C1597  C     0.02215   0.86736   0.98267   0.00000  Uiso   1.00
C1598  C     0.32910   0.87997   0.95764   0.00000  Uiso   1.00
C1599  C     0.28315   0.88671   0.98283   0.00000  Uiso   1.00
H1600  H     0.26606   0.85784   0.99596   0.00000  Uiso   1.00
H1601  H     0.28416   0.91232   0.50705   0.00000  Uiso   1.00
H1602  H     0.26463   0.89517   0.96396   0.00000  Uiso   1.00
H1603  H     0.01176   0.90941   0.94496   0.00000  Uiso   1.00
H1604  H     0.32683   0.85503   0.93308   0.00000  Uiso   1.00
H1605  H     0.00413   0.83878   0.99592   0.00000  Uiso   1.00
H1606  H     0.02355   0.89258   0.50719   0.00000  Uiso   1.00
C1607  C     0.18887   0.75832   0.91717   0.00000  Uiso   1.00
C1608  C     0.14469   0.73289   0.91830   0.00000  Uiso   1.00
C1609  C     0.14604   0.70555   0.87924   0.00000  Uiso   1.00
H1610  H     0.15465   0.72505   0.85435   0.00000  Uiso   1.00
H1611  H     0.17018   0.68319   0.87327   0.00000  Uiso   1.00
H1612  H     0.11364   0.68773   0.88112   0.00000  Uiso   1.00
H1613  H     0.13537   0.71270   0.94279   0.00000  Uiso   1.00
H1614  H     0.11932   0.75382   0.92381   0.00000  Uiso   1.00
H1615  H     0.19908   0.77807   0.89266   0.00000  Uiso   1.00
H1616  H     0.21348   0.73606   0.90848   0.00000  Uiso   1.00
Zn1617 Zn    0.52577   0.80756   0.78278   0.00000  Uiso   1.00
Zn1618 Zn    0.46792   0.79044   0.72258   0.00000  Uiso   1.00
Zn1619 Zn    0.54500   0.86331   0.71188   0.00000  Uiso   1.00
Zn1620 Zn    0.46131   0.87202   0.78277   0.00000  Uiso   1.00
O1621  O     0.50000   0.83333   0.75000   0.00000  Uiso   1.00
O1622  O     0.40323   0.85627   0.77820   0.00000  Uiso   1.00
O1623  O     0.58773   0.81944   0.76768   0.00000  Uiso   1.00
O1624  O     0.47133   0.73570   0.73607   0.00000  Uiso   1.00
O1625  O     0.53771   0.92193   0.71806   0.00000  Uiso   1.00
O1626  O     0.49027   0.79060   0.66625   0.00000  Uiso   1.00
O1627  O     0.46020   0.87313   0.83749   0.00000  Uiso   1.00
O1628  O     0.54421   0.84159   0.65877   0.00000  Uiso   1.00
O1629  O     0.50532   0.82802   0.83749   0.00000  Uiso   1.00
O1630  O     0.51182   0.74768   0.77821   0.00000  Uiso   1.00
O1631  O     0.47914   0.92803   0.76767   0.00000  Uiso   1.00
O1632  O     0.40785   0.79917   0.73607   0.00000  Uiso   1.00
O1633  O     0.60119   0.85845   0.71806   0.00000  Uiso   1.00
C1634  C     0.38568   0.82603   0.75915   0.00000  Uiso   1.00
C1635  C     0.61449   0.84101   0.74146   0.00000  Uiso   1.00
C1636  C     0.48928   0.72300   0.75857   0.00000  Uiso   1.00
C1637  C     0.51018   0.94447   0.74168   0.00000  Uiso   1.00
C1638  C     0.52115   0.81234   0.64379   0.00000  Uiso   1.00
C1639  C     0.47825   0.85396   0.85637   0.00000  Uiso   1.00
C1640  C     0.46229   0.85542   0.89996   0.00000  Uiso   1.00
C1641  C     0.52926   0.80417   0.60072   0.00000  Uiso   1.00
C1642  C     0.40182   0.85846   0.96063   0.00000  Uiso   1.00
C1643  C     0.41990   0.86383   0.92001   0.00000  Uiso   1.00
C1644  C     0.48713   0.84172   0.92041   0.00000  Uiso   1.00
C1645  C     0.46899   0.83147   0.95926   0.00000  Uiso   1.00
C1646  C     0.42736   0.84314   0.98064   0.00000  Uiso   1.00
C1647  C     0.49221   0.81152   0.97808   0.00000  Uiso   1.00
C1648  C     0.48117   0.81706   0.52010   0.00000  Uiso   1.00
C1649  C     0.43906   0.82637   0.54079   0.00000  Uiso   1.00
C1650  C     0.41228   0.83844   0.52139   0.00000  Uiso   1.00
C1651  C     0.52213   0.78247   0.95760   0.00000  Uiso   1.00
C1652  C     0.54646   0.76818   0.97857   0.00000  Uiso   1.00
C1653  C     0.54187   0.78116   0.51899   0.00000  Uiso   1.00
C1654  C     0.50989   0.80762   0.54007   0.00000  Uiso   1.00
C1655  C     0.56665   0.76589   0.53940   0.00000  Uiso   1.00
C1656  C     0.55771   0.77533   0.58048   0.00000  Uiso   1.00
C1657  C     0.50859   0.82414   0.58003   0.00000  Uiso   1.00
H1658  H     0.38022   0.84497   0.53907   0.00000  Uiso   1.00
H1659  H     0.57472   0.76166   0.59661   0.00000  Uiso   1.00
H1660  H     0.56777   0.74501   0.96338   0.00000  Uiso   1.00
H1661  H     0.40106   0.87366   0.90326   0.00000  Uiso   1.00
H1662  H     0.52113   0.84001   0.90591   0.00000  Uiso   1.00
H1663  H     0.42515   0.82107   0.57158   0.00000  Uiso   1.00
C1664  C     0.66084   0.84562   0.73823   0.00000  Uiso   1.00
C1665  C     0.34077   0.82378   0.76068   0.00000  Uiso   1.00
H1666  H     0.65163   0.80223   0.77981   0.00000  Uiso   1.00
C1667  C     0.51412   0.98921   0.73949   0.00000  Uiso   1.00
C1668  C     0.48251   0.67927   0.76219   0.00000  Uiso   1.00
N1669  N     0.60042   0.74030   0.51918   0.00000  Uiso   1.00
O1670  O     0.60500   0.70874   0.53529   0.00000  Uiso   1.00
O1671  O     0.63113   0.75280   0.98877   0.00000  Uiso   1.00
N1672  N     0.35734   0.87342   0.71175   0.00000  Uiso   1.00
O1673  O     0.34534   0.90768   0.70644   0.00000  Uiso   1.00
O1674  O     0.39517   0.86326   0.69060   0.00000  Uiso   1.00
N1675  N     0.55283   0.67454   0.71264   0.00000  Uiso   1.00
O1676  O     0.59052   0.99750   0.71056   0.00000  Uiso   1.00
O1677  O     0.55005   0.69775   0.68694   0.00000  Uiso   1.00
C1678  C     0.43920   0.99552   0.78981   0.00000  Uiso   1.00
C1679  C     0.40712   0.69431   0.80948   0.00000  Uiso   1.00
C1680  C     0.36591   0.67451   0.83742   0.00000  Uiso   1.00
H1681  H     0.34942   0.98231   0.82076   0.00000  Uiso   1.00
H1682  H     0.37377   0.99525   0.86152   0.00000  Uiso   1.00
H1683  H     0.34342   0.69831   0.85103   0.00000  Uiso   1.00
H1684  H     0.42232   0.72019   0.82687   0.00000  Uiso   1.00
H1685  H     0.39795   0.70726   0.78628   0.00000  Uiso   1.00
H1686  H     0.42267   0.97079   0.77236   0.00000  Uiso   1.00
H1687  H     0.44593   0.98219   0.81410   0.00000  Uiso   1.00
C1688  C     0.49348   0.86675   0.59799   0.00000  Uiso   1.00
C1689  C     0.52064   0.90123   0.57309   0.00000  Uiso   1.00
C1690  C     0.50769   0.94403   0.59206   0.00000  Uiso   1.00
H1691  H     0.47305   0.94535   0.59457   0.00000  Uiso   1.00
H1692  H     0.51291   0.95089   0.62208   0.00000  Uiso   1.00
H1693  H     0.52785   0.96817   0.57331   0.00000  Uiso   1.00
H1694  H     0.55551   0.90093   0.57050   0.00000  Uiso   1.00
H1695  H     0.51632   0.89594   0.54274   0.00000  Uiso   1.00
H1696  H     0.45871   0.86771   0.60211   0.00000  Uiso   1.00
H1697  H     0.49699   0.87514   0.62843   0.00000  Uiso   1.00
C1698  C     0.35549   0.86736   0.98267   0.00000  Uiso   1.00
C1699  C     0.66243   0.87997   0.95764   0.00000  Uiso   1.00
C1700  C     0.61649   0.88671   0.98283   0.00000  Uiso   1.00
H1701  H     0.59940   0.85784   0.99596   0.00000  Uiso   1.00
H1702  H     0.61750   0.91232   0.50705   0.00000  Uiso   1.00
H1703  H     0.59796   0.89517   0.96396   0.00000  Uiso   1.00
H1704  H     0.34509   0.90941   0.94496   0.00000  Uiso   1.00
H1705  H     0.66017   0.85503   0.93308   0.00000  Uiso   1.00
H1706  H     0.33747   0.83878   0.99592   0.00000  Uiso   1.00
H1707  H     0.35688   0.89258   0.50719   0.00000  Uiso   1.00
C1708  C     0.52221   0.75832   0.91717   0.00000  Uiso   1.00
C1709  C     0.47802   0.73289   0.91830   0.00000  Uiso   1.00
C1710  C     0.47937   0.70555   0.87924   0.00000  Uiso   1.00
H1711  H     0.48798   0.72505   0.85435   0.00000  Uiso   1.00
H1712  H     0.50351   0.68319   0.87327   0.00000  Uiso   1.00
H1713  H     0.44698   0.68773   0.88112   0.00000  Uiso   1.00
H1714  H     0.46871   0.71270   0.94279   0.00000  Uiso   1.00
H1715  H     0.45265   0.75382   0.92381   0.00000  Uiso   1.00
H1716  H     0.53241   0.77807   0.89266   0.00000  Uiso   1.00
H1717  H     0.54681   0.73606   0.90848   0.00000  Uiso   1.00
Zn1718 Zn    0.85910   0.80756   0.78278   0.00000  Uiso   1.00
Zn1719 Zn    0.80125   0.79044   0.72258   0.00000  Uiso   1.00
Zn1720 Zn    0.87833   0.86331   0.71188   0.00000  Uiso   1.00
Zn1721 Zn    0.79465   0.87202   0.78277   0.00000  Uiso   1.00
O1722  O     0.83333   0.83333   0.75000   0.00000  Uiso   1.00
O1723  O     0.73656   0.85627   0.77820   0.00000  Uiso   1.00
O1724  O     0.92106   0.81944   0.76768   0.00000  Uiso   1.00
O1725  O     0.80467   0.73570   0.73607   0.00000  Uiso   1.00
O1726  O     0.87104   0.92193   0.71806   0.00000  Uiso   1.00
O1727  O     0.82360   0.79060   0.66625   0.00000  Uiso   1.00
O1728  O     0.79354   0.87313   0.83749   0.00000  Uiso   1.00
O1729  O     0.87755   0.84159   0.65877   0.00000  Uiso   1.00
O1730  O     0.83865   0.82802   0.83749   0.00000  Uiso   1.00
O1731  O     0.84515   0.74768   0.77821   0.00000  Uiso   1.00
O1732  O     0.81247   0.92803   0.76767   0.00000  Uiso   1.00
O1733  O     0.74119   0.79917   0.73607   0.00000  Uiso   1.00
O1734  O     0.93452   0.85845   0.71806   0.00000  Uiso   1.00
C1735  C     0.71902   0.82603   0.75915   0.00000  Uiso   1.00
C1736  C     0.94782   0.84101   0.74146   0.00000  Uiso   1.00
C1737  C     0.82261   0.72300   0.75857   0.00000  Uiso   1.00
C1738  C     0.84352   0.94447   0.74168   0.00000  Uiso   1.00
C1739  C     0.85448   0.81234   0.64379   0.00000  Uiso   1.00
C1740  C     0.81158   0.85396   0.85637   0.00000  Uiso   1.00
C1741  C     0.79562   0.85542   0.89996   0.00000  Uiso   1.00
C1742  C     0.86260   0.80417   0.60072   0.00000  Uiso   1.00
C1743  C     0.73516   0.85846   0.96063   0.00000  Uiso   1.00
C1744  C     0.75323   0.86383   0.92001   0.00000  Uiso   1.00
C1745  C     0.82047   0.84172   0.92041   0.00000  Uiso   1.00
C1746  C     0.80233   0.83147   0.95926   0.00000  Uiso   1.00
C1747  C     0.76070   0.84314   0.98064   0.00000  Uiso   1.00
C1748  C     0.82555   0.81152   0.97808   0.00000  Uiso   1.00
C1749  C     0.81451   0.81706   0.52010   0.00000  Uiso   1.00
C1750  C     0.77239   0.82637   0.54079   0.00000  Uiso   1.00
C1751  C     0.74561   0.83844   0.52139   0.00000  Uiso   1.00
C1752  C     0.85546   0.78247   0.95760   0.00000  Uiso   1.00
C1753  C     0.87979   0.76818   0.97857   0.00000  Uiso   1.00
C1754  C     0.87520   0.78116   0.51899   0.00000  Uiso   1.00
C1755  C     0.84322   0.80762   0.54007   0.00000  Uiso   1.00
C1756  C     0.89998   0.76589   0.53940   0.00000  Uiso   1.00
C1757  C     0.89104   0.77533   0.58048   0.00000  Uiso   1.00
C1758  C     0.84193   0.82414   0.58003   0.00000  Uiso   1.00
H1759  H     0.71355   0.84497   0.53907   0.00000  Uiso   1.00
H1760  H     0.90806   0.76166   0.59661   0.00000  Uiso   1.00
H1761  H     0.90111   0.74501   0.96338   0.00000  Uiso   1.00
H1762  H     0.73439   0.87366   0.90326   0.00000  Uiso   1.00
H1763  H     0.85446   0.84001   0.90591   0.00000  Uiso   1.00
H1764  H     0.75848   0.82107   0.57158   0.00000  Uiso   1.00
C1765  C     0.99417   0.84562   0.73823   0.00000  Uiso   1.00
C1766  C     0.67410   0.82378   0.76068   0.00000  Uiso   1.00
H1767  H     0.98496   0.80223   0.77981   0.00000  Uiso   1.00
C1768  C     0.84746   0.98921   0.73949   0.00000  Uiso   1.00
C1769  C     0.81585   0.67927   0.76219   0.00000  Uiso   1.00
N1770  N     0.93375   0.74030   0.51918   0.00000  Uiso   1.00
O1771  O     0.93834   0.70874   0.53529   0.00000  Uiso   1.00
O1772  O     0.96446   0.75280   0.98877   0.00000  Uiso   1.00
N1773  N     0.69067   0.87342   0.71175   0.00000  Uiso   1.00
O1774  O     0.67867   0.90768   0.70644   0.00000  Uiso   1.00
O1775  O     0.72850   0.86326   0.69060   0.00000  Uiso   1.00
N1776  N     0.88616   0.67454   0.71264   0.00000  Uiso   1.00
O1777  O     0.92385   0.99750   0.71056   0.00000  Uiso   1.00
O1778  O     0.88339   0.69775   0.68694   0.00000  Uiso   1.00
C1779  C     0.77253   0.99552   0.78981   0.00000  Uiso   1.00
C1780  C     0.74045   0.69431   0.80948   0.00000  Uiso   1.00
C1781  C     0.69925   0.67451   0.83742   0.00000  Uiso   1.00
H1782  H     0.68276   0.98231   0.82076   0.00000  Uiso   1.00
H1783  H     0.70710   0.99525   0.86152   0.00000  Uiso   1.00
H1784  H     0.67676   0.69831   0.85103   0.00000  Uiso   1.00
H1785  H     0.75565   0.72019   0.82687   0.00000  Uiso   1.00
H1786  H     0.73128   0.70726   0.78628   0.00000  Uiso   1.00
H1787  H     0.75601   0.97079   0.77236   0.00000  Uiso   1.00
H1788  H     0.77927   0.98219   0.81410   0.00000  Uiso   1.00
C1789  C     0.82681   0.86675   0.59799   0.00000  Uiso   1.00
C1790  C     0.85397   0.90123   0.57309   0.00000  Uiso   1.00
C1791  C     0.84103   0.94403   0.59206   0.00000  Uiso   1.00
H1792  H     0.80638   0.94535   0.59457   0.00000  Uiso   1.00
H1793  H     0.84624   0.95089   0.62208   0.00000  Uiso   1.00
H1794  H     0.86118   0.96817   0.57331   0.00000  Uiso   1.00
H1795  H     0.88884   0.90093   0.57050   0.00000  Uiso   1.00
H1796  H     0.84966   0.89594   0.54274   0.00000  Uiso   1.00
H1797  H     0.79205   0.86771   0.60211   0.00000  Uiso   1.00
H1798  H     0.83032   0.87514   0.62843   0.00000  Uiso   1.00
C1799  C     0.68882   0.86736   0.98267   0.00000  Uiso   1.00
C1800  C     0.99577   0.87997   0.95764   0.00000  Uiso   1.00
C1801  C     0.94982   0.88671   0.98283   0.00000  Uiso   1.00
H1802  H     0.93273   0.85784   0.99596   0.00000  Uiso   1.00
H1803  H     0.95083   0.91232   0.50705   0.00000  Uiso   1.00
H1804  H     0.93129   0.89517   0.96396   0.00000  Uiso   1.00
H1805  H     0.67843   0.90941   0.94496   0.00000  Uiso   1.00
H1806  H     0.99350   0.85503   0.93308   0.00000  Uiso   1.00
H1807  H     0.67080   0.83878   0.99592   0.00000  Uiso   1.00
H1808  H     0.69021   0.89258   0.50719   0.00000  Uiso   1.00
C1809  C     0.85554   0.75832   0.91717   0.00000  Uiso   1.00
C1810  C     0.81136   0.73289   0.91830   0.00000  Uiso   1.00
C1811  C     0.81271   0.70555   0.87924   0.00000  Uiso   1.00
H1812  H     0.82131   0.72505   0.85435   0.00000  Uiso   1.00
H1813  H     0.83685   0.68319   0.87327   0.00000  Uiso   1.00
H1814  H     0.78031   0.68773   0.88112   0.00000  Uiso   1.00
H1815  H     0.80204   0.71270   0.94279   0.00000  Uiso   1.00
H1816  H     0.78598   0.75382   0.92381   0.00000  Uiso   1.00
H1817  H     0.86574   0.77807   0.89266   0.00000  Uiso   1.00
H1818  H     0.88015   0.73606   0.90848   0.00000  Uiso   1.00
loop_
_geom_bond_atom_site_label_1
_geom_bond_atom_site_label_2
_geom_bond_distance
_geom_bond_site_symmetry_2
_ccdc_geom_bond_type
Zn1    O5      1.964   .     S
Zn1    O7      1.917   .     S
Zn1    O13     1.908   .     S
Zn1    O14     1.936   .     S
Zn2    O16     1.926   .     S
Zn2    O5      1.933   .     S
Zn2    O10     1.912   .     S
Zn2    O8      1.952   .     S
Zn3    O12     1.916   .     S
Zn3    O9      1.944   .     S
Zn3    O5      1.925   .     S
Zn3    O17     1.937   .     S
Zn4    O6      1.926   .     S
Zn4    O11     1.924   .     S
Zn4    O5      1.932   .     S
Zn4    O15     1.941   .     S
O6     C18     1.270   .     A
O7     C19     1.283   .     A
O8     C20     1.265   .     A
O9     C21     1.275   .     A
O10    C22     1.273   .     A
O11    C23     1.289   .     A
O12    C22     1.273   .     A
O13    C23     1.289   .     A
O14    C20     1.274   .     A
O15    C21     1.259   .     A
O16    C18     1.264   .     A
O17    C19     1.279   .     A
C18    C49     1.436   .     S
C19    C48     1.463   .     S
C20    C52     1.434   .     S
C21    C51     1.463   .     S
C22    C25     1.461   .     S
C23    C24     1.473   .     S
C24    C27     1.401   .     A
C24    C28     1.392   .     A
C25    C40     1.393   .     A
C25    C41     1.412   .     A
C26    C27     1.411   .     A
C26    C82     1.529   .     S
C26    C30     1.426   .     A
C27    H45     1.080   .     S
C28    H46     1.079   .     S
C28    C29     1.398   .     A
C29    C31     1.424   .     A
C29    C30     1.422   .     A
C30    C943    1.405   .     S
C31    C35     1.430   .     A
C31    C941    1.415   .     S
C32    C38     1.420   .     A
C32    C33     1.406   .     A
C32    C940    1.415   1_554 S
C33    C34     1.390   .     A
C33    H47     1.080   .     S
C34    H42     1.081   .     S
C34    C939    1.405   1_554 S
C35    C36     1.403   .     A
C35    C92     1.529   .     S
C36    H44     1.081   .     S
C36    C946    1.402   .     S
C37    C38     1.422   .     A
C37    C39     1.416   .     A
C37    C945    1.402   1_554 S
C38    C41     1.429   .     A
C39    C40     1.394   .     A
C39    N53     1.437   .     S
C40    H43     1.084   .     S
C41    C72     1.536   .     S
C48    C150    1.343   .     S
C48    N157    1.446   .     S
C49    C250    1.343   1_455 S
C49    H252    1.086   1_455 S
H50    C150    1.086   .     S
C51    C355    1.365   .     S
C51    N362    1.445   .     S
C52    C657    1.365   1_545 S
C52    C668    1.535   1_545 S
N53    O54     1.301   .     A
N53    O964    1.301   1_554 S
O55    N962    1.301   .     S
N56    O57     1.301   .     A
N56    O58     1.302   .     A
N56    C250    1.446   1_455 S
N59    O61     1.302   .     A
N59    C657    1.445   1_545 S
N59    O666    1.301   1_545 S
O60    N362    1.301   .     S
C62    H70     1.112   .     S
C62    H71     1.111   .     S
C62    C355    1.535   .     S
C62    C366    1.542   .     S
C63    H69     1.111   .     S
C63    H68     1.111   .     S
C63    C64     1.527   .     S
C63    C668    1.542   1_545 S
C64    H67     1.110   .     S
C64    H671    1.111   1_545 S
C64    H672    1.111   1_545 S
H65    C367    1.111   .     S
H66    C367    1.111   .     S
C72    H81     1.108   .     S
C72    C73     1.536   .     S
C72    H80     1.101   .     S
C73    C74     1.527   .     S
C73    H78     1.112   .     S
C73    H79     1.111   .     S
C74    H76     1.111   .     S
C74    H75     1.111   .     S
C74    H77     1.111   .     S
C82    H90     1.112   .     S
C82    C285    1.539   1_455 S
C82    H1000   1.112   .     S
C83    C84     1.527   .     S
C83    H89     1.112   .     S
C83    C183    1.539   .     S
C83    H189    1.112   .     S
C84    H87     1.111   .     S
C84    H85     1.111   .     S
C84    H995    1.111   .     S
H86    C993    1.111   1_554 S
H88    C285    1.112   1_455 S
H91    C991    1.112   1_554 S
C92    H101    1.112   .     S
C92    H100    1.102   .     S
C92    C93     1.536   .     S
C93    C94     1.525   .     S
C93    H99     1.110   .     S
C93    H98     1.112   .     S
C94    H97     1.110   .     S
C94    H96     1.111   .     S
C94    H95     1.110   .     S
Zn102  O106    1.964   .     S
Zn102  O108    1.917   .     S
Zn102  O114    1.908   .     S
Zn102  O115    1.936   .     S
Zn103  O117    1.926   .     S
Zn103  O106    1.933   .     S
Zn103  O111    1.912   .     S
Zn103  O109    1.952   .     S
Zn104  O113    1.916   .     S
Zn104  O110    1.944   .     S
Zn104  O106    1.925   .     S
Zn104  O118    1.937   .     S
Zn105  O107    1.926   .     S
Zn105  O112    1.924   .     S
Zn105  O106    1.932   .     S
Zn105  O116    1.941   .     S
O107   C119    1.270   .     A
O108   C120    1.283   .     A
O109   C121    1.265   .     A
O110   C122    1.275   .     A
O111   C123    1.273   .     A
O112   C124    1.289   .     A
O113   C123    1.273   .     A
O114   C124    1.289   .     A
O115   C121    1.274   .     A
O116   C122    1.259   .     A
O117   C119    1.264   .     A
O118   C120    1.279   .     A
C119   C150    1.436   .     S
C120   C149    1.463   .     S
C121   C153    1.434   .     S
C122   C152    1.463   .     S
C123   C126    1.461   .     S
C124   C125    1.473   .     S
C125   C128    1.401   .     A
C125   C129    1.392   .     A
C126   C141    1.393   .     A
C126   C142    1.412   .     A
C127   C128    1.411   .     A
C127   C183    1.529   .     S
C127   C131    1.426   .     A
C128   H146    1.080   .     S
C129   H147    1.079   .     S
C129   C130    1.398   .     A
C130   C132    1.424   .     A
C130   C131    1.422   .     A
C131   C1044   1.405   .     S
C132   C136    1.430   .     A
C132   C1042   1.415   .     S
C133   C139    1.420   .     A
C133   C134    1.406   .     A
C133   C1041   1.415   1_554 S
C134   C135    1.390   .     A
C134   H148    1.080   .     S
C135   H143    1.081   .     S
C135   C1040   1.405   1_554 S
C136   C137    1.403   .     A
C136   C193    1.529   .     S
C137   H145    1.081   .     S
C137   C1047   1.402   .     S
C138   C139    1.422   .     A
C138   C140    1.416   .     A
C138   C1046   1.402   1_554 S
C139   C142    1.429   .     A
C140   C141    1.394   .     A
C140   N154    1.437   .     S
C141   H144    1.084   .     S
C142   C173    1.536   .     S
C149   C251    1.343   .     S
C149   N258    1.446   .     S
H151   C251    1.086   .     S
C152   C456    1.365   .     S
C152   N463    1.445   .     S
C153   C758    1.365   1_545 S
C153   C769    1.535   1_545 S
N154   O155    1.301   .     A
N154   O1065   1.301   1_554 S
O156   N1063   1.301   .     S
N157   O158    1.301   .     A
N157   O159    1.302   .     A
N160   O162    1.302   .     A
N160   C758    1.445   1_545 S
N160   O767    1.301   1_545 S
O161   N463    1.301   .     S
C163   H171    1.112   .     S
C163   H172    1.111   .     S
C163   C456    1.535   .     S
C163   C467    1.542   .     S
C164   H170    1.111   .     S
C164   H169    1.111   .     S
C164   C165    1.527   .     S
C164   C769    1.542   1_545 S
C165   H168    1.110   .     S
C165   H772    1.111   1_545 S
C165   H773    1.111   1_545 S
H166   C468    1.111   .     S
H167   C468    1.111   .     S
C173   H182    1.108   .     S
C173   C174    1.536   .     S
C173   H181    1.101   .     S
C174   C175    1.527   .     S
C174   H179    1.112   .     S
C174   H180    1.111   .     S
C175   H177    1.111   .     S
C175   H176    1.111   .     S
C175   H178    1.111   .     S
C183   H191    1.112   .     S
C183   H1101   1.112   .     S
C184   C185    1.527   .     S
C184   H190    1.112   .     S
C184   C284    1.539   .     S
C184   H290    1.112   .     S
C185   H188    1.111   .     S
C185   H186    1.111   .     S
C185   H1096   1.111   .     S
H187   C1094   1.111   1_554 S
H192   C1092   1.112   1_554 S
C193   H202    1.112   .     S
C193   H201    1.102   .     S
C193   C194    1.536   .     S
C194   C195    1.525   .     S
C194   H200    1.110   .     S
C194   H199    1.112   .     S
C195   H198    1.110   .     S
C195   H197    1.111   .     S
C195   H196    1.110   .     S
Zn203  O207    1.964   .     S
Zn203  O209    1.917   .     S
Zn203  O215    1.908   .     S
Zn203  O216    1.936   .     S
Zn204  O218    1.926   .     S
Zn204  O207    1.933   .     S
Zn204  O212    1.912   .     S
Zn204  O210    1.952   .     S
Zn205  O214    1.916   .     S
Zn205  O211    1.944   .     S
Zn205  O207    1.925   .     S
Zn205  O219    1.937   .     S
Zn206  O208    1.926   .     S
Zn206  O213    1.924   .     S
Zn206  O207    1.932   .     S
Zn206  O217    1.941   .     S
O208   C220    1.270   .     A
O209   C221    1.283   .     A
O210   C222    1.265   .     A
O211   C223    1.275   .     A
O212   C224    1.273   .     A
O213   C225    1.289   .     A
O214   C224    1.273   .     A
O215   C225    1.289   .     A
O216   C222    1.274   .     A
O217   C223    1.259   .     A
O218   C220    1.264   .     A
O219   C221    1.279   .     A
C220   C251    1.436   .     S
C221   C250    1.463   .     S
C222   C254    1.434   .     S
C223   C253    1.463   .     S
C224   C227    1.461   .     S
C225   C226    1.473   .     S
C226   C229    1.401   .     A
C226   C230    1.392   .     A
C227   C242    1.393   .     A
C227   C243    1.412   .     A
C228   C229    1.411   .     A
C228   C284    1.529   .     S
C228   C232    1.426   .     A
C229   H247    1.080   .     S
C230   H248    1.079   .     S
C230   C231    1.398   .     A
C231   C233    1.424   .     A
C231   C232    1.422   .     A
C232   C1145   1.405   .     S
C233   C237    1.430   .     A
C233   C1143   1.415   .     S
C234   C240    1.420   .     A
C234   C235    1.406   .     A
C234   C1142   1.415   1_554 S
C235   C236    1.390   .     A
C235   H249    1.080   .     S
C236   H244    1.081   .     S
C236   C1141   1.405   1_554 S
C237   C238    1.403   .     A
C237   C294    1.529   .     S
C238   H246    1.081   .     S
C238   C1148   1.402   .     S
C239   C240    1.422   .     A
C239   C241    1.416   .     A
C239   C1147   1.402   1_554 S
C240   C243    1.429   .     A
C241   C242    1.394   .     A
C241   N255    1.437   .     S
C242   H245    1.084   .     S
C243   C274    1.536   .     S
C250   C49     1.343   1_655 S
C250   N56     1.446   1_655 S
H252   C49     1.086   1_655 S
C253   C557    1.365   .     S
C253   N564    1.445   .     S
C254   C859    1.365   1_545 S
C254   C870    1.535   1_545 S
N255   O256    1.301   .     A
N255   O1166   1.301   1_554 S
O257   N1164   1.301   .     S
N258   O259    1.301   .     A
N258   O260    1.302   .     A
N261   O263    1.302   .     A
N261   C859    1.445   1_545 S
N261   O868    1.301   1_545 S
O262   N564    1.301   .     S
C264   H272    1.112   .     S
C264   H273    1.111   .     S
C264   C557    1.535   .     S
C264   C568    1.542   .     S
C265   H271    1.111   .     S
C265   H270    1.111   .     S
C265   C266    1.527   .     S
C265   C870    1.542   1_545 S
C266   H269    1.110   .     S
C266   H873    1.111   1_545 S
C266   H874    1.111   1_545 S
H267   C569    1.111   .     S
H268   C569    1.111   .     S
C274   H283    1.108   .     S
C274   C275    1.536   .     S
C274   H282    1.101   .     S
C275   C276    1.527   .     S
C275   H280    1.112   .     S
C275   H281    1.111   .     S
C276   H278    1.111   .     S
C276   H277    1.111   .     S
C276   H279    1.111   .     S
C284   H292    1.112   .     S
C284   H1202   1.112   .     S
C285   C286    1.527   .     S
C285   H291    1.112   .     S
C285   C82     1.539   1_655 S
C285   H88     1.112   1_655 S
C286   H289    1.111   .     S
C286   H287    1.111   .     S
C286   H1197   1.111   .     S
H288   C1195   1.111   1_554 S
H293   C1193   1.112   1_554 S
C294   H303    1.112   .     S
C294   H302    1.102   .     S
C294   C295    1.536   .     S
C295   C296    1.525   .     S
C295   H301    1.110   .     S
C295   H300    1.112   .     S
C296   H299    1.110   .     S
C296   H298    1.111   .     S
C296   H297    1.110   .     S
Zn304  O308    1.964   .     S
Zn304  O310    1.917   .     S
Zn304  O316    1.908   .     S
Zn304  O317    1.936   .     S
Zn305  O319    1.926   .     S
Zn305  O308    1.933   .     S
Zn305  O313    1.912   .     S
Zn305  O311    1.952   .     S
Zn306  O315    1.916   .     S
Zn306  O312    1.944   .     S
Zn306  O308    1.925   .     S
Zn306  O320    1.937   .     S
Zn307  O309    1.926   .     S
Zn307  O314    1.924   .     S
Zn307  O308    1.932   .     S
Zn307  O318    1.941   .     S
O309   C321    1.270   .     A
O310   C322    1.283   .     A
O311   C323    1.265   .     A
O312   C324    1.275   .     A
O313   C325    1.273   .     A
O314   C326    1.289   .     A
O315   C325    1.273   .     A
O316   C326    1.289   .     A
O317   C323    1.274   .     A
O318   C324    1.259   .     A
O319   C321    1.264   .     A
O320   C322    1.279   .     A
C321   C352    1.436   .     S
C322   C351    1.463   .     S
C323   C355    1.434   .     S
C324   C354    1.463   .     S
C325   C328    1.461   .     S
C326   C327    1.473   .     S
C327   C330    1.401   .     A
C327   C331    1.392   .     A
C328   C343    1.393   .     A
C328   C344    1.412   .     A
C329   C330    1.411   .     A
C329   C385    1.529   .     S
C329   C333    1.426   .     A
C330   H348    1.080   .     S
C331   H349    1.079   .     S
C331   C332    1.398   .     A
C332   C334    1.424   .     A
C332   C333    1.422   .     A
C333   C1246   1.405   .     S
C334   C338    1.430   .     A
C334   C1244   1.415   .     S
C335   C341    1.420   .     A
C335   C336    1.406   .     A
C335   C1243   1.415   1_554 S
C336   C337    1.390   .     A
C336   H350    1.080   .     S
C337   H345    1.081   .     S
C337   C1242   1.405   1_554 S
C338   C339    1.403   .     A
C338   C395    1.529   .     S
C339   H347    1.081   .     S
C339   C1249   1.402   .     S
C340   C341    1.422   .     A
C340   C342    1.416   .     A
C340   C1248   1.402   1_554 S
C341   C344    1.429   .     A
C342   C343    1.394   .     A
C342   N356    1.437   .     S
C343   H346    1.084   .     S
C344   C375    1.536   .     S
C351   C453    1.343   .     S
C351   N460    1.446   .     S
C352   C553    1.343   1_455 S
C352   H555    1.086   1_455 S
H353   C453    1.086   .     S
C354   C658    1.365   .     S
C354   N665    1.445   .     S
N356   O357    1.301   .     A
N356   O1267   1.301   1_554 S
O358   N1265   1.301   .     S
N359   O360    1.301   .     A
N359   O361    1.302   .     A
N359   C553    1.446   1_455 S
N362   O364    1.302   .     A
O363   N665    1.301   .     S
C365   H373    1.112   .     S
C365   H374    1.111   .     S
C365   C658    1.535   .     S
C365   C669    1.542   .     S
C366   H372    1.111   .     S
C366   H371    1.111   .     S
C366   C367    1.527   .     S
C367   H370    1.110   .     S
H368   C670    1.111   .     S
H369   C670    1.111   .     S
C375   H384    1.108   .     S
C375   C376    1.536   .     S
C375   H383    1.101   .     S
C376   C377    1.527   .     S
C376   H381    1.112   .     S
C376   H382    1.111   .     S
C377   H379    1.111   .     S
C377   H378    1.111   .     S
C377   H380    1.111   .     S
C385   H393    1.112   .     S
C385   C588    1.539   1_455 S
C385   H1303   1.112   .     S
C386   C387    1.527   .     S
C386   H392    1.112   .     S
C386   C486    1.539   .     S
C386   H492    1.112   .     S
C387   H390    1.111   .     S
C387   H388    1.111   .     S
C387   H1298   1.111   .     S
H389   C1296   1.111   1_554 S
H391   C588    1.112   1_455 S
H394   C1294   1.112   1_554 S
C395   H404    1.112   .     S
C395   H403    1.102   .     S
C395   C396    1.536   .     S
C396   C397    1.525   .     S
C396   H402    1.110   .     S
C396   H401    1.112   .     S
C397   H400    1.110   .     S
C397   H399    1.111   .     S
C397   H398    1.110   .     S
Zn405  O409    1.964   .     S
Zn405  O411    1.917   .     S
Zn405  O417    1.908   .     S
Zn405  O418    1.936   .     S
Zn406  O420    1.926   .     S
Zn406  O409    1.933   .     S
Zn406  O414    1.912   .     S
Zn406  O412    1.952   .     S
Zn407  O416    1.916   .     S
Zn407  O413    1.944   .     S
Zn407  O409    1.925   .     S
Zn407  O421    1.937   .     S
Zn408  O410    1.926   .     S
Zn408  O415    1.924   .     S
Zn408  O409    1.932   .     S
Zn408  O419    1.941   .     S
O410   C422    1.270   .     A
O411   C423    1.283   .     A
O412   C424    1.265   .     A
O413   C425    1.275   .     A
O414   C426    1.273   .     A
O415   C427    1.289   .     A
O416   C426    1.273   .     A
O417   C427    1.289   .     A
O418   C424    1.274   .     A
O419   C425    1.259   .     A
O420   C422    1.264   .     A
O421   C423    1.279   .     A
C422   C453    1.436   .     S
C423   C452    1.463   .     S
C424   C456    1.434   .     S
C425   C455    1.463   .     S
C426   C429    1.461   .     S
C427   C428    1.473   .     S
C428   C431    1.401   .     A
C428   C432    1.392   .     A
C429   C444    1.393   .     A
C429   C445    1.412   .     A
C430   C431    1.411   .     A
C430   C486    1.529   .     S
C430   C434    1.426   .     A
C431   H449    1.080   .     S
C432   H450    1.079   .     S
C432   C433    1.398   .     A
C433   C435    1.424   .     A
C433   C434    1.422   .     A
C434   C1347   1.405   .     S
C435   C439    1.430   .     A
C435   C1345   1.415   .     S
C436   C442    1.420   .     A
C436   C437    1.406   .     A
C436   C1344   1.415   1_554 S
C437   C438    1.390   .     A
C437   H451    1.080   .     S
C438   H446    1.081   .     S
C438   C1343   1.405   1_554 S
C439   C440    1.403   .     A
C439   C496    1.529   .     S
C440   H448    1.081   .     S
C440   C1350   1.402   .     S
C441   C442    1.422   .     A
C441   C443    1.416   .     A
C441   C1349   1.402   1_554 S
C442   C445    1.429   .     A
C443   C444    1.394   .     A
C443   N457    1.437   .     S
C444   H447    1.084   .     S
C445   C476    1.536   .     S
C452   C554    1.343   .     S
C452   N561    1.446   .     S
H454   C554    1.086   .     S
C455   C759    1.365   .     S
C455   N766    1.445   .     S
N457   O458    1.301   .     A
N457   O1368   1.301   1_554 S
O459   N1366   1.301   .     S
N460   O461    1.301   .     A
N460   O462    1.302   .     A
N463   O465    1.302   .     A
O464   N766    1.301   .     S
C466   H474    1.112   .     S
C466   H475    1.111   .     S
C466   C759    1.535   .     S
C466   C770    1.542   .     S
C467   H473    1.111   .     S
C467   H472    1.111   .     S
C467   C468    1.527   .     S
C468   H471    1.110   .     S
H469   C771    1.111   .     S
H470   C771    1.111   .     S
C476   H485    1.108   .     S
C476   C477    1.536   .     S
C476   H484    1.101   .     S
C477   C478    1.527   .     S
C477   H482    1.112   .     S
C477   H483    1.111   .     S
C478   H480    1.111   .     S
C478   H479    1.111   .     S
C478   H481    1.111   .     S
C486   H494    1.112   .     S
C486   H1404   1.112   .     S
C487   C488    1.527   .     S
C487   H493    1.112   .     S
C487   C587    1.539   .     S
C487   H593    1.112   .     S
C488   H491    1.111   .     S
C488   H489    1.111   .     S
C488   H1399   1.111   .     S
H490   C1397   1.111   1_554 S
H495   C1395   1.112   1_554 S
C496   H505    1.112   .     S
C496   H504    1.102   .     S
C496   C497    1.536   .     S
C497   C498    1.525   .     S
C497   H503    1.110   .     S
C497   H502    1.112   .     S
C498   H501    1.110   .     S
C498   H500    1.111   .     S
C498   H499    1.110   .     S
Zn506  O510    1.964   .     S
Zn506  O512    1.917   .     S
Zn506  O518    1.908   .     S
Zn506  O519    1.936   .     S
Zn507  O521    1.926   .     S
Zn507  O510    1.933   .     S
Zn507  O515    1.912   .     S
Zn507  O513    1.952   .     S
Zn508  O517    1.916   .     S
Zn508  O514    1.944   .     S
Zn508  O510    1.925   .     S
Zn508  O522    1.937   .     S
Zn509  O511    1.926   .     S
Zn509  O516    1.924   .     S
Zn509  O510    1.932   .     S
Zn509  O520    1.941   .     S
O511   C523    1.270   .     A
O512   C524    1.283   .     A
O513   C525    1.265   .     A
O514   C526    1.275   .     A
O515   C527    1.273   .     A
O516   C528    1.289   .     A
O517   C527    1.273   .     A
O518   C528    1.289   .     A
O519   C525    1.274   .     A
O520   C526    1.259   .     A
O521   C523    1.264   .     A
O522   C524    1.279   .     A
C523   C554    1.436   .     S
C524   C553    1.463   .     S
C525   C557    1.434   .     S
C526   C556    1.463   .     S
C527   C530    1.461   .     S
C528   C529    1.473   .     S
C529   C532    1.401   .     A
C529   C533    1.392   .     A
C530   C545    1.393   .     A
C530   C546    1.412   .     A
C531   C532    1.411   .     A
C531   C587    1.529   .     S
C531   C535    1.426   .     A
C532   H550    1.080   .     S
C533   H551    1.079   .     S
C533   C534    1.398   .     A
C534   C536    1.424   .     A
C534   C535    1.422   .     A
C535   C1448   1.405   .     S
C536   C540    1.430   .     A
C536   C1446   1.415   .     S
C537   C543    1.420   .     A
C537   C538    1.406   .     A
C537   C1445   1.415   1_554 S
C538   C539    1.390   .     A
C538   H552    1.080   .     S
C539   H547    1.081   .     S
C539   C1444   1.405   1_554 S
C540   C541    1.403   .     A
C540   C597    1.529   .     S
C541   H549    1.081   .     S
C541   C1451   1.402   .     S
C542   C543    1.422   .     A
C542   C544    1.416   .     A
C542   C1450   1.402   1_554 S
C543   C546    1.429   .     A
C544   C545    1.394   .     A
C544   N558    1.437   .     S
C545   H548    1.084   .     S
C546   C577    1.536   .     S
C553   C352    1.343   1_655 S
C553   N359    1.446   1_655 S
H555   C352    1.086   1_655 S
C556   C860    1.365   .     S
C556   N867    1.445   .     S
N558   O559    1.301   .     A
N558   O1469   1.301   1_554 S
O560   N1467   1.301   .     S
N561   O562    1.301   .     A
N561   O563    1.302   .     A
N564   O566    1.302   .     A
O565   N867    1.301   .     S
C567   H575    1.112   .     S
C567   H576    1.111   .     S
C567   C860    1.535   .     S
C567   C871    1.542   .     S
C568   H574    1.111   .     S
C568   H573    1.111   .     S
C568   C569    1.527   .     S
C569   H572    1.110   .     S
H570   C872    1.111   .     S
H571   C872    1.111   .     S
C577   H586    1.108   .     S
C577   C578    1.536   .     S
C577   H585    1.101   .     S
C578   C579    1.527   .     S
C578   H583    1.112   .     S
C578   H584    1.111   .     S
C579   H581    1.111   .     S
C579   H580    1.111   .     S
C579   H582    1.111   .     S
C587   H595    1.112   .     S
C587   H1505   1.112   .     S
C588   C589    1.527   .     S
C588   H594    1.112   .     S
C588   C385    1.539   1_655 S
C588   H391    1.112   1_655 S
C589   H592    1.111   .     S
C589   H590    1.111   .     S
C589   H1500   1.111   .     S
H591   C1498   1.111   1_554 S
H596   C1496   1.112   1_554 S
C597   H606    1.112   .     S
C597   H605    1.102   .     S
C597   C598    1.536   .     S
C598   C599    1.525   .     S
C598   H604    1.110   .     S
C598   H603    1.112   .     S
C599   H602    1.110   .     S
C599   H601    1.111   .     S
C599   H600    1.110   .     S
Zn607  O611    1.964   .     S
Zn607  O613    1.917   .     S
Zn607  O619    1.908   .     S
Zn607  O620    1.936   .     S
Zn608  O622    1.926   .     S
Zn608  O611    1.933   .     S
Zn608  O616    1.912   .     S
Zn608  O614    1.952   .     S
Zn609  O618    1.916   .     S
Zn609  O615    1.944   .     S
Zn609  O611    1.925   .     S
Zn609  O623    1.937   .     S
Zn610  O612    1.926   .     S
Zn610  O617    1.924   .     S
Zn610  O611    1.932   .     S
Zn610  O621    1.941   .     S
O612   C624    1.270   .     A
O613   C625    1.283   .     A
O614   C626    1.265   .     A
O615   C627    1.275   .     A
O616   C628    1.273   .     A
O617   C629    1.289   .     A
O618   C628    1.273   .     A
O619   C629    1.289   .     A
O620   C626    1.274   .     A
O621   C627    1.259   .     A
O622   C624    1.264   .     A
O623   C625    1.279   .     A
C624   C655    1.436   .     S
C625   C654    1.463   .     S
C626   C658    1.434   .     S
C627   C657    1.463   .     S
C628   C631    1.461   .     S
C629   C630    1.473   .     S
C630   C633    1.401   .     A
C630   C634    1.392   .     A
C631   C646    1.393   .     A
C631   C647    1.412   .     A
C632   C633    1.411   .     A
C632   C688    1.529   .     S
C632   C636    1.426   .     A
C633   H651    1.080   .     S
C634   H652    1.079   .     S
C634   C635    1.398   .     A
C635   C637    1.424   .     A
C635   C636    1.422   .     A
C636   C1549   1.405   .     S
C637   C641    1.430   .     A
C637   C1547   1.415   .     S
C638   C644    1.420   .     A
C638   C639    1.406   .     A
C638   C1546   1.415   1_554 S
C639   C640    1.390   .     A
C639   H653    1.080   .     S
C640   H648    1.081   .     S
C640   C1545   1.405   1_554 S
C641   C642    1.403   .     A
C641   C698    1.529   .     S
C642   H650    1.081   .     S
C642   C1552   1.402   .     S
C643   C644    1.422   .     A
C643   C645    1.416   .     A
C643   C1551   1.402   1_554 S
C644   C647    1.429   .     A
C645   C646    1.394   .     A
C645   N659    1.437   .     S
C646   H649    1.084   .     S
C647   C678    1.536   .     S
C654   C756    1.343   .     S
C654   N763    1.446   .     S
C655   C856    1.343   1_455 S
C655   H858    1.086   1_455 S
H656   C756    1.086   .     S
C657   C52     1.365   1_565 S
C657   N59     1.445   1_565 S
N659   O660    1.301   .     A
N659   O1570   1.301   1_554 S
O661   N1568   1.301   .     S
N662   O663    1.301   .     A
N662   O664    1.302   .     A
N662   C856    1.446   1_455 S
N665   O667    1.302   .     A
O666   N59     1.301   1_565 S
C668   H676    1.112   .     S
C668   H677    1.111   .     S
C668   C52     1.535   1_565 S
C668   C63     1.542   1_565 S
C669   H675    1.111   .     S
C669   H674    1.111   .     S
C669   C670    1.527   .     S
C670   H673    1.110   .     S
H671   C64     1.111   1_565 S
H672   C64     1.111   1_565 S
C678   H687    1.108   .     S
C678   C679    1.536   .     S
C678   H686    1.101   .     S
C679   C680    1.527   .     S
C679   H684    1.112   .     S
C679   H685    1.111   .     S
C680   H682    1.111   .     S
C680   H681    1.111   .     S
C680   H683    1.111   .     S
C688   H696    1.112   .     S
C688   C891    1.539   1_455 S
C688   H1606   1.112   .     S
C689   C690    1.527   .     S
C689   H695    1.112   .     S
C689   C789    1.539   .     S
C689   H795    1.112   .     S
C690   H693    1.111   .     S
C690   H691    1.111   .     S
C690   H1601   1.111   .     S
H692   C1599   1.111   1_554 S
H694   C891    1.112   1_455 S
H697   C1597   1.112   1_554 S
C698   H707    1.112   .     S
C698   H706    1.102   .     S
C698   C699    1.536   .     S
C699   C700    1.525   .     S
C699   H705    1.110   .     S
C699   H704    1.112   .     S
C700   H703    1.110   .     S
C700   H702    1.111   .     S
C700   H701    1.110   .     S
Zn708  O712    1.964   .     S
Zn708  O714    1.917   .     S
Zn708  O720    1.908   .     S
Zn708  O721    1.936   .     S
Zn709  O723    1.926   .     S
Zn709  O712    1.933   .     S
Zn709  O717    1.912   .     S
Zn709  O715    1.952   .     S
Zn710  O719    1.916   .     S
Zn710  O716    1.944   .     S
Zn710  O712    1.925   .     S
Zn710  O724    1.937   .     S
Zn711  O713    1.926   .     S
Zn711  O718    1.924   .     S
Zn711  O712    1.932   .     S
Zn711  O722    1.941   .     S
O713   C725    1.270   .     A
O714   C726    1.283   .     A
O715   C727    1.265   .     A
O716   C728    1.275   .     A
O717   C729    1.273   .     A
O718   C730    1.289   .     A
O719   C729    1.273   .     A
O720   C730    1.289   .     A
O721   C727    1.274   .     A
O722   C728    1.259   .     A
O723   C725    1.264   .     A
O724   C726    1.279   .     A
C725   C756    1.436   .     S
C726   C755    1.463   .     S
C727   C759    1.434   .     S
C728   C758    1.463   .     S
C729   C732    1.461   .     S
C730   C731    1.473   .     S
C731   C734    1.401   .     A
C731   C735    1.392   .     A
C732   C747    1.393   .     A
C732   C748    1.412   .     A
C733   C734    1.411   .     A
C733   C789    1.529   .     S
C733   C737    1.426   .     A
C734   H752    1.080   .     S
C735   H753    1.079   .     S
C735   C736    1.398   .     A
C736   C738    1.424   .     A
C736   C737    1.422   .     A
C737   C1650   1.405   .     S
C738   C742    1.430   .     A
C738   C1648   1.415   .     S
C739   C745    1.420   .     A
C739   C740    1.406   .     A
C739   C1647   1.415   1_554 S
C740   C741    1.390   .     A
C740   H754    1.080   .     S
C741   H749    1.081   .     S
C741   C1646   1.405   1_554 S
C742   C743    1.403   .     A
C742   C799    1.529   .     S
C743   H751    1.081   .     S
C743   C1653   1.402   .     S
C744   C745    1.422   .     A
C744   C746    1.416   .     A
C744   C1652   1.402   1_554 S
C745   C748    1.429   .     A
C746   C747    1.394   .     A
C746   N760    1.437   .     S
C747   H750    1.084   .     S
C748   C779    1.536   .     S
C755   C857    1.343   .     S
C755   N864    1.446   .     S
H757   C857    1.086   .     S
C758   C153    1.365   1_565 S
C758   N160    1.445   1_565 S
N760   O761    1.301   .     A
N760   O1671   1.301   1_554 S
O762   N1669   1.301   .     S
N763   O764    1.301   .     A
N763   O765    1.302   .     A
N766   O768    1.302   .     A
O767   N160    1.301   1_565 S
C769   H777    1.112   .     S
C769   H778    1.111   .     S
C769   C153    1.535   1_565 S
C769   C164    1.542   1_565 S
C770   H776    1.111   .     S
C770   H775    1.111   .     S
C770   C771    1.527   .     S
C771   H774    1.110   .     S
H772   C165    1.111   1_565 S
H773   C165    1.111   1_565 S
C779   H788    1.108   .     S
C779   C780    1.536   .     S
C779   H787    1.101   .     S
C780   C781    1.527   .     S
C780   H785    1.112   .     S
C780   H786    1.111   .     S
C781   H783    1.111   .     S
C781   H782    1.111   .     S
C781   H784    1.111   .     S
C789   H797    1.112   .     S
C789   H1707   1.112   .     S
C790   C791    1.527   .     S
C790   H796    1.112   .     S
C790   C890    1.539   .     S
C790   H896    1.112   .     S
C791   H794    1.111   .     S
C791   H792    1.111   .     S
C791   H1702   1.111   .     S
H793   C1700   1.111   1_554 S
H798   C1698   1.112   1_554 S
C799   H808    1.112   .     S
C799   H807    1.102   .     S
C799   C800    1.536   .     S
C800   C801    1.525   .     S
C800   H806    1.110   .     S
C800   H805    1.112   .     S
C801   H804    1.110   .     S
C801   H803    1.111   .     S
C801   H802    1.110   .     S
Zn809  O813    1.964   .     S
Zn809  O815    1.917   .     S
Zn809  O821    1.908   .     S
Zn809  O822    1.936   .     S
Zn810  O824    1.926   .     S
Zn810  O813    1.933   .     S
Zn810  O818    1.912   .     S
Zn810  O816    1.952   .     S
Zn811  O820    1.916   .     S
Zn811  O817    1.944   .     S
Zn811  O813    1.925   .     S
Zn811  O825    1.937   .     S
Zn812  O814    1.926   .     S
Zn812  O819    1.924   .     S
Zn812  O813    1.932   .     S
Zn812  O823    1.941   .     S
O814   C826    1.270   .     A
O815   C827    1.283   .     A
O816   C828    1.265   .     A
O817   C829    1.275   .     A
O818   C830    1.273   .     A
O819   C831    1.289   .     A
O820   C830    1.273   .     A
O821   C831    1.289   .     A
O822   C828    1.274   .     A
O823   C829    1.259   .     A
O824   C826    1.264   .     A
O825   C827    1.279   .     A
C826   C857    1.436   .     S
C827   C856    1.463   .     S
C828   C860    1.434   .     S
C829   C859    1.463   .     S
C830   C833    1.461   .     S
C831   C832    1.473   .     S
C832   C835    1.401   .     A
C832   C836    1.392   .     A
C833   C848    1.393   .     A
C833   C849    1.412   .     A
C834   C835    1.411   .     A
C834   C890    1.529   .     S
C834   C838    1.426   .     A
C835   H853    1.080   .     S
C836   H854    1.079   .     S
C836   C837    1.398   .     A
C837   C839    1.424   .     A
C837   C838    1.422   .     A
C838   C1751   1.405   .     S
C839   C843    1.430   .     A
C839   C1749   1.415   .     S
C840   C846    1.420   .     A
C840   C841    1.406   .     A
C840   C1748   1.415   1_554 S
C841   C842    1.390   .     A
C841   H855    1.080   .     S
C842   H850    1.081   .     S
C842   C1747   1.405   1_554 S
C843   C844    1.403   .     A
C843   C900    1.529   .     S
C844   H852    1.081   .     S
C844   C1754   1.402   .     S
C845   C846    1.422   .     A
C845   C847    1.416   .     A
C845   C1753   1.402   1_554 S
C846   C849    1.429   .     A
C847   C848    1.394   .     A
C847   N861    1.437   .     S
C848   H851    1.084   .     S
C849   C880    1.536   .     S
C856   C655    1.343   1_655 S
C856   N662    1.446   1_655 S
H858   C655    1.086   1_655 S
C859   C254    1.365   1_565 S
C859   N261    1.445   1_565 S
N861   O862    1.301   .     A
N861   O1772   1.301   1_554 S
O863   N1770   1.301   .     S
N864   O865    1.301   .     A
N864   O866    1.302   .     A
N867   O869    1.302   .     A
O868   N261    1.301   1_565 S
C870   H878    1.112   .     S
C870   H879    1.111   .     S
C870   C254    1.535   1_565 S
C870   C265    1.542   1_565 S
C871   H877    1.111   .     S
C871   H876    1.111   .     S
C871   C872    1.527   .     S
C872   H875    1.110   .     S
H873   C266    1.111   1_565 S
H874   C266    1.111   1_565 S
C880   H889    1.108   .     S
C880   C881    1.536   .     S
C880   H888    1.101   .     S
C881   C882    1.527   .     S
C881   H886    1.112   .     S
C881   H887    1.111   .     S
C882   H884    1.111   .     S
C882   H883    1.111   .     S
C882   H885    1.111   .     S
C890   H898    1.112   .     S
C890   H1808   1.112   .     S
C891   C892    1.527   .     S
C891   H897    1.112   .     S
C891   C688    1.539   1_655 S
C891   H694    1.112   1_655 S
C892   H895    1.111   .     S
C892   H893    1.111   .     S
C892   H1803   1.111   .     S
H894   C1801   1.111   1_554 S
H899   C1799   1.112   1_554 S
C900   H909    1.112   .     S
C900   H908    1.102   .     S
C900   C901    1.536   .     S
C901   C902    1.525   .     S
C901   H907    1.110   .     S
C901   H906    1.112   .     S
C902   H905    1.110   .     S
C902   H904    1.111   .     S
C902   H903    1.110   .     S
Zn910  O914    1.964   .     S
Zn910  O916    1.917   .     S
Zn910  O922    1.908   .     S
Zn910  O923    1.936   .     S
Zn911  O925    1.926   .     S
Zn911  O914    1.933   .     S
Zn911  O919    1.912   .     S
Zn911  O917    1.952   .     S
Zn912  O921    1.916   .     S
Zn912  O918    1.944   .     S
Zn912  O914    1.925   .     S
Zn912  O926    1.937   .     S
Zn913  O915    1.926   .     S
Zn913  O920    1.924   .     S
Zn913  O914    1.932   .     S
Zn913  O924    1.941   .     S
O915   C927    1.270   .     A
O916   C928    1.283   .     A
O917   C929    1.265   .     A
O918   C930    1.275   .     A
O919   C931    1.273   .     A
O920   C932    1.289   .     A
O921   C931    1.273   .     A
O922   C932    1.289   .     A
O923   C929    1.274   .     A
O924   C930    1.259   .     A
O925   C927    1.264   .     A
O926   C928    1.279   .     A
C927   C958    1.436   .     S
C928   C957    1.463   .     S
C929   C961    1.434   .     S
C930   C960    1.463   .     S
C931   C934    1.461   .     S
C932   C933    1.473   .     S
C933   C936    1.401   .     A
C933   C937    1.392   .     A
C934   C949    1.393   .     A
C934   C950    1.412   .     A
C935   C936    1.411   .     A
C935   C991    1.529   .     S
C935   C939    1.426   .     A
C936   H954    1.080   .     S
C937   H955    1.079   .     S
C937   C938    1.398   .     A
C938   C940    1.424   .     A
C938   C939    1.422   .     A
C939   C34     1.405   1_556 S
C940   C944    1.430   .     A
C940   C32     1.415   1_556 S
C941   C947    1.420   .     A
C941   C942    1.406   .     A
C942   C943    1.390   .     A
C942   H956    1.080   .     S
C943   H951    1.081   .     S
C944   C945    1.403   .     A
C944   C1001   1.529   .     S
C945   H953    1.081   .     S
C945   C37     1.402   1_556 S
C946   C947    1.422   .     A
C946   C948    1.416   .     A
C947   C950    1.429   .     A
C948   C949    1.394   .     A
C948   N962    1.437   .     S
C949   H952    1.084   .     S
C950   C981    1.536   .     S
C957   C1059   1.343   .     S
C957   N1066   1.446   .     S
C958   C1159   1.343   1_455 S
C958   H1161   1.086   1_455 S
H959   C1059   1.086   .     S
C960   C1264   1.365   .     S
C960   N1271   1.445   .     S
C961   C1566   1.365   1_545 S
C961   C1577   1.535   1_545 S
N962   O963    1.301   .     A
O964   N53     1.301   1_556 S
N965   O966    1.301   .     A
N965   O967    1.302   .     A
N965   C1159   1.446   1_455 S
N968   O970    1.302   .     A
N968   C1566   1.445   1_545 S
N968   O1575   1.301   1_545 S
O969   N1271   1.301   .     S
C971   H979    1.112   .     S
C971   H980    1.111   .     S
C971   C1264   1.535   .     S
C971   C1275   1.542   .     S
C972   H978    1.111   .     S
C972   H977    1.111   .     S
C972   C973    1.527   .     S
C972   C1577   1.542   1_545 S
C973   H976    1.110   .     S
C973   H1580   1.111   1_545 S
C973   H1581   1.111   1_545 S
H974   C1276   1.111   .     S
H975   C1276   1.111   .     S
C981   H990    1.108   .     S
C981   C982    1.536   .     S
C981   H989    1.101   .     S
C982   C983    1.527   .     S
C982   H987    1.112   .     S
C982   H988    1.111   .     S
C983   H985    1.111   .     S
C983   H984    1.111   .     S
C983   H986    1.111   .     S
C991   H999    1.112   .     S
C991   C1194   1.539   1_455 S
C991   H91     1.112   1_556 S
C992   C993    1.527   .     S
C992   H998    1.112   .     S
C992   C1092   1.539   .     S
C992   H1098   1.112   .     S
C993   H996    1.111   .     S
C993   H994    1.111   .     S
C993   H86     1.111   1_556 S
H997   C1194   1.112   1_455 S
C1001  H1010   1.112   .     S
C1001  H1009   1.102   .     S
C1001  C1002   1.536   .     S
C1002  C1003   1.525   .     S
C1002  H1008   1.110   .     S
C1002  H1007   1.112   .     S
C1003  H1006   1.110   .     S
C1003  H1005   1.111   .     S
C1003  H1004   1.110   .     S
Zn1011 O1015   1.964   .     S
Zn1011 O1017   1.917   .     S
Zn1011 O1023   1.908   .     S
Zn1011 O1024   1.936   .     S
Zn1012 O1026   1.926   .     S
Zn1012 O1015   1.933   .     S
Zn1012 O1020   1.912   .     S
Zn1012 O1018   1.952   .     S
Zn1013 O1022   1.916   .     S
Zn1013 O1019   1.944   .     S
Zn1013 O1015   1.925   .     S
Zn1013 O1027   1.937   .     S
Zn1014 O1016   1.926   .     S
Zn1014 O1021   1.924   .     S
Zn1014 O1015   1.932   .     S
Zn1014 O1025   1.941   .     S
O1016  C1028   1.270   .     A
O1017  C1029   1.283   .     A
O1018  C1030   1.265   .     A
O1019  C1031   1.275   .     A
O1020  C1032   1.273   .     A
O1021  C1033   1.289   .     A
O1022  C1032   1.273   .     A
O1023  C1033   1.289   .     A
O1024  C1030   1.274   .     A
O1025  C1031   1.259   .     A
O1026  C1028   1.264   .     A
O1027  C1029   1.279   .     A
C1028  C1059   1.436   .     S
C1029  C1058   1.463   .     S
C1030  C1062   1.434   .     S
C1031  C1061   1.463   .     S
C1032  C1035   1.461   .     S
C1033  C1034   1.473   .     S
C1034  C1037   1.401   .     A
C1034  C1038   1.392   .     A
C1035  C1050   1.393   .     A
C1035  C1051   1.412   .     A
C1036  C1037   1.411   .     A
C1036  C1092   1.529   .     S
C1036  C1040   1.426   .     A
C1037  H1055   1.080   .     S
C1038  H1056   1.079   .     S
C1038  C1039   1.398   .     A
C1039  C1041   1.424   .     A
C1039  C1040   1.422   .     A
C1040  C135    1.405   1_556 S
C1041  C1045   1.430   .     A
C1041  C133    1.415   1_556 S
C1042  C1048   1.420   .     A
C1042  C1043   1.406   .     A
C1043  C1044   1.390   .     A
C1043  H1057   1.080   .     S
C1044  H1052   1.081   .     S
C1045  C1046   1.403   .     A
C1045  C1102   1.529   .     S
C1046  H1054   1.081   .     S
C1046  C138    1.402   1_556 S
C1047  C1048   1.422   .     A
C1047  C1049   1.416   .     A
C1048  C1051   1.429   .     A
C1049  C1050   1.394   .     A
C1049  N1063   1.437   .     S
C1050  H1053   1.084   .     S
C1051  C1082   1.536   .     S
C1058  C1160   1.343   .     S
C1058  N1167   1.446   .     S
H1060  C1160   1.086   .     S
C1061  C1365   1.365   .     S
C1061  N1372   1.445   .     S
C1062  C1667   1.365   1_545 S
C1062  C1678   1.535   1_545 S
N1063  O1064   1.301   .     A
O1065  N154    1.301   1_556 S
N1066  O1067   1.301   .     A
N1066  O1068   1.302   .     A
N1069  O1071   1.302   .     A
N1069  C1667   1.445   1_545 S
N1069  O1676   1.301   1_545 S
O1070  N1372   1.301   .     S
C1072  H1080   1.112   .     S
C1072  H1081   1.111   .     S
C1072  C1365   1.535   .     S
C1072  C1376   1.542   .     S
C1073  H1079   1.111   .     S
C1073  H1078   1.111   .     S
C1073  C1074   1.527   .     S
C1073  C1678   1.542   1_545 S
C1074  H1077   1.110   .     S
C1074  H1681   1.111   1_545 S
C1074  H1682   1.111   1_545 S
H1075  C1377   1.111   .     S
H1076  C1377   1.111   .     S
C1082  H1091   1.108   .     S
C1082  C1083   1.536   .     S
C1082  H1090   1.101   .     S
C1083  C1084   1.527   .     S
C1083  H1088   1.112   .     S
C1083  H1089   1.111   .     S
C1084  H1086   1.111   .     S
C1084  H1085   1.111   .     S
C1084  H1087   1.111   .     S
C1092  H1100   1.112   .     S
C1092  H192    1.112   1_556 S
C1093  C1094   1.527   .     S
C1093  H1099   1.112   .     S
C1093  C1193   1.539   .     S
C1093  H1199   1.112   .     S
C1094  H1097   1.111   .     S
C1094  H1095   1.111   .     S
C1094  H187    1.111   1_556 S
C1102  H1111   1.112   .     S
C1102  H1110   1.102   .     S
C1102  C1103   1.536   .     S
C1103  C1104   1.525   .     S
C1103  H1109   1.110   .     S
C1103  H1108   1.112   .     S
C1104  H1107   1.110   .     S
C1104  H1106   1.111   .     S
C1104  H1105   1.110   .     S
Zn1112 O1116   1.964   .     S
Zn1112 O1118   1.917   .     S
Zn1112 O1124   1.908   .     S
Zn1112 O1125   1.936   .     S
Zn1113 O1127   1.926   .     S
Zn1113 O1116   1.933   .     S
Zn1113 O1121   1.912   .     S
Zn1113 O1119   1.952   .     S
Zn1114 O1123   1.916   .     S
Zn1114 O1120   1.944   .     S
Zn1114 O1116   1.925   .     S
Zn1114 O1128   1.937   .     S
Zn1115 O1117   1.926   .     S
Zn1115 O1122   1.924   .     S
Zn1115 O1116   1.932   .     S
Zn1115 O1126   1.941   .     S
O1117  C1129   1.270   .     A
O1118  C1130   1.283   .     A
O1119  C1131   1.265   .     A
O1120  C1132   1.275   .     A
O1121  C1133   1.273   .     A
O1122  C1134   1.289   .     A
O1123  C1133   1.273   .     A
O1124  C1134   1.289   .     A
O1125  C1131   1.274   .     A
O1126  C1132   1.259   .     A
O1127  C1129   1.264   .     A
O1128  C1130   1.279   .     A
C1129  C1160   1.436   .     S
C1130  C1159   1.463   .     S
C1131  C1163   1.434   .     S
C1132  C1162   1.463   .     S
C1133  C1136   1.461   .     S
C1134  C1135   1.473   .     S
C1135  C1138   1.401   .     A
C1135  C1139   1.392   .     A
C1136  C1151   1.393   .     A
C1136  C1152   1.412   .     A
C1137  C1138   1.411   .     A
C1137  C1193   1.529   .     S
C1137  C1141   1.426   .     A
C1138  H1156   1.080   .     S
C1139  H1157   1.079   .     S
C1139  C1140   1.398   .     A
C1140  C1142   1.424   .     A
C1140  C1141   1.422   .     A
C1141  C236    1.405   1_556 S
C1142  C1146   1.430   .     A
C1142  C234    1.415   1_556 S
C1143  C1149   1.420   .     A
C1143  C1144   1.406   .     A
C1144  C1145   1.390   .     A
C1144  H1158   1.080   .     S
C1145  H1153   1.081   .     S
C1146  C1147   1.403   .     A
C1146  C1203   1.529   .     S
C1147  H1155   1.081   .     S
C1147  C239    1.402   1_556 S
C1148  C1149   1.422   .     A
C1148  C1150   1.416   .     A
C1149  C1152   1.429   .     A
C1150  C1151   1.394   .     A
C1150  N1164   1.437   .     S
C1151  H1154   1.084   .     S
C1152  C1183   1.536   .     S
C1159  C958    1.343   1_655 S
C1159  N965    1.446   1_655 S
H1161  C958    1.086   1_655 S
C1162  C1466   1.365   .     S
C1162  N1473   1.445   .     S
C1163  C1768   1.365   1_545 S
C1163  C1779   1.535   1_545 S
N1164  O1165   1.301   .     A
O1166  N255    1.301   1_556 S
N1167  O1168   1.301   .     A
N1167  O1169   1.302   .     A
N1170  O1172   1.302   .     A
N1170  C1768   1.445   1_545 S
N1170  O1777   1.301   1_545 S
O1171  N1473   1.301   .     S
C1173  H1181   1.112   .     S
C1173  H1182   1.111   .     S
C1173  C1466   1.535   .     S
C1173  C1477   1.542   .     S
C1174  H1180   1.111   .     S
C1174  H1179   1.111   .     S
C1174  C1175   1.527   .     S
C1174  C1779   1.542   1_545 S
C1175  H1178   1.110   .     S
C1175  H1782   1.111   1_545 S
C1175  H1783   1.111   1_545 S
H1176  C1478   1.111   .     S
H1177  C1478   1.111   .     S
C1183  H1192   1.108   .     S
C1183  C1184   1.536   .     S
C1183  H1191   1.101   .     S
C1184  C1185   1.527   .     S
C1184  H1189   1.112   .     S
C1184  H1190   1.111   .     S
C1185  H1187   1.111   .     S
C1185  H1186   1.111   .     S
C1185  H1188   1.111   .     S
C1193  H1201   1.112   .     S
C1193  H293    1.112   1_556 S
C1194  C1195   1.527   .     S
C1194  H1200   1.112   .     S
C1194  C991    1.539   1_655 S
C1194  H997    1.112   1_655 S
C1195  H1198   1.111   .     S
C1195  H1196   1.111   .     S
C1195  H288    1.111   1_556 S
C1203  H1212   1.112   .     S
C1203  H1211   1.102   .     S
C1203  C1204   1.536   .     S
C1204  C1205   1.525   .     S
C1204  H1210   1.110   .     S
C1204  H1209   1.112   .     S
C1205  H1208   1.110   .     S
C1205  H1207   1.111   .     S
C1205  H1206   1.110   .     S
Zn1213 O1217   1.964   .     S
Zn1213 O1219   1.917   .     S
Zn1213 O1225   1.908   .     S
Zn1213 O1226   1.936   .     S
Zn1214 O1228   1.926   .     S
Zn1214 O1217   1.933   .     S
Zn1214 O1222   1.912   .     S
Zn1214 O1220   1.952   .     S
Zn1215 O1224   1.916   .     S
Zn1215 O1221   1.944   .     S
Zn1215 O1217   1.925   .     S
Zn1215 O1229   1.937   .     S
Zn1216 O1218   1.926   .     S
Zn1216 O1223   1.924   .     S
Zn1216 O1217   1.932   .     S
Zn1216 O1227   1.941   .     S
O1218  C1230   1.270   .     A
O1219  C1231   1.283   .     A
O1220  C1232   1.265   .     A
O1221  C1233   1.275   .     A
O1222  C1234   1.273   .     A
O1223  C1235   1.289   .     A
O1224  C1234   1.273   .     A
O1225  C1235   1.289   .     A
O1226  C1232   1.274   .     A
O1227  C1233   1.259   .     A
O1228  C1230   1.264   .     A
O1229  C1231   1.279   .     A
C1230  C1261   1.436   .     S
C1231  C1260   1.463   .     S
C1232  C1264   1.434   .     S
C1233  C1263   1.463   .     S
C1234  C1237   1.461   .     S
C1235  C1236   1.473   .     S
C1236  C1239   1.401   .     A
C1236  C1240   1.392   .     A
C1237  C1252   1.393   .     A
C1237  C1253   1.412   .     A
C1238  C1239   1.411   .     A
C1238  C1294   1.529   .     S
C1238  C1242   1.426   .     A
C1239  H1257   1.080   .     S
C1240  H1258   1.079   .     S
C1240  C1241   1.398   .     A
C1241  C1243   1.424   .     A
C1241  C1242   1.422   .     A
C1242  C337    1.405   1_556 S
C1243  C1247   1.430   .     A
C1243  C335    1.415   1_556 S
C1244  C1250   1.420   .     A
C1244  C1245   1.406   .     A
C1245  C1246   1.390   .     A
C1245  H1259   1.080   .     S
C1246  H1254   1.081   .     S
C1247  C1248   1.403   .     A
C1247  C1304   1.529   .     S
C1248  H1256   1.081   .     S
C1248  C340    1.402   1_556 S
C1249  C1250   1.422   .     A
C1249  C1251   1.416   .     A
C1250  C1253   1.429   .     A
C1251  C1252   1.394   .     A
C1251  N1265   1.437   .     S
C1252  H1255   1.084   .     S
C1253  C1284   1.536   .     S
C1260  C1362   1.343   .     S
C1260  N1369   1.446   .     S
C1261  C1462   1.343   1_455 S
C1261  H1464   1.086   1_455 S
H1262  C1362   1.086   .     S
C1263  C1567   1.365   .     S
C1263  N1574   1.445   .     S
N1265  O1266   1.301   .     A
O1267  N356    1.301   1_556 S
N1268  O1269   1.301   .     A
N1268  O1270   1.302   .     A
N1268  C1462   1.446   1_455 S
N1271  O1273   1.302   .     A
O1272  N1574   1.301   .     S
C1274  H1282   1.112   .     S
C1274  H1283   1.111   .     S
C1274  C1567   1.535   .     S
C1274  C1578   1.542   .     S
C1275  H1281   1.111   .     S
C1275  H1280   1.111   .     S
C1275  C1276   1.527   .     S
C1276  H1279   1.110   .     S
H1277  C1579   1.111   .     S
H1278  C1579   1.111   .     S
C1284  H1293   1.108   .     S
C1284  C1285   1.536   .     S
C1284  H1292   1.101   .     S
C1285  C1286   1.527   .     S
C1285  H1290   1.112   .     S
C1285  H1291   1.111   .     S
C1286  H1288   1.111   .     S
C1286  H1287   1.111   .     S
C1286  H1289   1.111   .     S
C1294  H1302   1.112   .     S
C1294  C1497   1.539   1_455 S
C1294  H394    1.112   1_556 S
C1295  C1296   1.527   .     S
C1295  H1301   1.112   .     S
C1295  C1395   1.539   .     S
C1295  H1401   1.112   .     S
C1296  H1299   1.111   .     S
C1296  H1297   1.111   .     S
C1296  H389    1.111   1_556 S
H1300  C1497   1.112   1_455 S
C1304  H1313   1.112   .     S
C1304  H1312   1.102   .     S
C1304  C1305   1.536   .     S
C1305  C1306   1.525   .     S
C1305  H1311   1.110   .     S
C1305  H1310   1.112   .     S
C1306  H1309   1.110   .     S
C1306  H1308   1.111   .     S
C1306  H1307   1.110   .     S
Zn1314 O1318   1.964   .     S
Zn1314 O1320   1.917   .     S
Zn1314 O1326   1.908   .     S
Zn1314 O1327   1.936   .     S
Zn1315 O1329   1.926   .     S
Zn1315 O1318   1.933   .     S
Zn1315 O1323   1.912   .     S
Zn1315 O1321   1.952   .     S
Zn1316 O1325   1.916   .     S
Zn1316 O1322   1.944   .     S
Zn1316 O1318   1.925   .     S
Zn1316 O1330   1.937   .     S
Zn1317 O1319   1.926   .     S
Zn1317 O1324   1.924   .     S
Zn1317 O1318   1.932   .     S
Zn1317 O1328   1.941   .     S
O1319  C1331   1.270   .     A
O1320  C1332   1.283   .     A
O1321  C1333   1.265   .     A
O1322  C1334   1.275   .     A
O1323  C1335   1.273   .     A
O1324  C1336   1.289   .     A
O1325  C1335   1.273   .     A
O1326  C1336   1.289   .     A
O1327  C1333   1.274   .     A
O1328  C1334   1.259   .     A
O1329  C1331   1.264   .     A
O1330  C1332   1.279   .     A
C1331  C1362   1.436   .     S
C1332  C1361   1.463   .     S
C1333  C1365   1.434   .     S
C1334  C1364   1.463   .     S
C1335  C1338   1.461   .     S
C1336  C1337   1.473   .     S
C1337  C1340   1.401   .     A
C1337  C1341   1.392   .     A
C1338  C1353   1.393   .     A
C1338  C1354   1.412   .     A
C1339  C1340   1.411   .     A
C1339  C1395   1.529   .     S
C1339  C1343   1.426   .     A
C1340  H1358   1.080   .     S
C1341  H1359   1.079   .     S
C1341  C1342   1.398   .     A
C1342  C1344   1.424   .     A
C1342  C1343   1.422   .     A
C1343  C438    1.405   1_556 S
C1344  C1348   1.430   .     A
C1344  C436    1.415   1_556 S
C1345  C1351   1.420   .     A
C1345  C1346   1.406   .     A
C1346  C1347   1.390   .     A
C1346  H1360   1.080   .     S
C1347  H1355   1.081   .     S
C1348  C1349   1.403   .     A
C1348  C1405   1.529   .     S
C1349  H1357   1.081   .     S
C1349  C441    1.402   1_556 S
C1350  C1351   1.422   .     A
C1350  C1352   1.416   .     A
C1351  C1354   1.429   .     A
C1352  C1353   1.394   .     A
C1352  N1366   1.437   .     S
C1353  H1356   1.084   .     S
C1354  C1385   1.536   .     S
C1361  C1463   1.343   .     S
C1361  N1470   1.446   .     S
H1363  C1463   1.086   .     S
C1364  C1668   1.365   .     S
C1364  N1675   1.445   .     S
N1366  O1367   1.301   .     A
O1368  N457    1.301   1_556 S
N1369  O1370   1.301   .     A
N1369  O1371   1.302   .     A
N1372  O1374   1.302   .     A
O1373  N1675   1.301   .     S
C1375  H1383   1.112   .     S
C1375  H1384   1.111   .     S
C1375  C1668   1.535   .     S
C1375  C1679   1.542   .     S
C1376  H1382   1.111   .     S
C1376  H1381   1.111   .     S
C1376  C1377   1.527   .     S
C1377  H1380   1.110   .     S
H1378  C1680   1.111   .     S
H1379  C1680   1.111   .     S
C1385  H1394   1.108   .     S
C1385  C1386   1.536   .     S
C1385  H1393   1.101   .     S
C1386  C1387   1.527   .     S
C1386  H1391   1.112   .     S
C1386  H1392   1.111   .     S
C1387  H1389   1.111   .     S
C1387  H1388   1.111   .     S
C1387  H1390   1.111   .     S
C1395  H1403   1.112   .     S
C1395  H495    1.112   1_556 S
C1396  C1397   1.527   .     S
C1396  H1402   1.112   .     S
C1396  C1496   1.539   .     S
C1396  H1502   1.112   .     S
C1397  H1400   1.111   .     S
C1397  H1398   1.111   .     S
C1397  H490    1.111   1_556 S
C1405  H1414   1.112   .     S
C1405  H1413   1.102   .     S
C1405  C1406   1.536   .     S
C1406  C1407   1.525   .     S
C1406  H1412   1.110   .     S
C1406  H1411   1.112   .     S
C1407  H1410   1.110   .     S
C1407  H1409   1.111   .     S
C1407  H1408   1.110   .     S
Zn1415 O1419   1.964   .     S
Zn1415 O1421   1.917   .     S
Zn1415 O1427   1.908   .     S
Zn1415 O1428   1.936   .     S
Zn1416 O1430   1.926   .     S
Zn1416 O1419   1.933   .     S
Zn1416 O1424   1.912   .     S
Zn1416 O1422   1.952   .     S
Zn1417 O1426   1.916   .     S
Zn1417 O1423   1.944   .     S
Zn1417 O1419   1.925   .     S
Zn1417 O1431   1.937   .     S
Zn1418 O1420   1.926   .     S
Zn1418 O1425   1.924   .     S
Zn1418 O1419   1.932   .     S
Zn1418 O1429   1.941   .     S
O1420  C1432   1.270   .     A
O1421  C1433   1.283   .     A
O1422  C1434   1.265   .     A
O1423  C1435   1.275   .     A
O1424  C1436   1.273   .     A
O1425  C1437   1.289   .     A
O1426  C1436   1.273   .     A
O1427  C1437   1.289   .     A
O1428  C1434   1.274   .     A
O1429  C1435   1.259   .     A
O1430  C1432   1.264   .     A
O1431  C1433   1.279   .     A
C1432  C1463   1.436   .     S
C1433  C1462   1.463   .     S
C1434  C1466   1.434   .     S
C1435  C1465   1.463   .     S
C1436  C1439   1.461   .     S
C1437  C1438   1.473   .     S
C1438  C1441   1.401   .     A
C1438  C1442   1.392   .     A
C1439  C1454   1.393   .     A
C1439  C1455   1.412   .     A
C1440  C1441   1.411   .     A
C1440  C1496   1.529   .     S
C1440  C1444   1.426   .     A
C1441  H1459   1.080   .     S
C1442  H1460   1.079   .     S
C1442  C1443   1.398   .     A
C1443  C1445   1.424   .     A
C1443  C1444   1.422   .     A
C1444  C539    1.405   1_556 S
C1445  C1449   1.430   .     A
C1445  C537    1.415   1_556 S
C1446  C1452   1.420   .     A
C1446  C1447   1.406   .     A
C1447  C1448   1.390   .     A
C1447  H1461   1.080   .     S
C1448  H1456   1.081   .     S
C1449  C1450   1.403   .     A
C1449  C1506   1.529   .     S
C1450  H1458   1.081   .     S
C1450  C542    1.402   1_556 S
C1451  C1452   1.422   .     A
C1451  C1453   1.416   .     A
C1452  C1455   1.429   .     A
C1453  C1454   1.394   .     A
C1453  N1467   1.437   .     S
C1454  H1457   1.084   .     S
C1455  C1486   1.536   .     S
C1462  C1261   1.343   1_655 S
C1462  N1268   1.446   1_655 S
H1464  C1261   1.086   1_655 S
C1465  C1769   1.365   .     S
C1465  N1776   1.445   .     S
N1467  O1468   1.301   .     A
O1469  N558    1.301   1_556 S
N1470  O1471   1.301   .     A
N1470  O1472   1.302   .     A
N1473  O1475   1.302   .     A
O1474  N1776   1.301   .     S
C1476  H1484   1.112   .     S
C1476  H1485   1.111   .     S
C1476  C1769   1.535   .     S
C1476  C1780   1.542   .     S
C1477  H1483   1.111   .     S
C1477  H1482   1.111   .     S
C1477  C1478   1.527   .     S
C1478  H1481   1.110   .     S
H1479  C1781   1.111   .     S
H1480  C1781   1.111   .     S
C1486  H1495   1.108   .     S
C1486  C1487   1.536   .     S
C1486  H1494   1.101   .     S
C1487  C1488   1.527   .     S
C1487  H1492   1.112   .     S
C1487  H1493   1.111   .     S
C1488  H1490   1.111   .     S
C1488  H1489   1.111   .     S
C1488  H1491   1.111   .     S
C1496  H1504   1.112   .     S
C1496  H596    1.112   1_556 S
C1497  C1498   1.527   .     S
C1497  H1503   1.112   .     S
C1497  C1294   1.539   1_655 S
C1497  H1300   1.112   1_655 S
C1498  H1501   1.111   .     S
C1498  H1499   1.111   .     S
C1498  H591    1.111   1_556 S
C1506  H1515   1.112   .     S
C1506  H1514   1.102   .     S
C1506  C1507   1.536   .     S
C1507  C1508   1.525   .     S
C1507  H1513   1.110   .     S
C1507  H1512   1.112   .     S
C1508  H1511   1.110   .     S
C1508  H1510   1.111   .     S
C1508  H1509   1.110   .     S
Zn1516 O1520   1.964   .     S
Zn1516 O1522   1.917   .     S
Zn1516 O1528   1.908   .     S
Zn1516 O1529   1.936   .     S
Zn1517 O1531   1.926   .     S
Zn1517 O1520   1.933   .     S
Zn1517 O1525   1.912   .     S
Zn1517 O1523   1.952   .     S
Zn1518 O1527   1.916   .     S
Zn1518 O1524   1.944   .     S
Zn1518 O1520   1.925   .     S
Zn1518 O1532   1.937   .     S
Zn1519 O1521   1.926   .     S
Zn1519 O1526   1.924   .     S
Zn1519 O1520   1.932   .     S
Zn1519 O1530   1.941   .     S
O1521  C1533   1.270   .     A
O1522  C1534   1.283   .     A
O1523  C1535   1.265   .     A
O1524  C1536   1.275   .     A
O1525  C1537   1.273   .     A
O1526  C1538   1.289   .     A
O1527  C1537   1.273   .     A
O1528  C1538   1.289   .     A
O1529  C1535   1.274   .     A
O1530  C1536   1.259   .     A
O1531  C1533   1.264   .     A
O1532  C1534   1.279   .     A
C1533  C1564   1.436   .     S
C1534  C1563   1.463   .     S
C1535  C1567   1.434   .     S
C1536  C1566   1.463   .     S
C1537  C1540   1.461   .     S
C1538  C1539   1.473   .     S
C1539  C1542   1.401   .     A
C1539  C1543   1.392   .     A
C1540  C1555   1.393   .     A
C1540  C1556   1.412   .     A
C1541  C1542   1.411   .     A
C1541  C1597   1.529   .     S
C1541  C1545   1.426   .     A
C1542  H1560   1.080   .     S
C1543  H1561   1.079   .     S
C1543  C1544   1.398   .     A
C1544  C1546   1.424   .     A
C1544  C1545   1.422   .     A
C1545  C640    1.405   1_556 S
C1546  C1550   1.430   .     A
C1546  C638    1.415   1_556 S
C1547  C1553   1.420   .     A
C1547  C1548   1.406   .     A
C1548  C1549   1.390   .     A
C1548  H1562   1.080   .     S
C1549  H1557   1.081   .     S
C1550  C1551   1.403   .     A
C1550  C1607   1.529   .     S
C1551  H1559   1.081   .     S
C1551  C643    1.402   1_556 S
C1552  C1553   1.422   .     A
C1552  C1554   1.416   .     A
C1553  C1556   1.429   .     A
C1554  C1555   1.394   .     A
C1554  N1568   1.437   .     S
C1555  H1558   1.084   .     S
C1556  C1587   1.536   .     S
C1563  C1665   1.343   .     S
C1563  N1672   1.446   .     S
C1564  C1765   1.343   1_455 S
C1564  H1767   1.086   1_455 S
H1565  C1665   1.086   .     S
C1566  C961    1.365   1_565 S
C1566  N968    1.445   1_565 S
N1568  O1569   1.301   .     A
O1570  N659    1.301   1_556 S
N1571  O1572   1.301   .     A
N1571  O1573   1.302   .     A
N1571  C1765   1.446   1_455 S
N1574  O1576   1.302   .     A
O1575  N968    1.301   1_565 S
C1577  H1585   1.112   .     S
C1577  H1586   1.111   .     S
C1577  C961    1.535   1_565 S
C1577  C972    1.542   1_565 S
C1578  H1584   1.111   .     S
C1578  H1583   1.111   .     S
C1578  C1579   1.527   .     S
C1579  H1582   1.110   .     S
H1580  C973    1.111   1_565 S
H1581  C973    1.111   1_565 S
C1587  H1596   1.108   .     S
C1587  C1588   1.536   .     S
C1587  H1595   1.101   .     S
C1588  C1589   1.527   .     S
C1588  H1593   1.112   .     S
C1588  H1594   1.111   .     S
C1589  H1591   1.111   .     S
C1589  H1590   1.111   .     S
C1589  H1592   1.111   .     S
C1597  H1605   1.112   .     S
C1597  C1800   1.539   1_455 S
C1597  H697    1.112   1_556 S
C1598  C1599   1.527   .     S
C1598  H1604   1.112   .     S
C1598  C1698   1.539   .     S
C1598  H1704   1.112   .     S
C1599  H1602   1.111   .     S
C1599  H1600   1.111   .     S
C1599  H692    1.111   1_556 S
H1603  C1800   1.112   1_455 S
C1607  H1616   1.112   .     S
C1607  H1615   1.102   .     S
C1607  C1608   1.536   .     S
C1608  C1609   1.525   .     S
C1608  H1614   1.110   .     S
C1608  H1613   1.112   .     S
C1609  H1612   1.110   .     S
C1609  H1611   1.111   .     S
C1609  H1610   1.110   .     S
Zn1617 O1621   1.964   .     S
Zn1617 O1623   1.917   .     S
Zn1617 O1629   1.908   .     S
Zn1617 O1630   1.936   .     S
Zn1618 O1632   1.926   .     S
Zn1618 O1621   1.933   .     S
Zn1618 O1626   1.912   .     S
Zn1618 O1624   1.952   .     S
Zn1619 O1628   1.916   .     S
Zn1619 O1625   1.944   .     S
Zn1619 O1621   1.925   .     S
Zn1619 O1633   1.937   .     S
Zn1620 O1622   1.926   .     S
Zn1620 O1627   1.924   .     S
Zn1620 O1621   1.932   .     S
Zn1620 O1631   1.941   .     S
O1622  C1634   1.270   .     A
O1623  C1635   1.283   .     A
O1624  C1636   1.265   .     A
O1625  C1637   1.275   .     A
O1626  C1638   1.273   .     A
O1627  C1639   1.289   .     A
O1628  C1638   1.273   .     A
O1629  C1639   1.289   .     A
O1630  C1636   1.274   .     A
O1631  C1637   1.259   .     A
O1632  C1634   1.264   .     A
O1633  C1635   1.279   .     A
C1634  C1665   1.436   .     S
C1635  C1664   1.463   .     S
C1636  C1668   1.434   .     S
C1637  C1667   1.463   .     S
C1638  C1641   1.461   .     S
C1639  C1640   1.473   .     S
C1640  C1643   1.401   .     A
C1640  C1644   1.392   .     A
C1641  C1656   1.393   .     A
C1641  C1657   1.412   .     A
C1642  C1643   1.411   .     A
C1642  C1698   1.529   .     S
C1642  C1646   1.426   .     A
C1643  H1661   1.080   .     S
C1644  H1662   1.079   .     S
C1644  C1645   1.398   .     A
C1645  C1647   1.424   .     A
C1645  C1646   1.422   .     A
C1646  C741    1.405   1_556 S
C1647  C1651   1.430   .     A
C1647  C739    1.415   1_556 S
C1648  C1654   1.420   .     A
C1648  C1649   1.406   .     A
C1649  C1650   1.390   .     A
C1649  H1663   1.080   .     S
C1650  H1658   1.081   .     S
C1651  C1652   1.403   .     A
C1651  C1708   1.529   .     S
C1652  H1660   1.081   .     S
C1652  C744    1.402   1_556 S
C1653  C1654   1.422   .     A
C1653  C1655   1.416   .     A
C1654  C1657   1.429   .     A
C1655  C1656   1.394   .     A
C1655  N1669   1.437   .     S
C1656  H1659   1.084   .     S
C1657  C1688   1.536   .     S
C1664  C1766   1.343   .     S
C1664  N1773   1.446   .     S
H1666  C1766   1.086   .     S
C1667  C1062   1.365   1_565 S
C1667  N1069   1.445   1_565 S
N1669  O1670   1.301   .     A
O1671  N760    1.301   1_556 S
N1672  O1673   1.301   .     A
N1672  O1674   1.302   .     A
N1675  O1677   1.302   .     A
O1676  N1069   1.301   1_565 S
C1678  H1686   1.112   .     S
C1678  H1687   1.111   .     S
C1678  C1062   1.535   1_565 S
C1678  C1073   1.542   1_565 S
C1679  H1685   1.111   .     S
C1679  H1684   1.111   .     S
C1679  C1680   1.527   .     S
C1680  H1683   1.110   .     S
H1681  C1074   1.111   1_565 S
H1682  C1074   1.111   1_565 S
C1688  H1697   1.108   .     S
C1688  C1689   1.536   .     S
C1688  H1696   1.101   .     S
C1689  C1690   1.527   .     S
C1689  H1694   1.112   .     S
C1689  H1695   1.111   .     S
C1690  H1692   1.111   .     S
C1690  H1691   1.111   .     S
C1690  H1693   1.111   .     S
C1698  H1706   1.112   .     S
C1698  H798    1.112   1_556 S
C1699  C1700   1.527   .     S
C1699  H1705   1.112   .     S
C1699  C1799   1.539   .     S
C1699  H1805   1.112   .     S
C1700  H1703   1.111   .     S
C1700  H1701   1.111   .     S
C1700  H793    1.111   1_556 S
C1708  H1717   1.112   .     S
C1708  H1716   1.102   .     S
C1708  C1709   1.536   .     S
C1709  C1710   1.525   .     S
C1709  H1715   1.110   .     S
C1709  H1714   1.112   .     S
C1710  H1713   1.110   .     S
C1710  H1712   1.111   .     S
C1710  H1711   1.110   .     S
Zn1718 O1722   1.964   .     S
Zn1718 O1724   1.917   .     S
Zn1718 O1730   1.908   .     S
Zn1718 O1731   1.936   .     S
Zn1719 O1733   1.926   .     S
Zn1719 O1722   1.933   .     S
Zn1719 O1727   1.912   .     S
Zn1719 O1725   1.952   .     S
Zn1720 O1729   1.916   .     S
Zn1720 O1726   1.944   .     S
Zn1720 O1722   1.925   .     S
Zn1720 O1734   1.937   .     S
Zn1721 O1723   1.926   .     S
Zn1721 O1728   1.924   .     S
Zn1721 O1722   1.932   .     S
Zn1721 O1732   1.941   .     S
O1723  C1735   1.270   .     A
O1724  C1736   1.283   .     A
O1725  C1737   1.265   .     A
O1726  C1738   1.275   .     A
O1727  C1739   1.273   .     A
O1728  C1740   1.289   .     A
O1729  C1739   1.273   .     A
O1730  C1740   1.289   .     A
O1731  C1737   1.274   .     A
O1732  C1738   1.259   .     A
O1733  C1735   1.264   .     A
O1734  C1736   1.279   .     A
C1735  C1766   1.436   .     S
C1736  C1765   1.463   .     S
C1737  C1769   1.434   .     S
C1738  C1768   1.463   .     S
C1739  C1742   1.461   .     S
C1740  C1741   1.473   .     S
C1741  C1744   1.401   .     A
C1741  C1745   1.392   .     A
C1742  C1757   1.393   .     A
C1742  C1758   1.412   .     A
C1743  C1744   1.411   .     A
C1743  C1799   1.529   .     S
C1743  C1747   1.426   .     A
C1744  H1762   1.080   .     S
C1745  H1763   1.079   .     S
C1745  C1746   1.398   .     A
C1746  C1748   1.424   .     A
C1746  C1747   1.422   .     A
C1747  C842    1.405   1_556 S
C1748  C1752   1.430   .     A
C1748  C840    1.415   1_556 S
C1749  C1755   1.420   .     A
C1749  C1750   1.406   .     A
C1750  C1751   1.390   .     A
C1750  H1764   1.080   .     S
C1751  H1759   1.081   .     S
C1752  C1753   1.403   .     A
C1752  C1809   1.529   .     S
C1753  H1761   1.081   .     S
C1753  C845    1.402   1_556 S
C1754  C1755   1.422   .     A
C1754  C1756   1.416   .     A
C1755  C1758   1.429   .     A
C1756  C1757   1.394   .     A
C1756  N1770   1.437   .     S
C1757  H1760   1.084   .     S
C1758  C1789   1.536   .     S
C1765  C1564   1.343   1_655 S
C1765  N1571   1.446   1_655 S
H1767  C1564   1.086   1_655 S
C1768  C1163   1.365   1_565 S
C1768  N1170   1.445   1_565 S
N1770  O1771   1.301   .     A
O1772  N861    1.301   1_556 S
N1773  O1774   1.301   .     A
N1773  O1775   1.302   .     A
N1776  O1778   1.302   .     A
O1777  N1170   1.301   1_565 S
C1779  H1787   1.112   .     S
C1779  H1788   1.111   .     S
C1779  C1163   1.535   1_565 S
C1779  C1174   1.542   1_565 S
C1780  H1786   1.111   .     S
C1780  H1785   1.111   .     S
C1780  C1781   1.527   .     S
C1781  H1784   1.110   .     S
H1782  C1175   1.111   1_565 S
H1783  C1175   1.111   1_565 S
C1789  H1798   1.108   .     S
C1789  C1790   1.536   .     S
C1789  H1797   1.101   .     S
C1790  C1791   1.527   .     S
C1790  H1795   1.112   .     S
C1790  H1796   1.111   .     S
C1791  H1793   1.111   .     S
C1791  H1792   1.111   .     S
C1791  H1794   1.111   .     S
C1799  H1807   1.112   .     S
C1799  H899    1.112   1_556 S
C1800  C1801   1.527   .     S
C1800  H1806   1.112   .     S
C1800  C1597   1.539   1_655 S
C1800  H1603   1.112   1_655 S
C1801  H1804   1.111   .     S
C1801  H1802   1.111   .     S
C1801  H894    1.111   1_556 S
C1809  H1818   1.112   .     S
C1809  H1817   1.102   .     S
C1809  C1810   1.536   .     S
C1810  C1811   1.525   .     S
C1810  H1816   1.110   .     S
C1810  H1815   1.112   .     S
C1811  H1814   1.110   .     S
C1811  H1813   1.111   .     S
C1811  H1812   1.110   .     S
