data_str_m1_o10_o16_pcu_sym.31
_audit_creation_date              2020-01-03
_audit_creation_method            'Materials Studio'
_symmetry_space_group_name_H-M    'P1'
_symmetry_Int_Tables_number       1
_symmetry_cell_setting            triclinic
loop_
_symmetry_equiv_pos_as_xyz
  x,y,z
_cell_length_a                    32.5249
_cell_length_b                    32.5206
_cell_length_c                    31.0829
_cell_angle_alpha                 96.6467
_cell_angle_beta                  75.0705
_cell_angle_gamma                 98.5856
loop_
_atom_site_label
_atom_site_type_symbol
_atom_site_fract_x
_atom_site_fract_y
_atom_site_fract_z
_atom_site_U_iso_or_equiv
_atom_site_adp_type
_atom_site_occupancy
C1     C     0.05273   0.15953   0.25999   0.00000  Uiso   1.00
C2     C     0.18030   0.16669   0.05725   0.00000  Uiso   1.00
C3     C     0.19915   0.09814   0.06261   0.00000  Uiso   1.00
C4     C     0.28073   0.17377   0.24005   0.00000  Uiso   1.00
C5     C     0.14353   0.19424   0.41941   0.00000  Uiso   1.00
C6     C     0.32656   0.17648   0.23610   0.00000  Uiso   1.00
C7     C     0.00746   0.15690   0.26378   0.00000  Uiso   1.00
C8     C     0.18039   0.32244   0.23657   0.00000  Uiso   1.00
C9     C     0.15180   0.01170   0.26372   0.00000  Uiso   1.00
C10    C     0.15612   0.05583   0.26014   0.00000  Uiso   1.00
C11    C     0.17655   0.27786   0.24019   0.00000  Uiso   1.00
C12    C     0.13786   0.24822   0.48051   0.00000  Uiso   1.00
C13    C     0.18510   0.14789   0.12946   0.00000  Uiso   1.00
C14    C     0.14818   0.18418   0.37100   0.00000  Uiso   1.00
C15    C     0.19366   0.08585   0.01970   0.00000  Uiso   1.00
C16    C     0.19141   0.13847   0.08153   0.00000  Uiso   1.00
C17    C     0.13471   0.23446   0.43741   0.00000  Uiso   1.00
C18    C     0.15088   0.22263   0.00606   0.00000  Uiso   1.00
C19    C     0.15923   0.18143   0.48962   0.00000  Uiso   1.00
C20    C     0.15303   0.16651   0.44656   0.00000  Uiso   1.00
C21    C     0.17337   0.15446   0.01443   0.00000  Uiso   1.00
C22    C     0.17969   0.11304   0.49626   0.00000  Uiso   1.00
C23    C     0.17019   0.09827   0.45566   0.00000  Uiso   1.00
C24    C     0.15600   0.12417   0.43179   0.00000  Uiso   1.00
H25    H     0.31922   0.13880   0.28961   0.00000  Uiso   1.00
H26    H     0.14658   0.11007   0.40202   0.00000  Uiso   1.00
H27    H     0.01551   0.19449   0.21057   0.00000  Uiso   1.00
H28    H     0.24103   0.08094   0.09286   0.00000  Uiso   1.00
H29    H     0.21348   0.04033   0.06997   0.00000  Uiso   1.00
H30    H     0.20677   0.00368   0.21160   0.00000  Uiso   1.00
H31    H     0.12503   0.33125   0.28877   0.00000  Uiso   1.00
H32    H     0.17300   0.06614   0.44258   0.00000  Uiso   1.00
H33    H     0.19864   0.05444   0.00528   0.00000  Uiso   1.00
H34    H     0.17452   0.19691   0.07407   0.00000  Uiso   1.00
H35    H     0.12705   0.25605   0.41744   0.00000  Uiso   1.00
H36    H     0.15383   0.23613   0.03857   0.00000  Uiso   1.00
H37    H     0.13154   0.27957   0.49374   0.00000  Uiso   1.00
N38    N     0.21063   0.06938   0.08806   0.00000  Uiso   1.00
O39    O     0.16667   0.16667   0.25000   0.00000  Uiso   1.00
O40    O     0.15451   0.12637   0.15458   0.00000  Uiso   1.00
O41    O     0.12940   0.20391   0.34968   0.00000  Uiso   1.00
O42    O     0.20824   0.17759   0.14606   0.00000  Uiso   1.00
O43    O     0.17451   0.15880   0.34968   0.00000  Uiso   1.00
O44    O     0.17930   0.08019   0.28214   0.00000  Uiso   1.00
O45    O     0.14632   0.26085   0.27013   0.00000  Uiso   1.00
O46    O     0.07412   0.13291   0.23413   0.00000  Uiso   1.00
O47    O     0.26693   0.19272   0.21360   0.00000  Uiso   1.00
O48    O     0.07071   0.18878   0.28213   0.00000  Uiso   1.00
O49    O     0.25491   0.15226   0.27013   0.00000  Uiso   1.00
O50    O     0.13760   0.06944   0.23413   0.00000  Uiso   1.00
O51    O     0.20345   0.25620   0.21360   0.00000  Uiso   1.00
Zn52   Zn    0.19338   0.13994   0.28734   0.00000  Uiso   1.00
Zn53   Zn    0.13379   0.12458   0.21875   0.00000  Uiso   1.00
Zn54   Zn    0.21056   0.19775   0.20657   0.00000  Uiso   1.00
Zn55   Zn    0.12893   0.20439   0.28733   0.00000  Uiso   1.00
C56    C     0.38606   0.15953   0.25999   0.00000  Uiso   1.00
C57    C     0.51363   0.16669   0.05725   0.00000  Uiso   1.00
C58    C     0.53248   0.09814   0.06261   0.00000  Uiso   1.00
C59    C     0.61406   0.17377   0.24005   0.00000  Uiso   1.00
C60    C     0.47687   0.19424   0.41941   0.00000  Uiso   1.00
C61    C     0.65990   0.17648   0.23610   0.00000  Uiso   1.00
C62    C     0.34080   0.15690   0.26378   0.00000  Uiso   1.00
C63    C     0.51372   0.32244   0.23657   0.00000  Uiso   1.00
C64    C     0.48513   0.01170   0.26372   0.00000  Uiso   1.00
C65    C     0.48945   0.05583   0.26014   0.00000  Uiso   1.00
C66    C     0.50988   0.27786   0.24019   0.00000  Uiso   1.00
C67    C     0.47119   0.24822   0.48051   0.00000  Uiso   1.00
C68    C     0.51843   0.14789   0.12946   0.00000  Uiso   1.00
C69    C     0.48151   0.18418   0.37100   0.00000  Uiso   1.00
C70    C     0.52700   0.08585   0.01970   0.00000  Uiso   1.00
C71    C     0.52474   0.13847   0.08153   0.00000  Uiso   1.00
C72    C     0.46805   0.23446   0.43741   0.00000  Uiso   1.00
C73    C     0.48422   0.22263   0.00606   0.00000  Uiso   1.00
C74    C     0.49257   0.18143   0.48962   0.00000  Uiso   1.00
C75    C     0.48636   0.16651   0.44656   0.00000  Uiso   1.00
C76    C     0.50670   0.15446   0.01443   0.00000  Uiso   1.00
C77    C     0.51302   0.11304   0.49626   0.00000  Uiso   1.00
C78    C     0.50352   0.09827   0.45566   0.00000  Uiso   1.00
C79    C     0.48934   0.12417   0.43179   0.00000  Uiso   1.00
H80    H     0.65255   0.13880   0.28961   0.00000  Uiso   1.00
H81    H     0.47991   0.11007   0.40202   0.00000  Uiso   1.00
H82    H     0.34885   0.19449   0.21057   0.00000  Uiso   1.00
H83    H     0.57436   0.08094   0.09286   0.00000  Uiso   1.00
H84    H     0.54682   0.04033   0.06997   0.00000  Uiso   1.00
H85    H     0.54010   0.00368   0.21160   0.00000  Uiso   1.00
H86    H     0.45837   0.33125   0.28877   0.00000  Uiso   1.00
H87    H     0.50634   0.06614   0.44258   0.00000  Uiso   1.00
H88    H     0.53197   0.05444   0.00528   0.00000  Uiso   1.00
H89    H     0.50785   0.19691   0.07407   0.00000  Uiso   1.00
H90    H     0.46038   0.25605   0.41744   0.00000  Uiso   1.00
H91    H     0.48716   0.23613   0.03857   0.00000  Uiso   1.00
H92    H     0.46487   0.27957   0.49374   0.00000  Uiso   1.00
N93    N     0.54397   0.06938   0.08806   0.00000  Uiso   1.00
O94    O     0.50000   0.16667   0.25000   0.00000  Uiso   1.00
O95    O     0.48784   0.12637   0.15458   0.00000  Uiso   1.00
O96    O     0.46274   0.20391   0.34968   0.00000  Uiso   1.00
O97    O     0.54157   0.17759   0.14606   0.00000  Uiso   1.00
O98    O     0.50785   0.15880   0.34968   0.00000  Uiso   1.00
O99    O     0.51264   0.08019   0.28214   0.00000  Uiso   1.00
O100   O     0.47965   0.26085   0.27013   0.00000  Uiso   1.00
O101   O     0.40745   0.13291   0.23413   0.00000  Uiso   1.00
O102   O     0.60026   0.19272   0.21360   0.00000  Uiso   1.00
O103   O     0.40405   0.18878   0.28213   0.00000  Uiso   1.00
O104   O     0.58824   0.15226   0.27013   0.00000  Uiso   1.00
O105   O     0.47093   0.06944   0.23413   0.00000  Uiso   1.00
O106   O     0.53678   0.25620   0.21360   0.00000  Uiso   1.00
Zn107  Zn    0.52672   0.13994   0.28734   0.00000  Uiso   1.00
Zn108  Zn    0.46713   0.12458   0.21875   0.00000  Uiso   1.00
Zn109  Zn    0.54389   0.19775   0.20657   0.00000  Uiso   1.00
Zn110  Zn    0.46226   0.20439   0.28733   0.00000  Uiso   1.00
C111   C     0.71939   0.15953   0.25999   0.00000  Uiso   1.00
C112   C     0.84696   0.16669   0.05725   0.00000  Uiso   1.00
C113   C     0.86582   0.09814   0.06261   0.00000  Uiso   1.00
C114   C     0.94740   0.17377   0.24005   0.00000  Uiso   1.00
C115   C     0.81020   0.19424   0.41941   0.00000  Uiso   1.00
C116   C     0.99323   0.17648   0.23610   0.00000  Uiso   1.00
C117   C     0.67413   0.15690   0.26378   0.00000  Uiso   1.00
C118   C     0.84706   0.32244   0.23657   0.00000  Uiso   1.00
C119   C     0.81847   0.01170   0.26372   0.00000  Uiso   1.00
C120   C     0.82278   0.05583   0.26014   0.00000  Uiso   1.00
C121   C     0.84321   0.27786   0.24019   0.00000  Uiso   1.00
C122   C     0.80453   0.24822   0.48051   0.00000  Uiso   1.00
C123   C     0.85177   0.14789   0.12946   0.00000  Uiso   1.00
C124   C     0.81484   0.18418   0.37100   0.00000  Uiso   1.00
C125   C     0.86033   0.08585   0.01970   0.00000  Uiso   1.00
C126   C     0.85807   0.13847   0.08153   0.00000  Uiso   1.00
C127   C     0.80138   0.23446   0.43741   0.00000  Uiso   1.00
C128   C     0.81755   0.22263   0.00606   0.00000  Uiso   1.00
C129   C     0.82590   0.18143   0.48962   0.00000  Uiso   1.00
C130   C     0.81970   0.16651   0.44656   0.00000  Uiso   1.00
C131   C     0.84004   0.15446   0.01443   0.00000  Uiso   1.00
C132   C     0.84635   0.11304   0.49626   0.00000  Uiso   1.00
C133   C     0.83686   0.09827   0.45566   0.00000  Uiso   1.00
C134   C     0.82267   0.12417   0.43179   0.00000  Uiso   1.00
H135   H     0.98589   0.13880   0.28961   0.00000  Uiso   1.00
H136   H     0.81324   0.11007   0.40202   0.00000  Uiso   1.00
H137   H     0.68218   0.19449   0.21057   0.00000  Uiso   1.00
H138   H     0.90769   0.08094   0.09286   0.00000  Uiso   1.00
H139   H     0.88015   0.04033   0.06997   0.00000  Uiso   1.00
H140   H     0.87344   0.00368   0.21160   0.00000  Uiso   1.00
H141   H     0.79170   0.33125   0.28877   0.00000  Uiso   1.00
H142   H     0.83967   0.06614   0.44258   0.00000  Uiso   1.00
H143   H     0.86531   0.05444   0.00528   0.00000  Uiso   1.00
H144   H     0.84119   0.19691   0.07407   0.00000  Uiso   1.00
H145   H     0.79372   0.25605   0.41744   0.00000  Uiso   1.00
H146   H     0.82050   0.23613   0.03857   0.00000  Uiso   1.00
H147   H     0.79820   0.27957   0.49374   0.00000  Uiso   1.00
N148   N     0.87730   0.06938   0.08806   0.00000  Uiso   1.00
O149   O     0.83333   0.16667   0.25000   0.00000  Uiso   1.00
O150   O     0.82118   0.12637   0.15458   0.00000  Uiso   1.00
O151   O     0.79607   0.20391   0.34968   0.00000  Uiso   1.00
O152   O     0.87491   0.17759   0.14606   0.00000  Uiso   1.00
O153   O     0.84118   0.15880   0.34968   0.00000  Uiso   1.00
O154   O     0.84597   0.08019   0.28214   0.00000  Uiso   1.00
O155   O     0.81298   0.26085   0.27013   0.00000  Uiso   1.00
O156   O     0.74078   0.13291   0.23413   0.00000  Uiso   1.00
O157   O     0.93360   0.19272   0.21360   0.00000  Uiso   1.00
O158   O     0.73738   0.18878   0.28213   0.00000  Uiso   1.00
O159   O     0.92158   0.15226   0.27013   0.00000  Uiso   1.00
O160   O     0.80426   0.06944   0.23413   0.00000  Uiso   1.00
O161   O     0.87012   0.25620   0.21360   0.00000  Uiso   1.00
Zn162  Zn    0.86005   0.13994   0.28734   0.00000  Uiso   1.00
Zn163  Zn    0.80046   0.12458   0.21875   0.00000  Uiso   1.00
Zn164  Zn    0.87723   0.19775   0.20657   0.00000  Uiso   1.00
Zn165  Zn    0.79560   0.20439   0.28733   0.00000  Uiso   1.00
C166   C     0.05273   0.49287   0.25999   0.00000  Uiso   1.00
C167   C     0.18030   0.50002   0.05725   0.00000  Uiso   1.00
C168   C     0.19915   0.43147   0.06261   0.00000  Uiso   1.00
C169   C     0.28073   0.50710   0.24005   0.00000  Uiso   1.00
C170   C     0.14353   0.52758   0.41941   0.00000  Uiso   1.00
C171   C     0.32656   0.50981   0.23610   0.00000  Uiso   1.00
C172   C     0.00746   0.49024   0.26378   0.00000  Uiso   1.00
C173   C     0.18039   0.65577   0.23657   0.00000  Uiso   1.00
C174   C     0.15180   0.34503   0.26372   0.00000  Uiso   1.00
C175   C     0.15612   0.38916   0.26014   0.00000  Uiso   1.00
C176   C     0.17655   0.61120   0.24019   0.00000  Uiso   1.00
C177   C     0.13786   0.58155   0.48051   0.00000  Uiso   1.00
C178   C     0.18510   0.48123   0.12946   0.00000  Uiso   1.00
C179   C     0.14818   0.51752   0.37100   0.00000  Uiso   1.00
C180   C     0.19366   0.41918   0.01970   0.00000  Uiso   1.00
C181   C     0.19141   0.47180   0.08153   0.00000  Uiso   1.00
C182   C     0.13471   0.56779   0.43741   0.00000  Uiso   1.00
C183   C     0.15088   0.55596   0.00606   0.00000  Uiso   1.00
C184   C     0.15923   0.51477   0.48962   0.00000  Uiso   1.00
C185   C     0.15303   0.49985   0.44656   0.00000  Uiso   1.00
C186   C     0.17337   0.48779   0.01443   0.00000  Uiso   1.00
C187   C     0.17969   0.44637   0.49626   0.00000  Uiso   1.00
C188   C     0.17019   0.43160   0.45566   0.00000  Uiso   1.00
C189   C     0.15600   0.45750   0.43179   0.00000  Uiso   1.00
H190   H     0.31922   0.47213   0.28961   0.00000  Uiso   1.00
H191   H     0.14658   0.44341   0.40202   0.00000  Uiso   1.00
H192   H     0.01551   0.52782   0.21057   0.00000  Uiso   1.00
H193   H     0.24103   0.41427   0.09286   0.00000  Uiso   1.00
H194   H     0.21348   0.37367   0.06997   0.00000  Uiso   1.00
H195   H     0.20677   0.33701   0.21160   0.00000  Uiso   1.00
H196   H     0.12503   0.66458   0.28877   0.00000  Uiso   1.00
H197   H     0.17300   0.39948   0.44258   0.00000  Uiso   1.00
H198   H     0.19864   0.38778   0.00528   0.00000  Uiso   1.00
H199   H     0.17452   0.53024   0.07407   0.00000  Uiso   1.00
H200   H     0.12705   0.58939   0.41744   0.00000  Uiso   1.00
H201   H     0.15383   0.56946   0.03857   0.00000  Uiso   1.00
H202   H     0.13154   0.61290   0.49374   0.00000  Uiso   1.00
N203   N     0.21063   0.40271   0.08806   0.00000  Uiso   1.00
O204   O     0.16667   0.50000   0.25000   0.00000  Uiso   1.00
O205   O     0.15451   0.45970   0.15458   0.00000  Uiso   1.00
O206   O     0.12940   0.53724   0.34968   0.00000  Uiso   1.00
O207   O     0.20824   0.51092   0.14606   0.00000  Uiso   1.00
O208   O     0.17451   0.49213   0.34968   0.00000  Uiso   1.00
O209   O     0.17930   0.41352   0.28214   0.00000  Uiso   1.00
O210   O     0.14632   0.59418   0.27013   0.00000  Uiso   1.00
O211   O     0.07412   0.46625   0.23413   0.00000  Uiso   1.00
O212   O     0.26693   0.52605   0.21360   0.00000  Uiso   1.00
O213   O     0.07071   0.52211   0.28213   0.00000  Uiso   1.00
O214   O     0.25491   0.48559   0.27013   0.00000  Uiso   1.00
O215   O     0.13760   0.40277   0.23413   0.00000  Uiso   1.00
O216   O     0.20345   0.58953   0.21360   0.00000  Uiso   1.00
Zn217  Zn    0.19338   0.47327   0.28734   0.00000  Uiso   1.00
Zn218  Zn    0.13379   0.45791   0.21875   0.00000  Uiso   1.00
Zn219  Zn    0.21056   0.53109   0.20657   0.00000  Uiso   1.00
Zn220  Zn    0.12893   0.53773   0.28733   0.00000  Uiso   1.00
C221   C     0.38606   0.49287   0.25999   0.00000  Uiso   1.00
C222   C     0.51363   0.50002   0.05725   0.00000  Uiso   1.00
C223   C     0.53248   0.43147   0.06261   0.00000  Uiso   1.00
C224   C     0.61406   0.50710   0.24005   0.00000  Uiso   1.00
C225   C     0.47687   0.52758   0.41941   0.00000  Uiso   1.00
C226   C     0.65990   0.50981   0.23610   0.00000  Uiso   1.00
C227   C     0.34080   0.49024   0.26378   0.00000  Uiso   1.00
C228   C     0.51372   0.65577   0.23657   0.00000  Uiso   1.00
C229   C     0.48513   0.34503   0.26372   0.00000  Uiso   1.00
C230   C     0.48945   0.38916   0.26014   0.00000  Uiso   1.00
C231   C     0.50988   0.61120   0.24019   0.00000  Uiso   1.00
C232   C     0.47119   0.58155   0.48051   0.00000  Uiso   1.00
C233   C     0.51843   0.48123   0.12946   0.00000  Uiso   1.00
C234   C     0.48151   0.51752   0.37100   0.00000  Uiso   1.00
C235   C     0.52700   0.41918   0.01970   0.00000  Uiso   1.00
C236   C     0.52474   0.47180   0.08153   0.00000  Uiso   1.00
C237   C     0.46805   0.56779   0.43741   0.00000  Uiso   1.00
C238   C     0.48422   0.55596   0.00606   0.00000  Uiso   1.00
C239   C     0.49257   0.51477   0.48962   0.00000  Uiso   1.00
C240   C     0.48636   0.49985   0.44656   0.00000  Uiso   1.00
C241   C     0.50670   0.48779   0.01443   0.00000  Uiso   1.00
C242   C     0.51302   0.44637   0.49626   0.00000  Uiso   1.00
C243   C     0.50352   0.43160   0.45566   0.00000  Uiso   1.00
C244   C     0.48934   0.45750   0.43179   0.00000  Uiso   1.00
H245   H     0.65255   0.47213   0.28961   0.00000  Uiso   1.00
H246   H     0.47991   0.44341   0.40202   0.00000  Uiso   1.00
H247   H     0.34885   0.52782   0.21057   0.00000  Uiso   1.00
H248   H     0.57436   0.41427   0.09286   0.00000  Uiso   1.00
H249   H     0.54682   0.37367   0.06997   0.00000  Uiso   1.00
H250   H     0.54010   0.33701   0.21160   0.00000  Uiso   1.00
H251   H     0.45837   0.66458   0.28877   0.00000  Uiso   1.00
H252   H     0.50634   0.39948   0.44258   0.00000  Uiso   1.00
H253   H     0.53197   0.38778   0.00528   0.00000  Uiso   1.00
H254   H     0.50785   0.53024   0.07407   0.00000  Uiso   1.00
H255   H     0.46038   0.58939   0.41744   0.00000  Uiso   1.00
H256   H     0.48716   0.56946   0.03857   0.00000  Uiso   1.00
H257   H     0.46487   0.61290   0.49374   0.00000  Uiso   1.00
N258   N     0.54397   0.40271   0.08806   0.00000  Uiso   1.00
O259   O     0.50000   0.50000   0.25000   0.00000  Uiso   1.00
O260   O     0.48784   0.45970   0.15458   0.00000  Uiso   1.00
O261   O     0.46274   0.53724   0.34968   0.00000  Uiso   1.00
O262   O     0.54157   0.51092   0.14606   0.00000  Uiso   1.00
O263   O     0.50785   0.49213   0.34968   0.00000  Uiso   1.00
O264   O     0.51264   0.41352   0.28214   0.00000  Uiso   1.00
O265   O     0.47965   0.59418   0.27013   0.00000  Uiso   1.00
O266   O     0.40745   0.46625   0.23413   0.00000  Uiso   1.00
O267   O     0.60026   0.52605   0.21360   0.00000  Uiso   1.00
O268   O     0.40405   0.52211   0.28213   0.00000  Uiso   1.00
O269   O     0.58824   0.48559   0.27013   0.00000  Uiso   1.00
O270   O     0.47093   0.40277   0.23413   0.00000  Uiso   1.00
O271   O     0.53678   0.58953   0.21360   0.00000  Uiso   1.00
Zn272  Zn    0.52672   0.47327   0.28734   0.00000  Uiso   1.00
Zn273  Zn    0.46713   0.45791   0.21875   0.00000  Uiso   1.00
Zn274  Zn    0.54389   0.53109   0.20657   0.00000  Uiso   1.00
Zn275  Zn    0.46226   0.53773   0.28733   0.00000  Uiso   1.00
C276   C     0.71939   0.49287   0.25999   0.00000  Uiso   1.00
C277   C     0.84696   0.50002   0.05725   0.00000  Uiso   1.00
C278   C     0.86582   0.43147   0.06261   0.00000  Uiso   1.00
C279   C     0.94740   0.50710   0.24005   0.00000  Uiso   1.00
C280   C     0.81020   0.52758   0.41941   0.00000  Uiso   1.00
C281   C     0.99323   0.50981   0.23610   0.00000  Uiso   1.00
C282   C     0.67413   0.49024   0.26378   0.00000  Uiso   1.00
C283   C     0.84706   0.65577   0.23657   0.00000  Uiso   1.00
C284   C     0.81847   0.34503   0.26372   0.00000  Uiso   1.00
C285   C     0.82278   0.38916   0.26014   0.00000  Uiso   1.00
C286   C     0.84321   0.61120   0.24019   0.00000  Uiso   1.00
C287   C     0.80453   0.58155   0.48051   0.00000  Uiso   1.00
C288   C     0.85177   0.48123   0.12946   0.00000  Uiso   1.00
C289   C     0.81484   0.51752   0.37100   0.00000  Uiso   1.00
C290   C     0.86033   0.41918   0.01970   0.00000  Uiso   1.00
C291   C     0.85807   0.47180   0.08153   0.00000  Uiso   1.00
C292   C     0.80138   0.56779   0.43741   0.00000  Uiso   1.00
C293   C     0.81755   0.55596   0.00606   0.00000  Uiso   1.00
C294   C     0.82590   0.51477   0.48962   0.00000  Uiso   1.00
C295   C     0.81970   0.49985   0.44656   0.00000  Uiso   1.00
C296   C     0.84004   0.48779   0.01443   0.00000  Uiso   1.00
C297   C     0.84635   0.44637   0.49626   0.00000  Uiso   1.00
C298   C     0.83686   0.43160   0.45566   0.00000  Uiso   1.00
C299   C     0.82267   0.45750   0.43179   0.00000  Uiso   1.00
H300   H     0.98589   0.47213   0.28961   0.00000  Uiso   1.00
H301   H     0.81324   0.44341   0.40202   0.00000  Uiso   1.00
H302   H     0.68218   0.52782   0.21057   0.00000  Uiso   1.00
H303   H     0.90769   0.41427   0.09286   0.00000  Uiso   1.00
H304   H     0.88015   0.37367   0.06997   0.00000  Uiso   1.00
H305   H     0.87344   0.33701   0.21160   0.00000  Uiso   1.00
H306   H     0.79170   0.66458   0.28877   0.00000  Uiso   1.00
H307   H     0.83967   0.39948   0.44258   0.00000  Uiso   1.00
H308   H     0.86531   0.38778   0.00528   0.00000  Uiso   1.00
H309   H     0.84119   0.53024   0.07407   0.00000  Uiso   1.00
H310   H     0.79372   0.58939   0.41744   0.00000  Uiso   1.00
H311   H     0.82050   0.56946   0.03857   0.00000  Uiso   1.00
H312   H     0.79820   0.61290   0.49374   0.00000  Uiso   1.00
N313   N     0.87730   0.40271   0.08806   0.00000  Uiso   1.00
O314   O     0.83333   0.50000   0.25000   0.00000  Uiso   1.00
O315   O     0.82118   0.45970   0.15458   0.00000  Uiso   1.00
O316   O     0.79607   0.53724   0.34968   0.00000  Uiso   1.00
O317   O     0.87491   0.51092   0.14606   0.00000  Uiso   1.00
O318   O     0.84118   0.49213   0.34968   0.00000  Uiso   1.00
O319   O     0.84597   0.41352   0.28214   0.00000  Uiso   1.00
O320   O     0.81298   0.59418   0.27013   0.00000  Uiso   1.00
O321   O     0.74078   0.46625   0.23413   0.00000  Uiso   1.00
O322   O     0.93360   0.52605   0.21360   0.00000  Uiso   1.00
O323   O     0.73738   0.52211   0.28213   0.00000  Uiso   1.00
O324   O     0.92158   0.48559   0.27013   0.00000  Uiso   1.00
O325   O     0.80426   0.40277   0.23413   0.00000  Uiso   1.00
O326   O     0.87012   0.58953   0.21360   0.00000  Uiso   1.00
Zn327  Zn    0.86005   0.47327   0.28734   0.00000  Uiso   1.00
Zn328  Zn    0.80046   0.45791   0.21875   0.00000  Uiso   1.00
Zn329  Zn    0.87723   0.53109   0.20657   0.00000  Uiso   1.00
Zn330  Zn    0.79560   0.53773   0.28733   0.00000  Uiso   1.00
C331   C     0.05273   0.82620   0.25999   0.00000  Uiso   1.00
C332   C     0.18030   0.83335   0.05725   0.00000  Uiso   1.00
C333   C     0.19915   0.76481   0.06261   0.00000  Uiso   1.00
C334   C     0.28073   0.84044   0.24005   0.00000  Uiso   1.00
C335   C     0.14353   0.86091   0.41941   0.00000  Uiso   1.00
C336   C     0.32656   0.84315   0.23610   0.00000  Uiso   1.00
C337   C     0.00746   0.82357   0.26378   0.00000  Uiso   1.00
C338   C     0.18039   0.98911   0.23657   0.00000  Uiso   1.00
C339   C     0.15180   0.67836   0.26372   0.00000  Uiso   1.00
C340   C     0.15612   0.72249   0.26014   0.00000  Uiso   1.00
C341   C     0.17655   0.94453   0.24019   0.00000  Uiso   1.00
C342   C     0.13786   0.91488   0.48051   0.00000  Uiso   1.00
C343   C     0.18510   0.81456   0.12946   0.00000  Uiso   1.00
C344   C     0.14818   0.85085   0.37100   0.00000  Uiso   1.00
C345   C     0.19366   0.75251   0.01970   0.00000  Uiso   1.00
C346   C     0.19141   0.80514   0.08153   0.00000  Uiso   1.00
C347   C     0.13471   0.90112   0.43741   0.00000  Uiso   1.00
C348   C     0.15088   0.88929   0.00606   0.00000  Uiso   1.00
C349   C     0.15923   0.84810   0.48962   0.00000  Uiso   1.00
C350   C     0.15303   0.83318   0.44656   0.00000  Uiso   1.00
C351   C     0.17337   0.82112   0.01443   0.00000  Uiso   1.00
C352   C     0.17969   0.77970   0.49626   0.00000  Uiso   1.00
C353   C     0.17019   0.76493   0.45566   0.00000  Uiso   1.00
C354   C     0.15600   0.79083   0.43179   0.00000  Uiso   1.00
H355   H     0.31922   0.80546   0.28961   0.00000  Uiso   1.00
H356   H     0.14658   0.77674   0.40202   0.00000  Uiso   1.00
H357   H     0.01551   0.86116   0.21057   0.00000  Uiso   1.00
H358   H     0.24103   0.74760   0.09286   0.00000  Uiso   1.00
H359   H     0.21348   0.70700   0.06997   0.00000  Uiso   1.00
H360   H     0.20677   0.67034   0.21160   0.00000  Uiso   1.00
H361   H     0.12503   0.99791   0.28877   0.00000  Uiso   1.00
H362   H     0.17300   0.73281   0.44258   0.00000  Uiso   1.00
H363   H     0.19864   0.72111   0.00528   0.00000  Uiso   1.00
H364   H     0.17452   0.86358   0.07407   0.00000  Uiso   1.00
H365   H     0.12705   0.92272   0.41744   0.00000  Uiso   1.00
H366   H     0.15383   0.90279   0.03857   0.00000  Uiso   1.00
H367   H     0.13154   0.94623   0.49374   0.00000  Uiso   1.00
N368   N     0.21063   0.73604   0.08806   0.00000  Uiso   1.00
O369   O     0.16667   0.83333   0.25000   0.00000  Uiso   1.00
O370   O     0.15451   0.79304   0.15458   0.00000  Uiso   1.00
O371   O     0.12940   0.87058   0.34968   0.00000  Uiso   1.00
O372   O     0.20824   0.84425   0.14606   0.00000  Uiso   1.00
O373   O     0.17451   0.82546   0.34968   0.00000  Uiso   1.00
O374   O     0.17930   0.74686   0.28214   0.00000  Uiso   1.00
O375   O     0.14632   0.92751   0.27013   0.00000  Uiso   1.00
O376   O     0.07412   0.79958   0.23413   0.00000  Uiso   1.00
O377   O     0.26693   0.85939   0.21360   0.00000  Uiso   1.00
O378   O     0.07071   0.85544   0.28213   0.00000  Uiso   1.00
O379   O     0.25491   0.81892   0.27013   0.00000  Uiso   1.00
O380   O     0.13760   0.73610   0.23413   0.00000  Uiso   1.00
O381   O     0.20345   0.92286   0.21360   0.00000  Uiso   1.00
Zn382  Zn    0.19338   0.80661   0.28734   0.00000  Uiso   1.00
Zn383  Zn    0.13379   0.79124   0.21875   0.00000  Uiso   1.00
Zn384  Zn    0.21056   0.86442   0.20657   0.00000  Uiso   1.00
Zn385  Zn    0.12893   0.87106   0.28733   0.00000  Uiso   1.00
C386   C     0.38606   0.82620   0.25999   0.00000  Uiso   1.00
C387   C     0.51363   0.83335   0.05725   0.00000  Uiso   1.00
C388   C     0.53248   0.76481   0.06261   0.00000  Uiso   1.00
C389   C     0.61406   0.84044   0.24005   0.00000  Uiso   1.00
C390   C     0.47687   0.86091   0.41941   0.00000  Uiso   1.00
C391   C     0.65990   0.84315   0.23610   0.00000  Uiso   1.00
C392   C     0.34080   0.82357   0.26378   0.00000  Uiso   1.00
C393   C     0.51372   0.98911   0.23657   0.00000  Uiso   1.00
C394   C     0.48513   0.67836   0.26372   0.00000  Uiso   1.00
C395   C     0.48945   0.72249   0.26014   0.00000  Uiso   1.00
C396   C     0.50988   0.94453   0.24019   0.00000  Uiso   1.00
C397   C     0.47119   0.91488   0.48051   0.00000  Uiso   1.00
C398   C     0.51843   0.81456   0.12946   0.00000  Uiso   1.00
C399   C     0.48151   0.85085   0.37100   0.00000  Uiso   1.00
C400   C     0.52700   0.75251   0.01970   0.00000  Uiso   1.00
C401   C     0.52474   0.80514   0.08153   0.00000  Uiso   1.00
C402   C     0.46805   0.90112   0.43741   0.00000  Uiso   1.00
C403   C     0.48422   0.88929   0.00606   0.00000  Uiso   1.00
C404   C     0.49257   0.84810   0.48962   0.00000  Uiso   1.00
C405   C     0.48636   0.83318   0.44656   0.00000  Uiso   1.00
C406   C     0.50670   0.82112   0.01443   0.00000  Uiso   1.00
C407   C     0.51302   0.77970   0.49626   0.00000  Uiso   1.00
C408   C     0.50352   0.76493   0.45566   0.00000  Uiso   1.00
C409   C     0.48934   0.79083   0.43179   0.00000  Uiso   1.00
H410   H     0.65255   0.80546   0.28961   0.00000  Uiso   1.00
H411   H     0.47991   0.77674   0.40202   0.00000  Uiso   1.00
H412   H     0.34885   0.86116   0.21057   0.00000  Uiso   1.00
H413   H     0.57436   0.74760   0.09286   0.00000  Uiso   1.00
H414   H     0.54682   0.70700   0.06997   0.00000  Uiso   1.00
H415   H     0.54010   0.67034   0.21160   0.00000  Uiso   1.00
H416   H     0.45837   0.99791   0.28877   0.00000  Uiso   1.00
H417   H     0.50634   0.73281   0.44258   0.00000  Uiso   1.00
H418   H     0.53197   0.72111   0.00528   0.00000  Uiso   1.00
H419   H     0.50785   0.86358   0.07407   0.00000  Uiso   1.00
H420   H     0.46038   0.92272   0.41744   0.00000  Uiso   1.00
H421   H     0.48716   0.90279   0.03857   0.00000  Uiso   1.00
H422   H     0.46487   0.94623   0.49374   0.00000  Uiso   1.00
N423   N     0.54397   0.73604   0.08806   0.00000  Uiso   1.00
O424   O     0.50000   0.83333   0.25000   0.00000  Uiso   1.00
O425   O     0.48784   0.79304   0.15458   0.00000  Uiso   1.00
O426   O     0.46274   0.87058   0.34968   0.00000  Uiso   1.00
O427   O     0.54157   0.84425   0.14606   0.00000  Uiso   1.00
O428   O     0.50785   0.82546   0.34968   0.00000  Uiso   1.00
O429   O     0.51264   0.74686   0.28214   0.00000  Uiso   1.00
O430   O     0.47965   0.92751   0.27013   0.00000  Uiso   1.00
O431   O     0.40745   0.79958   0.23413   0.00000  Uiso   1.00
O432   O     0.60026   0.85939   0.21360   0.00000  Uiso   1.00
O433   O     0.40405   0.85544   0.28213   0.00000  Uiso   1.00
O434   O     0.58824   0.81892   0.27013   0.00000  Uiso   1.00
O435   O     0.47093   0.73610   0.23413   0.00000  Uiso   1.00
O436   O     0.53678   0.92286   0.21360   0.00000  Uiso   1.00
Zn437  Zn    0.52672   0.80661   0.28734   0.00000  Uiso   1.00
Zn438  Zn    0.46713   0.79124   0.21875   0.00000  Uiso   1.00
Zn439  Zn    0.54389   0.86442   0.20657   0.00000  Uiso   1.00
Zn440  Zn    0.46226   0.87106   0.28733   0.00000  Uiso   1.00
C441   C     0.71939   0.82620   0.25999   0.00000  Uiso   1.00
C442   C     0.84696   0.83335   0.05725   0.00000  Uiso   1.00
C443   C     0.86582   0.76481   0.06261   0.00000  Uiso   1.00
C444   C     0.94740   0.84044   0.24005   0.00000  Uiso   1.00
C445   C     0.81020   0.86091   0.41941   0.00000  Uiso   1.00
C446   C     0.99323   0.84315   0.23610   0.00000  Uiso   1.00
C447   C     0.67413   0.82357   0.26378   0.00000  Uiso   1.00
C448   C     0.84706   0.98911   0.23657   0.00000  Uiso   1.00
C449   C     0.81847   0.67836   0.26372   0.00000  Uiso   1.00
C450   C     0.82278   0.72249   0.26014   0.00000  Uiso   1.00
C451   C     0.84321   0.94453   0.24019   0.00000  Uiso   1.00
C452   C     0.80453   0.91488   0.48051   0.00000  Uiso   1.00
C453   C     0.85177   0.81456   0.12946   0.00000  Uiso   1.00
C454   C     0.81484   0.85085   0.37100   0.00000  Uiso   1.00
C455   C     0.86033   0.75251   0.01970   0.00000  Uiso   1.00
C456   C     0.85807   0.80514   0.08153   0.00000  Uiso   1.00
C457   C     0.80138   0.90112   0.43741   0.00000  Uiso   1.00
C458   C     0.81755   0.88929   0.00606   0.00000  Uiso   1.00
C459   C     0.82590   0.84810   0.48962   0.00000  Uiso   1.00
C460   C     0.81970   0.83318   0.44656   0.00000  Uiso   1.00
C461   C     0.84004   0.82112   0.01443   0.00000  Uiso   1.00
C462   C     0.84635   0.77970   0.49626   0.00000  Uiso   1.00
C463   C     0.83686   0.76493   0.45566   0.00000  Uiso   1.00
C464   C     0.82267   0.79083   0.43179   0.00000  Uiso   1.00
H465   H     0.98589   0.80546   0.28961   0.00000  Uiso   1.00
H466   H     0.81324   0.77674   0.40202   0.00000  Uiso   1.00
H467   H     0.68218   0.86116   0.21057   0.00000  Uiso   1.00
H468   H     0.90769   0.74760   0.09286   0.00000  Uiso   1.00
H469   H     0.88015   0.70700   0.06997   0.00000  Uiso   1.00
H470   H     0.87344   0.67034   0.21160   0.00000  Uiso   1.00
H471   H     0.79170   0.99791   0.28877   0.00000  Uiso   1.00
H472   H     0.83967   0.73281   0.44258   0.00000  Uiso   1.00
H473   H     0.86531   0.72111   0.00528   0.00000  Uiso   1.00
H474   H     0.84119   0.86358   0.07407   0.00000  Uiso   1.00
H475   H     0.79372   0.92272   0.41744   0.00000  Uiso   1.00
H476   H     0.82050   0.90279   0.03857   0.00000  Uiso   1.00
H477   H     0.79820   0.94623   0.49374   0.00000  Uiso   1.00
N478   N     0.87730   0.73604   0.08806   0.00000  Uiso   1.00
O479   O     0.83333   0.83333   0.25000   0.00000  Uiso   1.00
O480   O     0.82118   0.79304   0.15458   0.00000  Uiso   1.00
O481   O     0.79607   0.87058   0.34968   0.00000  Uiso   1.00
O482   O     0.87491   0.84425   0.14606   0.00000  Uiso   1.00
O483   O     0.84118   0.82546   0.34968   0.00000  Uiso   1.00
O484   O     0.84597   0.74686   0.28214   0.00000  Uiso   1.00
O485   O     0.81298   0.92751   0.27013   0.00000  Uiso   1.00
O486   O     0.74078   0.79958   0.23413   0.00000  Uiso   1.00
O487   O     0.93360   0.85939   0.21360   0.00000  Uiso   1.00
O488   O     0.73738   0.85544   0.28213   0.00000  Uiso   1.00
O489   O     0.92158   0.81892   0.27013   0.00000  Uiso   1.00
O490   O     0.80426   0.73610   0.23413   0.00000  Uiso   1.00
O491   O     0.87012   0.92286   0.21360   0.00000  Uiso   1.00
Zn492  Zn    0.86005   0.80661   0.28734   0.00000  Uiso   1.00
Zn493  Zn    0.80046   0.79124   0.21875   0.00000  Uiso   1.00
Zn494  Zn    0.87723   0.86442   0.20657   0.00000  Uiso   1.00
Zn495  Zn    0.79560   0.87106   0.28733   0.00000  Uiso   1.00
C496   C     0.05273   0.15953   0.75999   0.00000  Uiso   1.00
C497   C     0.18030   0.16669   0.55725   0.00000  Uiso   1.00
C498   C     0.19915   0.09814   0.56261   0.00000  Uiso   1.00
C499   C     0.28073   0.17377   0.74005   0.00000  Uiso   1.00
C500   C     0.14353   0.19424   0.91941   0.00000  Uiso   1.00
C501   C     0.32656   0.17648   0.73610   0.00000  Uiso   1.00
C502   C     0.00746   0.15690   0.76378   0.00000  Uiso   1.00
C503   C     0.18039   0.32244   0.73657   0.00000  Uiso   1.00
C504   C     0.15180   0.01170   0.76372   0.00000  Uiso   1.00
C505   C     0.15612   0.05583   0.76014   0.00000  Uiso   1.00
C506   C     0.17655   0.27786   0.74019   0.00000  Uiso   1.00
C507   C     0.13786   0.24822   0.98051   0.00000  Uiso   1.00
C508   C     0.18510   0.14789   0.62946   0.00000  Uiso   1.00
C509   C     0.14818   0.18418   0.87100   0.00000  Uiso   1.00
C510   C     0.19366   0.08585   0.51970   0.00000  Uiso   1.00
C511   C     0.19141   0.13847   0.58153   0.00000  Uiso   1.00
C512   C     0.13471   0.23446   0.93741   0.00000  Uiso   1.00
C513   C     0.15088   0.22263   0.50606   0.00000  Uiso   1.00
C514   C     0.15923   0.18143   0.98962   0.00000  Uiso   1.00
C515   C     0.15303   0.16651   0.94656   0.00000  Uiso   1.00
C516   C     0.17337   0.15446   0.51443   0.00000  Uiso   1.00
C517   C     0.17969   0.11304   0.99626   0.00000  Uiso   1.00
C518   C     0.17019   0.09827   0.95566   0.00000  Uiso   1.00
C519   C     0.15600   0.12417   0.93179   0.00000  Uiso   1.00
H520   H     0.31922   0.13880   0.78961   0.00000  Uiso   1.00
H521   H     0.14658   0.11007   0.90202   0.00000  Uiso   1.00
H522   H     0.01551   0.19449   0.71057   0.00000  Uiso   1.00
H523   H     0.24103   0.08094   0.59286   0.00000  Uiso   1.00
H524   H     0.21348   0.04033   0.56997   0.00000  Uiso   1.00
H525   H     0.20677   0.00368   0.71160   0.00000  Uiso   1.00
H526   H     0.12503   0.33125   0.78877   0.00000  Uiso   1.00
H527   H     0.17300   0.06614   0.94258   0.00000  Uiso   1.00
H528   H     0.19864   0.05444   0.50528   0.00000  Uiso   1.00
H529   H     0.17452   0.19691   0.57407   0.00000  Uiso   1.00
H530   H     0.12705   0.25605   0.91744   0.00000  Uiso   1.00
H531   H     0.15383   0.23613   0.53857   0.00000  Uiso   1.00
H532   H     0.13154   0.27957   0.99374   0.00000  Uiso   1.00
N533   N     0.21063   0.06938   0.58806   0.00000  Uiso   1.00
O534   O     0.16667   0.16667   0.75000   0.00000  Uiso   1.00
O535   O     0.15451   0.12637   0.65458   0.00000  Uiso   1.00
O536   O     0.12940   0.20391   0.84968   0.00000  Uiso   1.00
O537   O     0.20824   0.17759   0.64606   0.00000  Uiso   1.00
O538   O     0.17451   0.15880   0.84968   0.00000  Uiso   1.00
O539   O     0.17930   0.08019   0.78214   0.00000  Uiso   1.00
O540   O     0.14632   0.26085   0.77013   0.00000  Uiso   1.00
O541   O     0.07412   0.13291   0.73413   0.00000  Uiso   1.00
O542   O     0.26693   0.19272   0.71360   0.00000  Uiso   1.00
O543   O     0.07071   0.18878   0.78213   0.00000  Uiso   1.00
O544   O     0.25491   0.15226   0.77013   0.00000  Uiso   1.00
O545   O     0.13760   0.06944   0.73413   0.00000  Uiso   1.00
O546   O     0.20345   0.25620   0.71360   0.00000  Uiso   1.00
Zn547  Zn    0.19338   0.13994   0.78734   0.00000  Uiso   1.00
Zn548  Zn    0.13379   0.12458   0.71875   0.00000  Uiso   1.00
Zn549  Zn    0.21056   0.19775   0.70657   0.00000  Uiso   1.00
Zn550  Zn    0.12893   0.20439   0.78733   0.00000  Uiso   1.00
C551   C     0.38606   0.15953   0.75999   0.00000  Uiso   1.00
C552   C     0.51363   0.16669   0.55725   0.00000  Uiso   1.00
C553   C     0.53248   0.09814   0.56261   0.00000  Uiso   1.00
C554   C     0.61406   0.17377   0.74005   0.00000  Uiso   1.00
C555   C     0.47687   0.19424   0.91941   0.00000  Uiso   1.00
C556   C     0.65990   0.17648   0.73610   0.00000  Uiso   1.00
C557   C     0.34080   0.15690   0.76378   0.00000  Uiso   1.00
C558   C     0.51372   0.32244   0.73657   0.00000  Uiso   1.00
C559   C     0.48513   0.01170   0.76372   0.00000  Uiso   1.00
C560   C     0.48945   0.05583   0.76014   0.00000  Uiso   1.00
C561   C     0.50988   0.27786   0.74019   0.00000  Uiso   1.00
C562   C     0.47119   0.24822   0.98051   0.00000  Uiso   1.00
C563   C     0.51843   0.14789   0.62946   0.00000  Uiso   1.00
C564   C     0.48151   0.18418   0.87100   0.00000  Uiso   1.00
C565   C     0.52700   0.08585   0.51970   0.00000  Uiso   1.00
C566   C     0.52474   0.13847   0.58153   0.00000  Uiso   1.00
C567   C     0.46805   0.23446   0.93741   0.00000  Uiso   1.00
C568   C     0.48422   0.22263   0.50606   0.00000  Uiso   1.00
C569   C     0.49257   0.18143   0.98962   0.00000  Uiso   1.00
C570   C     0.48636   0.16651   0.94656   0.00000  Uiso   1.00
C571   C     0.50670   0.15446   0.51443   0.00000  Uiso   1.00
C572   C     0.51302   0.11304   0.99626   0.00000  Uiso   1.00
C573   C     0.50352   0.09827   0.95566   0.00000  Uiso   1.00
C574   C     0.48934   0.12417   0.93179   0.00000  Uiso   1.00
H575   H     0.65255   0.13880   0.78961   0.00000  Uiso   1.00
H576   H     0.47991   0.11007   0.90202   0.00000  Uiso   1.00
H577   H     0.34885   0.19449   0.71057   0.00000  Uiso   1.00
H578   H     0.57436   0.08094   0.59286   0.00000  Uiso   1.00
H579   H     0.54682   0.04033   0.56997   0.00000  Uiso   1.00
H580   H     0.54010   0.00368   0.71160   0.00000  Uiso   1.00
H581   H     0.45837   0.33125   0.78877   0.00000  Uiso   1.00
H582   H     0.50634   0.06614   0.94258   0.00000  Uiso   1.00
H583   H     0.53197   0.05444   0.50528   0.00000  Uiso   1.00
H584   H     0.50785   0.19691   0.57407   0.00000  Uiso   1.00
H585   H     0.46038   0.25605   0.91744   0.00000  Uiso   1.00
H586   H     0.48716   0.23613   0.53857   0.00000  Uiso   1.00
H587   H     0.46487   0.27957   0.99374   0.00000  Uiso   1.00
N588   N     0.54397   0.06938   0.58806   0.00000  Uiso   1.00
O589   O     0.50000   0.16667   0.75000   0.00000  Uiso   1.00
O590   O     0.48784   0.12637   0.65458   0.00000  Uiso   1.00
O591   O     0.46274   0.20391   0.84968   0.00000  Uiso   1.00
O592   O     0.54157   0.17759   0.64606   0.00000  Uiso   1.00
O593   O     0.50785   0.15880   0.84968   0.00000  Uiso   1.00
O594   O     0.51264   0.08019   0.78214   0.00000  Uiso   1.00
O595   O     0.47965   0.26085   0.77013   0.00000  Uiso   1.00
O596   O     0.40745   0.13291   0.73413   0.00000  Uiso   1.00
O597   O     0.60026   0.19272   0.71360   0.00000  Uiso   1.00
O598   O     0.40405   0.18878   0.78213   0.00000  Uiso   1.00
O599   O     0.58824   0.15226   0.77013   0.00000  Uiso   1.00
O600   O     0.47093   0.06944   0.73413   0.00000  Uiso   1.00
O601   O     0.53678   0.25620   0.71360   0.00000  Uiso   1.00
Zn602  Zn    0.52672   0.13994   0.78734   0.00000  Uiso   1.00
Zn603  Zn    0.46713   0.12458   0.71875   0.00000  Uiso   1.00
Zn604  Zn    0.54389   0.19775   0.70657   0.00000  Uiso   1.00
Zn605  Zn    0.46226   0.20439   0.78733   0.00000  Uiso   1.00
C606   C     0.71939   0.15953   0.75999   0.00000  Uiso   1.00
C607   C     0.84696   0.16669   0.55725   0.00000  Uiso   1.00
C608   C     0.86582   0.09814   0.56261   0.00000  Uiso   1.00
C609   C     0.94740   0.17377   0.74005   0.00000  Uiso   1.00
C610   C     0.81020   0.19424   0.91941   0.00000  Uiso   1.00
C611   C     0.99323   0.17648   0.73610   0.00000  Uiso   1.00
C612   C     0.67413   0.15690   0.76378   0.00000  Uiso   1.00
C613   C     0.84706   0.32244   0.73657   0.00000  Uiso   1.00
C614   C     0.81847   0.01170   0.76372   0.00000  Uiso   1.00
C615   C     0.82278   0.05583   0.76014   0.00000  Uiso   1.00
C616   C     0.84321   0.27786   0.74019   0.00000  Uiso   1.00
C617   C     0.80453   0.24822   0.98051   0.00000  Uiso   1.00
C618   C     0.85177   0.14789   0.62946   0.00000  Uiso   1.00
C619   C     0.81484   0.18418   0.87100   0.00000  Uiso   1.00
C620   C     0.86033   0.08585   0.51970   0.00000  Uiso   1.00
C621   C     0.85807   0.13847   0.58153   0.00000  Uiso   1.00
C622   C     0.80138   0.23446   0.93741   0.00000  Uiso   1.00
C623   C     0.81755   0.22263   0.50606   0.00000  Uiso   1.00
C624   C     0.82590   0.18143   0.98962   0.00000  Uiso   1.00
C625   C     0.81970   0.16651   0.94656   0.00000  Uiso   1.00
C626   C     0.84004   0.15446   0.51443   0.00000  Uiso   1.00
C627   C     0.84635   0.11304   0.99626   0.00000  Uiso   1.00
C628   C     0.83686   0.09827   0.95566   0.00000  Uiso   1.00
C629   C     0.82267   0.12417   0.93179   0.00000  Uiso   1.00
H630   H     0.98589   0.13880   0.78961   0.00000  Uiso   1.00
H631   H     0.81324   0.11007   0.90202   0.00000  Uiso   1.00
H632   H     0.68218   0.19449   0.71057   0.00000  Uiso   1.00
H633   H     0.90769   0.08094   0.59286   0.00000  Uiso   1.00
H634   H     0.88015   0.04033   0.56997   0.00000  Uiso   1.00
H635   H     0.87344   0.00368   0.71160   0.00000  Uiso   1.00
H636   H     0.79170   0.33125   0.78877   0.00000  Uiso   1.00
H637   H     0.83967   0.06614   0.94258   0.00000  Uiso   1.00
H638   H     0.86531   0.05444   0.50528   0.00000  Uiso   1.00
H639   H     0.84119   0.19691   0.57407   0.00000  Uiso   1.00
H640   H     0.79372   0.25605   0.91744   0.00000  Uiso   1.00
H641   H     0.82050   0.23613   0.53857   0.00000  Uiso   1.00
H642   H     0.79820   0.27957   0.99374   0.00000  Uiso   1.00
N643   N     0.87730   0.06938   0.58806   0.00000  Uiso   1.00
O644   O     0.83333   0.16667   0.75000   0.00000  Uiso   1.00
O645   O     0.82118   0.12637   0.65458   0.00000  Uiso   1.00
O646   O     0.79607   0.20391   0.84968   0.00000  Uiso   1.00
O647   O     0.87491   0.17759   0.64606   0.00000  Uiso   1.00
O648   O     0.84118   0.15880   0.84968   0.00000  Uiso   1.00
O649   O     0.84597   0.08019   0.78214   0.00000  Uiso   1.00
O650   O     0.81298   0.26085   0.77013   0.00000  Uiso   1.00
O651   O     0.74078   0.13291   0.73413   0.00000  Uiso   1.00
O652   O     0.93360   0.19272   0.71360   0.00000  Uiso   1.00
O653   O     0.73738   0.18878   0.78213   0.00000  Uiso   1.00
O654   O     0.92158   0.15226   0.77013   0.00000  Uiso   1.00
O655   O     0.80426   0.06944   0.73413   0.00000  Uiso   1.00
O656   O     0.87012   0.25620   0.71360   0.00000  Uiso   1.00
Zn657  Zn    0.86005   0.13994   0.78734   0.00000  Uiso   1.00
Zn658  Zn    0.80046   0.12458   0.71875   0.00000  Uiso   1.00
Zn659  Zn    0.87723   0.19775   0.70657   0.00000  Uiso   1.00
Zn660  Zn    0.79560   0.20439   0.78733   0.00000  Uiso   1.00
C661   C     0.05273   0.49287   0.75999   0.00000  Uiso   1.00
C662   C     0.18030   0.50002   0.55725   0.00000  Uiso   1.00
C663   C     0.19915   0.43147   0.56261   0.00000  Uiso   1.00
C664   C     0.28073   0.50710   0.74005   0.00000  Uiso   1.00
C665   C     0.14353   0.52758   0.91941   0.00000  Uiso   1.00
C666   C     0.32656   0.50981   0.73610   0.00000  Uiso   1.00
C667   C     0.00746   0.49024   0.76378   0.00000  Uiso   1.00
C668   C     0.18039   0.65577   0.73657   0.00000  Uiso   1.00
C669   C     0.15180   0.34503   0.76372   0.00000  Uiso   1.00
C670   C     0.15612   0.38916   0.76014   0.00000  Uiso   1.00
C671   C     0.17655   0.61120   0.74019   0.00000  Uiso   1.00
C672   C     0.13786   0.58155   0.98051   0.00000  Uiso   1.00
C673   C     0.18510   0.48123   0.62946   0.00000  Uiso   1.00
C674   C     0.14818   0.51752   0.87100   0.00000  Uiso   1.00
C675   C     0.19366   0.41918   0.51970   0.00000  Uiso   1.00
C676   C     0.19141   0.47180   0.58153   0.00000  Uiso   1.00
C677   C     0.13471   0.56779   0.93741   0.00000  Uiso   1.00
C678   C     0.15088   0.55596   0.50606   0.00000  Uiso   1.00
C679   C     0.15923   0.51477   0.98962   0.00000  Uiso   1.00
C680   C     0.15303   0.49985   0.94656   0.00000  Uiso   1.00
C681   C     0.17337   0.48779   0.51443   0.00000  Uiso   1.00
C682   C     0.17969   0.44637   0.99626   0.00000  Uiso   1.00
C683   C     0.17019   0.43160   0.95566   0.00000  Uiso   1.00
C684   C     0.15600   0.45750   0.93179   0.00000  Uiso   1.00
H685   H     0.31922   0.47213   0.78961   0.00000  Uiso   1.00
H686   H     0.14658   0.44341   0.90202   0.00000  Uiso   1.00
H687   H     0.01551   0.52782   0.71057   0.00000  Uiso   1.00
H688   H     0.24103   0.41427   0.59286   0.00000  Uiso   1.00
H689   H     0.21348   0.37367   0.56997   0.00000  Uiso   1.00
H690   H     0.20677   0.33701   0.71160   0.00000  Uiso   1.00
H691   H     0.12503   0.66458   0.78877   0.00000  Uiso   1.00
H692   H     0.17300   0.39948   0.94258   0.00000  Uiso   1.00
H693   H     0.19864   0.38778   0.50528   0.00000  Uiso   1.00
H694   H     0.17452   0.53024   0.57407   0.00000  Uiso   1.00
H695   H     0.12705   0.58939   0.91744   0.00000  Uiso   1.00
H696   H     0.15383   0.56946   0.53857   0.00000  Uiso   1.00
H697   H     0.13154   0.61290   0.99374   0.00000  Uiso   1.00
N698   N     0.21063   0.40271   0.58806   0.00000  Uiso   1.00
O699   O     0.16667   0.50000   0.75000   0.00000  Uiso   1.00
O700   O     0.15451   0.45970   0.65458   0.00000  Uiso   1.00
O701   O     0.12940   0.53724   0.84968   0.00000  Uiso   1.00
O702   O     0.20824   0.51092   0.64606   0.00000  Uiso   1.00
O703   O     0.17451   0.49213   0.84968   0.00000  Uiso   1.00
O704   O     0.17930   0.41352   0.78214   0.00000  Uiso   1.00
O705   O     0.14632   0.59418   0.77013   0.00000  Uiso   1.00
O706   O     0.07412   0.46625   0.73413   0.00000  Uiso   1.00
O707   O     0.26693   0.52605   0.71360   0.00000  Uiso   1.00
O708   O     0.07071   0.52211   0.78213   0.00000  Uiso   1.00
O709   O     0.25491   0.48559   0.77013   0.00000  Uiso   1.00
O710   O     0.13760   0.40277   0.73413   0.00000  Uiso   1.00
O711   O     0.20345   0.58953   0.71360   0.00000  Uiso   1.00
Zn712  Zn    0.19338   0.47327   0.78734   0.00000  Uiso   1.00
Zn713  Zn    0.13379   0.45791   0.71875   0.00000  Uiso   1.00
Zn714  Zn    0.21056   0.53109   0.70657   0.00000  Uiso   1.00
Zn715  Zn    0.12893   0.53773   0.78733   0.00000  Uiso   1.00
C716   C     0.38606   0.49287   0.75999   0.00000  Uiso   1.00
C717   C     0.51363   0.50002   0.55725   0.00000  Uiso   1.00
C718   C     0.53248   0.43147   0.56261   0.00000  Uiso   1.00
C719   C     0.61406   0.50710   0.74005   0.00000  Uiso   1.00
C720   C     0.47687   0.52758   0.91941   0.00000  Uiso   1.00
C721   C     0.65990   0.50981   0.73610   0.00000  Uiso   1.00
C722   C     0.34080   0.49024   0.76378   0.00000  Uiso   1.00
C723   C     0.51372   0.65577   0.73657   0.00000  Uiso   1.00
C724   C     0.48513   0.34503   0.76372   0.00000  Uiso   1.00
C725   C     0.48945   0.38916   0.76014   0.00000  Uiso   1.00
C726   C     0.50988   0.61120   0.74019   0.00000  Uiso   1.00
C727   C     0.47119   0.58155   0.98051   0.00000  Uiso   1.00
C728   C     0.51843   0.48123   0.62946   0.00000  Uiso   1.00
C729   C     0.48151   0.51752   0.87100   0.00000  Uiso   1.00
C730   C     0.52700   0.41918   0.51970   0.00000  Uiso   1.00
C731   C     0.52474   0.47180   0.58153   0.00000  Uiso   1.00
C732   C     0.46805   0.56779   0.93741   0.00000  Uiso   1.00
C733   C     0.48422   0.55596   0.50606   0.00000  Uiso   1.00
C734   C     0.49257   0.51477   0.98962   0.00000  Uiso   1.00
C735   C     0.48636   0.49985   0.94656   0.00000  Uiso   1.00
C736   C     0.50670   0.48779   0.51443   0.00000  Uiso   1.00
C737   C     0.51302   0.44637   0.99626   0.00000  Uiso   1.00
C738   C     0.50352   0.43160   0.95566   0.00000  Uiso   1.00
C739   C     0.48934   0.45750   0.93179   0.00000  Uiso   1.00
H740   H     0.65255   0.47213   0.78961   0.00000  Uiso   1.00
H741   H     0.47991   0.44341   0.90202   0.00000  Uiso   1.00
H742   H     0.34885   0.52782   0.71057   0.00000  Uiso   1.00
H743   H     0.57436   0.41427   0.59286   0.00000  Uiso   1.00
H744   H     0.54682   0.37367   0.56997   0.00000  Uiso   1.00
H745   H     0.54010   0.33701   0.71160   0.00000  Uiso   1.00
H746   H     0.45837   0.66458   0.78877   0.00000  Uiso   1.00
H747   H     0.50634   0.39948   0.94258   0.00000  Uiso   1.00
H748   H     0.53197   0.38778   0.50528   0.00000  Uiso   1.00
H749   H     0.50785   0.53024   0.57407   0.00000  Uiso   1.00
H750   H     0.46038   0.58939   0.91744   0.00000  Uiso   1.00
H751   H     0.48716   0.56946   0.53857   0.00000  Uiso   1.00
H752   H     0.46487   0.61290   0.99374   0.00000  Uiso   1.00
N753   N     0.54397   0.40271   0.58806   0.00000  Uiso   1.00
O754   O     0.50000   0.50000   0.75000   0.00000  Uiso   1.00
O755   O     0.48784   0.45970   0.65458   0.00000  Uiso   1.00
O756   O     0.46274   0.53724   0.84968   0.00000  Uiso   1.00
O757   O     0.54157   0.51092   0.64606   0.00000  Uiso   1.00
O758   O     0.50785   0.49213   0.84968   0.00000  Uiso   1.00
O759   O     0.51264   0.41352   0.78214   0.00000  Uiso   1.00
O760   O     0.47965   0.59418   0.77013   0.00000  Uiso   1.00
O761   O     0.40745   0.46625   0.73413   0.00000  Uiso   1.00
O762   O     0.60026   0.52605   0.71360   0.00000  Uiso   1.00
O763   O     0.40405   0.52211   0.78213   0.00000  Uiso   1.00
O764   O     0.58824   0.48559   0.77013   0.00000  Uiso   1.00
O765   O     0.47093   0.40277   0.73413   0.00000  Uiso   1.00
O766   O     0.53678   0.58953   0.71360   0.00000  Uiso   1.00
Zn767  Zn    0.52672   0.47327   0.78734   0.00000  Uiso   1.00
Zn768  Zn    0.46713   0.45791   0.71875   0.00000  Uiso   1.00
Zn769  Zn    0.54389   0.53109   0.70657   0.00000  Uiso   1.00
Zn770  Zn    0.46226   0.53773   0.78733   0.00000  Uiso   1.00
C771   C     0.71939   0.49287   0.75999   0.00000  Uiso   1.00
C772   C     0.84696   0.50002   0.55725   0.00000  Uiso   1.00
C773   C     0.86582   0.43147   0.56261   0.00000  Uiso   1.00
C774   C     0.94740   0.50710   0.74005   0.00000  Uiso   1.00
C775   C     0.81020   0.52758   0.91941   0.00000  Uiso   1.00
C776   C     0.99323   0.50981   0.73610   0.00000  Uiso   1.00
C777   C     0.67413   0.49024   0.76378   0.00000  Uiso   1.00
C778   C     0.84706   0.65577   0.73657   0.00000  Uiso   1.00
C779   C     0.81847   0.34503   0.76372   0.00000  Uiso   1.00
C780   C     0.82278   0.38916   0.76014   0.00000  Uiso   1.00
C781   C     0.84321   0.61120   0.74019   0.00000  Uiso   1.00
C782   C     0.80453   0.58155   0.98051   0.00000  Uiso   1.00
C783   C     0.85177   0.48123   0.62946   0.00000  Uiso   1.00
C784   C     0.81484   0.51752   0.87100   0.00000  Uiso   1.00
C785   C     0.86033   0.41918   0.51970   0.00000  Uiso   1.00
C786   C     0.85807   0.47180   0.58153   0.00000  Uiso   1.00
C787   C     0.80138   0.56779   0.93741   0.00000  Uiso   1.00
C788   C     0.81755   0.55596   0.50606   0.00000  Uiso   1.00
C789   C     0.82590   0.51477   0.98962   0.00000  Uiso   1.00
C790   C     0.81970   0.49985   0.94656   0.00000  Uiso   1.00
C791   C     0.84004   0.48779   0.51443   0.00000  Uiso   1.00
C792   C     0.84635   0.44637   0.99626   0.00000  Uiso   1.00
C793   C     0.83686   0.43160   0.95566   0.00000  Uiso   1.00
C794   C     0.82267   0.45750   0.93179   0.00000  Uiso   1.00
H795   H     0.98589   0.47213   0.78961   0.00000  Uiso   1.00
H796   H     0.81324   0.44341   0.90202   0.00000  Uiso   1.00
H797   H     0.68218   0.52782   0.71057   0.00000  Uiso   1.00
H798   H     0.90769   0.41427   0.59286   0.00000  Uiso   1.00
H799   H     0.88015   0.37367   0.56997   0.00000  Uiso   1.00
H800   H     0.87344   0.33701   0.71160   0.00000  Uiso   1.00
H801   H     0.79170   0.66458   0.78877   0.00000  Uiso   1.00
H802   H     0.83967   0.39948   0.94258   0.00000  Uiso   1.00
H803   H     0.86531   0.38778   0.50528   0.00000  Uiso   1.00
H804   H     0.84119   0.53024   0.57407   0.00000  Uiso   1.00
H805   H     0.79372   0.58939   0.91744   0.00000  Uiso   1.00
H806   H     0.82050   0.56946   0.53857   0.00000  Uiso   1.00
H807   H     0.79820   0.61290   0.99374   0.00000  Uiso   1.00
N808   N     0.87730   0.40271   0.58806   0.00000  Uiso   1.00
O809   O     0.83333   0.50000   0.75000   0.00000  Uiso   1.00
O810   O     0.82118   0.45970   0.65458   0.00000  Uiso   1.00
O811   O     0.79607   0.53724   0.84968   0.00000  Uiso   1.00
O812   O     0.87491   0.51092   0.64606   0.00000  Uiso   1.00
O813   O     0.84118   0.49213   0.84968   0.00000  Uiso   1.00
O814   O     0.84597   0.41352   0.78214   0.00000  Uiso   1.00
O815   O     0.81298   0.59418   0.77013   0.00000  Uiso   1.00
O816   O     0.74078   0.46625   0.73413   0.00000  Uiso   1.00
O817   O     0.93360   0.52605   0.71360   0.00000  Uiso   1.00
O818   O     0.73738   0.52211   0.78213   0.00000  Uiso   1.00
O819   O     0.92158   0.48559   0.77013   0.00000  Uiso   1.00
O820   O     0.80426   0.40277   0.73413   0.00000  Uiso   1.00
O821   O     0.87012   0.58953   0.71360   0.00000  Uiso   1.00
Zn822  Zn    0.86005   0.47327   0.78734   0.00000  Uiso   1.00
Zn823  Zn    0.80046   0.45791   0.71875   0.00000  Uiso   1.00
Zn824  Zn    0.87723   0.53109   0.70657   0.00000  Uiso   1.00
Zn825  Zn    0.79560   0.53773   0.78733   0.00000  Uiso   1.00
C826   C     0.05273   0.82620   0.75999   0.00000  Uiso   1.00
C827   C     0.18030   0.83335   0.55725   0.00000  Uiso   1.00
C828   C     0.19915   0.76481   0.56261   0.00000  Uiso   1.00
C829   C     0.28073   0.84044   0.74005   0.00000  Uiso   1.00
C830   C     0.14353   0.86091   0.91941   0.00000  Uiso   1.00
C831   C     0.32656   0.84315   0.73610   0.00000  Uiso   1.00
C832   C     0.00746   0.82357   0.76378   0.00000  Uiso   1.00
C833   C     0.18039   0.98911   0.73657   0.00000  Uiso   1.00
C834   C     0.15180   0.67836   0.76372   0.00000  Uiso   1.00
C835   C     0.15612   0.72249   0.76014   0.00000  Uiso   1.00
C836   C     0.17655   0.94453   0.74019   0.00000  Uiso   1.00
C837   C     0.13786   0.91488   0.98051   0.00000  Uiso   1.00
C838   C     0.18510   0.81456   0.62946   0.00000  Uiso   1.00
C839   C     0.14818   0.85085   0.87100   0.00000  Uiso   1.00
C840   C     0.19366   0.75251   0.51970   0.00000  Uiso   1.00
C841   C     0.19141   0.80514   0.58153   0.00000  Uiso   1.00
C842   C     0.13471   0.90112   0.93741   0.00000  Uiso   1.00
C843   C     0.15088   0.88929   0.50606   0.00000  Uiso   1.00
C844   C     0.15923   0.84810   0.98962   0.00000  Uiso   1.00
C845   C     0.15303   0.83318   0.94656   0.00000  Uiso   1.00
C846   C     0.17337   0.82112   0.51443   0.00000  Uiso   1.00
C847   C     0.17969   0.77970   0.99626   0.00000  Uiso   1.00
C848   C     0.17019   0.76493   0.95566   0.00000  Uiso   1.00
C849   C     0.15600   0.79083   0.93179   0.00000  Uiso   1.00
H850   H     0.31922   0.80546   0.78961   0.00000  Uiso   1.00
H851   H     0.14658   0.77674   0.90202   0.00000  Uiso   1.00
H852   H     0.01551   0.86116   0.71057   0.00000  Uiso   1.00
H853   H     0.24103   0.74760   0.59286   0.00000  Uiso   1.00
H854   H     0.21348   0.70700   0.56997   0.00000  Uiso   1.00
H855   H     0.20677   0.67034   0.71160   0.00000  Uiso   1.00
H856   H     0.12503   0.99791   0.78877   0.00000  Uiso   1.00
H857   H     0.17300   0.73281   0.94258   0.00000  Uiso   1.00
H858   H     0.19864   0.72111   0.50528   0.00000  Uiso   1.00
H859   H     0.17452   0.86358   0.57407   0.00000  Uiso   1.00
H860   H     0.12705   0.92272   0.91744   0.00000  Uiso   1.00
H861   H     0.15383   0.90279   0.53857   0.00000  Uiso   1.00
H862   H     0.13154   0.94623   0.99374   0.00000  Uiso   1.00
N863   N     0.21063   0.73604   0.58806   0.00000  Uiso   1.00
O864   O     0.16667   0.83333   0.75000   0.00000  Uiso   1.00
O865   O     0.15451   0.79304   0.65458   0.00000  Uiso   1.00
O866   O     0.12940   0.87058   0.84968   0.00000  Uiso   1.00
O867   O     0.20824   0.84425   0.64606   0.00000  Uiso   1.00
O868   O     0.17451   0.82546   0.84968   0.00000  Uiso   1.00
O869   O     0.17930   0.74686   0.78214   0.00000  Uiso   1.00
O870   O     0.14632   0.92751   0.77013   0.00000  Uiso   1.00
O871   O     0.07412   0.79958   0.73413   0.00000  Uiso   1.00
O872   O     0.26693   0.85939   0.71360   0.00000  Uiso   1.00
O873   O     0.07071   0.85544   0.78213   0.00000  Uiso   1.00
O874   O     0.25491   0.81892   0.77013   0.00000  Uiso   1.00
O875   O     0.13760   0.73610   0.73413   0.00000  Uiso   1.00
O876   O     0.20345   0.92286   0.71360   0.00000  Uiso   1.00
Zn877  Zn    0.19338   0.80661   0.78734   0.00000  Uiso   1.00
Zn878  Zn    0.13379   0.79124   0.71875   0.00000  Uiso   1.00
Zn879  Zn    0.21056   0.86442   0.70657   0.00000  Uiso   1.00
Zn880  Zn    0.12893   0.87106   0.78733   0.00000  Uiso   1.00
C881   C     0.38606   0.82620   0.75999   0.00000  Uiso   1.00
C882   C     0.51363   0.83335   0.55725   0.00000  Uiso   1.00
C883   C     0.53248   0.76481   0.56261   0.00000  Uiso   1.00
C884   C     0.61406   0.84044   0.74005   0.00000  Uiso   1.00
C885   C     0.47687   0.86091   0.91941   0.00000  Uiso   1.00
C886   C     0.65990   0.84315   0.73610   0.00000  Uiso   1.00
C887   C     0.34080   0.82357   0.76378   0.00000  Uiso   1.00
C888   C     0.51372   0.98911   0.73657   0.00000  Uiso   1.00
C889   C     0.48513   0.67836   0.76372   0.00000  Uiso   1.00
C890   C     0.48945   0.72249   0.76014   0.00000  Uiso   1.00
C891   C     0.50988   0.94453   0.74019   0.00000  Uiso   1.00
C892   C     0.47119   0.91488   0.98051   0.00000  Uiso   1.00
C893   C     0.51843   0.81456   0.62946   0.00000  Uiso   1.00
C894   C     0.48151   0.85085   0.87100   0.00000  Uiso   1.00
C895   C     0.52700   0.75251   0.51970   0.00000  Uiso   1.00
C896   C     0.52474   0.80514   0.58153   0.00000  Uiso   1.00
C897   C     0.46805   0.90112   0.93741   0.00000  Uiso   1.00
C898   C     0.48422   0.88929   0.50606   0.00000  Uiso   1.00
C899   C     0.49257   0.84810   0.98962   0.00000  Uiso   1.00
C900   C     0.48636   0.83318   0.94656   0.00000  Uiso   1.00
C901   C     0.50670   0.82112   0.51443   0.00000  Uiso   1.00
C902   C     0.51302   0.77970   0.99626   0.00000  Uiso   1.00
C903   C     0.50352   0.76493   0.95566   0.00000  Uiso   1.00
C904   C     0.48934   0.79083   0.93179   0.00000  Uiso   1.00
H905   H     0.65255   0.80546   0.78961   0.00000  Uiso   1.00
H906   H     0.47991   0.77674   0.90202   0.00000  Uiso   1.00
H907   H     0.34885   0.86116   0.71057   0.00000  Uiso   1.00
H908   H     0.57436   0.74760   0.59286   0.00000  Uiso   1.00
H909   H     0.54682   0.70700   0.56997   0.00000  Uiso   1.00
H910   H     0.54010   0.67034   0.71160   0.00000  Uiso   1.00
H911   H     0.45837   0.99791   0.78877   0.00000  Uiso   1.00
H912   H     0.50634   0.73281   0.94258   0.00000  Uiso   1.00
H913   H     0.53197   0.72111   0.50528   0.00000  Uiso   1.00
H914   H     0.50785   0.86358   0.57407   0.00000  Uiso   1.00
H915   H     0.46038   0.92272   0.91744   0.00000  Uiso   1.00
H916   H     0.48716   0.90279   0.53857   0.00000  Uiso   1.00
H917   H     0.46487   0.94623   0.99374   0.00000  Uiso   1.00
N918   N     0.54397   0.73604   0.58806   0.00000  Uiso   1.00
O919   O     0.50000   0.83333   0.75000   0.00000  Uiso   1.00
O920   O     0.48784   0.79304   0.65458   0.00000  Uiso   1.00
O921   O     0.46274   0.87058   0.84968   0.00000  Uiso   1.00
O922   O     0.54157   0.84425   0.64606   0.00000  Uiso   1.00
O923   O     0.50785   0.82546   0.84968   0.00000  Uiso   1.00
O924   O     0.51264   0.74686   0.78214   0.00000  Uiso   1.00
O925   O     0.47965   0.92751   0.77013   0.00000  Uiso   1.00
O926   O     0.40745   0.79958   0.73413   0.00000  Uiso   1.00
O927   O     0.60026   0.85939   0.71360   0.00000  Uiso   1.00
O928   O     0.40405   0.85544   0.78213   0.00000  Uiso   1.00
O929   O     0.58824   0.81892   0.77013   0.00000  Uiso   1.00
O930   O     0.47093   0.73610   0.73413   0.00000  Uiso   1.00
O931   O     0.53678   0.92286   0.71360   0.00000  Uiso   1.00
Zn932  Zn    0.52672   0.80661   0.78734   0.00000  Uiso   1.00
Zn933  Zn    0.46713   0.79124   0.71875   0.00000  Uiso   1.00
Zn934  Zn    0.54389   0.86442   0.70657   0.00000  Uiso   1.00
Zn935  Zn    0.46226   0.87106   0.78733   0.00000  Uiso   1.00
C936   C     0.71939   0.82620   0.75999   0.00000  Uiso   1.00
C937   C     0.84696   0.83335   0.55725   0.00000  Uiso   1.00
C938   C     0.86582   0.76481   0.56261   0.00000  Uiso   1.00
C939   C     0.94740   0.84044   0.74005   0.00000  Uiso   1.00
C940   C     0.81020   0.86091   0.91941   0.00000  Uiso   1.00
C941   C     0.99323   0.84315   0.73610   0.00000  Uiso   1.00
C942   C     0.67413   0.82357   0.76378   0.00000  Uiso   1.00
C943   C     0.84706   0.98911   0.73657   0.00000  Uiso   1.00
C944   C     0.81847   0.67836   0.76372   0.00000  Uiso   1.00
C945   C     0.82278   0.72249   0.76014   0.00000  Uiso   1.00
C946   C     0.84321   0.94453   0.74019   0.00000  Uiso   1.00
C947   C     0.80453   0.91488   0.98051   0.00000  Uiso   1.00
C948   C     0.85177   0.81456   0.62946   0.00000  Uiso   1.00
C949   C     0.81484   0.85085   0.87100   0.00000  Uiso   1.00
C950   C     0.86033   0.75251   0.51970   0.00000  Uiso   1.00
C951   C     0.85807   0.80514   0.58153   0.00000  Uiso   1.00
C952   C     0.80138   0.90112   0.93741   0.00000  Uiso   1.00
C953   C     0.81755   0.88929   0.50606   0.00000  Uiso   1.00
C954   C     0.82590   0.84810   0.98962   0.00000  Uiso   1.00
C955   C     0.81970   0.83318   0.94656   0.00000  Uiso   1.00
C956   C     0.84004   0.82112   0.51443   0.00000  Uiso   1.00
C957   C     0.84635   0.77970   0.99626   0.00000  Uiso   1.00
C958   C     0.83686   0.76493   0.95566   0.00000  Uiso   1.00
C959   C     0.82267   0.79083   0.93179   0.00000  Uiso   1.00
H960   H     0.98589   0.80546   0.78961   0.00000  Uiso   1.00
H961   H     0.81324   0.77674   0.90202   0.00000  Uiso   1.00
H962   H     0.68218   0.86116   0.71057   0.00000  Uiso   1.00
H963   H     0.90769   0.74760   0.59286   0.00000  Uiso   1.00
H964   H     0.88015   0.70700   0.56997   0.00000  Uiso   1.00
H965   H     0.87344   0.67034   0.71160   0.00000  Uiso   1.00
H966   H     0.79170   0.99791   0.78877   0.00000  Uiso   1.00
H967   H     0.83967   0.73281   0.94258   0.00000  Uiso   1.00
H968   H     0.86531   0.72111   0.50528   0.00000  Uiso   1.00
H969   H     0.84119   0.86358   0.57407   0.00000  Uiso   1.00
H970   H     0.79372   0.92272   0.91744   0.00000  Uiso   1.00
H971   H     0.82050   0.90279   0.53857   0.00000  Uiso   1.00
H972   H     0.79820   0.94623   0.99374   0.00000  Uiso   1.00
N973   N     0.87730   0.73604   0.58806   0.00000  Uiso   1.00
O974   O     0.83333   0.83333   0.75000   0.00000  Uiso   1.00
O975   O     0.82118   0.79304   0.65458   0.00000  Uiso   1.00
O976   O     0.79607   0.87058   0.84968   0.00000  Uiso   1.00
O977   O     0.87491   0.84425   0.64606   0.00000  Uiso   1.00
O978   O     0.84118   0.82546   0.84968   0.00000  Uiso   1.00
O979   O     0.84597   0.74686   0.78214   0.00000  Uiso   1.00
O980   O     0.81298   0.92751   0.77013   0.00000  Uiso   1.00
O981   O     0.74078   0.79958   0.73413   0.00000  Uiso   1.00
O982   O     0.93360   0.85939   0.71360   0.00000  Uiso   1.00
O983   O     0.73738   0.85544   0.78213   0.00000  Uiso   1.00
O984   O     0.92158   0.81892   0.77013   0.00000  Uiso   1.00
O985   O     0.80426   0.73610   0.73413   0.00000  Uiso   1.00
O986   O     0.87012   0.92286   0.71360   0.00000  Uiso   1.00
Zn987  Zn    0.86005   0.80661   0.78734   0.00000  Uiso   1.00
Zn988  Zn    0.80046   0.79124   0.71875   0.00000  Uiso   1.00
Zn989  Zn    0.87723   0.86442   0.70657   0.00000  Uiso   1.00
Zn990  Zn    0.79560   0.87106   0.78733   0.00000  Uiso   1.00
loop_
_geom_bond_atom_site_label_1
_geom_bond_atom_site_label_2
_geom_bond_distance
_geom_bond_site_symmetry_2
_ccdc_geom_bond_type
C1     O48     1.269   .     A
C1     O46     1.269   .     A
C1     C7      1.437   .     S
C2     C16     1.393   .     A
C2     C21     1.409   .     A
C2     H34     1.077   .     S
C3     N38     1.438   .     S
C3     C15     1.396   .     A
C3     C16     1.405   .     A
C4     O49     1.281   .     A
C4     C6      1.454   .     S
C4     O47     1.283   .     A
C5     C20     1.419   .     A
C5     C14     1.476   .     S
C5     C17     1.402   .     A
C6     C62     1.334   .     S
C6     H82     1.088   .     S
C7     C116    1.334   1_455 S
C7     H135    1.086   1_455 S
C8     C11     1.451   .     S
C8     C174    1.331   .     S
C8     H195    1.088   .     S
C9     C10     1.435   .     S
C9     C338    1.331   1_545 S
C9     H361    1.086   1_545 S
C10    O44     1.275   .     A
C10    O50     1.275   .     A
C11    O45     1.275   .     A
C11    O51     1.274   .     A
C12    C17     1.387   .     A
C12    H37     1.083   .     S
C12    C513    1.391   .     S
C13    O42     1.278   .     A
C13    C16     1.453   .     S
C13    O40     1.268   .     A
C14    O41     1.284   .     A
C14    O43     1.283   .     A
C15    H33     1.085   .     S
C15    C517    1.400   1_554 S
C17    H35     1.083   .     S
C18    H36     1.076   .     S
C18    C507    1.391   1_554 S
C18    C514    1.417   1_554 S
C19    C20     1.424   .     A
C19    C513    1.417   .     S
C19    C516    1.427   .     S
C20    C24     1.410   .     A
C21    C514    1.427   1_554 S
C21    C517    1.422   1_554 S
C22    C23     1.391   .     A
C22    C516    1.422   .     S
C22    C510    1.400   .     S
C23    C24     1.382   .     A
C23    H32     1.084   .     S
C24    H26     1.080   .     S
H25    C62     1.086   .     S
H27    C116    1.088   1_455 S
H28    N38     1.045   .     S
H29    N38     1.046   .     S
H30    C338    1.088   1_545 S
H31    C174    1.086   .     S
O39    Zn52    1.959   .     S
O39    Zn53    1.937   .     S
O39    Zn54    1.943   .     S
O39    Zn55    1.935   .     S
O40    Zn53    1.939   .     S
O41    Zn55    1.944   .     S
O42    Zn54    1.935   .     S
O43    Zn52    1.932   .     S
O44    Zn52    1.926   .     S
O45    Zn55    1.933   .     S
O46    Zn53    1.928   .     S
O47    Zn54    1.934   .     S
O48    Zn55    1.929   .     S
O49    Zn52    1.926   .     S
O50    Zn53    1.938   .     S
O51    Zn54    1.929   .     S
C56    O103    1.269   .     A
C56    O101    1.269   .     A
C56    C62     1.437   .     S
C57    C71     1.393   .     A
C57    C76     1.409   .     A
C57    H89     1.077   .     S
C58    N93     1.438   .     S
C58    C70     1.396   .     A
C58    C71     1.405   .     A
C59    O104    1.281   .     A
C59    C61     1.454   .     S
C59    O102    1.283   .     A
C60    C75     1.419   .     A
C60    C69     1.476   .     S
C60    C72     1.402   .     A
C61    C117    1.334   .     S
C61    H137    1.088   .     S
C63    C66     1.451   .     S
C63    C229    1.331   .     S
C63    H250    1.088   .     S
C64    C65     1.435   .     S
C64    C393    1.331   1_545 S
C64    H416    1.086   1_545 S
C65    O99     1.275   .     A
C65    O105    1.275   .     A
C66    O100    1.275   .     A
C66    O106    1.274   .     A
C67    C72     1.387   .     A
C67    H92     1.083   .     S
C67    C568    1.391   .     S
C68    O97     1.278   .     A
C68    C71     1.453   .     S
C68    O95     1.268   .     A
C69    O96     1.284   .     A
C69    O98     1.283   .     A
C70    H88     1.085   .     S
C70    C572    1.400   1_554 S
C72    H90     1.083   .     S
C73    H91     1.076   .     S
C73    C562    1.391   1_554 S
C73    C569    1.417   1_554 S
C74    C75     1.424   .     A
C74    C568    1.417   .     S
C74    C571    1.427   .     S
C75    C79     1.410   .     A
C76    C569    1.427   1_554 S
C76    C572    1.422   1_554 S
C77    C78     1.391   .     A
C77    C571    1.422   .     S
C77    C565    1.400   .     S
C78    C79     1.382   .     A
C78    H87     1.084   .     S
C79    H81     1.080   .     S
H80    C117    1.086   .     S
H83    N93     1.045   .     S
H84    N93     1.046   .     S
H85    C393    1.088   1_545 S
H86    C229    1.086   .     S
O94    Zn107   1.959   .     S
O94    Zn108   1.937   .     S
O94    Zn109   1.943   .     S
O94    Zn110   1.935   .     S
O95    Zn108   1.939   .     S
O96    Zn110   1.944   .     S
O97    Zn109   1.935   .     S
O98    Zn107   1.932   .     S
O99    Zn107   1.926   .     S
O100   Zn110   1.933   .     S
O101   Zn108   1.928   .     S
O102   Zn109   1.934   .     S
O103   Zn110   1.929   .     S
O104   Zn107   1.926   .     S
O105   Zn108   1.938   .     S
O106   Zn109   1.929   .     S
C111   O158    1.269   .     A
C111   O156    1.269   .     A
C111   C117    1.437   .     S
C112   C126    1.393   .     A
C112   C131    1.409   .     A
C112   H144    1.077   .     S
C113   N148    1.438   .     S
C113   C125    1.396   .     A
C113   C126    1.405   .     A
C114   O159    1.281   .     A
C114   C116    1.454   .     S
C114   O157    1.283   .     A
C115   C130    1.419   .     A
C115   C124    1.476   .     S
C115   C127    1.402   .     A
C116   C7      1.334   1_655 S
C116   H27     1.088   1_655 S
C118   C121    1.451   .     S
C118   C284    1.331   .     S
C118   H305    1.088   .     S
C119   C120    1.435   .     S
C119   C448    1.331   1_545 S
C119   H471    1.086   1_545 S
C120   O154    1.275   .     A
C120   O160    1.275   .     A
C121   O155    1.275   .     A
C121   O161    1.274   .     A
C122   C127    1.387   .     A
C122   H147    1.083   .     S
C122   C623    1.391   .     S
C123   O152    1.278   .     A
C123   C126    1.453   .     S
C123   O150    1.268   .     A
C124   O151    1.284   .     A
C124   O153    1.283   .     A
C125   H143    1.085   .     S
C125   C627    1.400   1_554 S
C127   H145    1.083   .     S
C128   H146    1.076   .     S
C128   C617    1.391   1_554 S
C128   C624    1.417   1_554 S
C129   C130    1.424   .     A
C129   C623    1.417   .     S
C129   C626    1.427   .     S
C130   C134    1.410   .     A
C131   C624    1.427   1_554 S
C131   C627    1.422   1_554 S
C132   C133    1.391   .     A
C132   C626    1.422   .     S
C132   C620    1.400   .     S
C133   C134    1.382   .     A
C133   H142    1.084   .     S
C134   H136    1.080   .     S
H135   C7      1.086   1_655 S
H138   N148    1.045   .     S
H139   N148    1.046   .     S
H140   C448    1.088   1_545 S
H141   C284    1.086   .     S
O149   Zn162   1.959   .     S
O149   Zn163   1.937   .     S
O149   Zn164   1.943   .     S
O149   Zn165   1.935   .     S
O150   Zn163   1.939   .     S
O151   Zn165   1.944   .     S
O152   Zn164   1.935   .     S
O153   Zn162   1.932   .     S
O154   Zn162   1.926   .     S
O155   Zn165   1.933   .     S
O156   Zn163   1.928   .     S
O157   Zn164   1.934   .     S
O158   Zn165   1.929   .     S
O159   Zn162   1.926   .     S
O160   Zn163   1.938   .     S
O161   Zn164   1.929   .     S
C166   O213    1.269   .     A
C166   O211    1.269   .     A
C166   C172    1.437   .     S
C167   C181    1.393   .     A
C167   C186    1.409   .     A
C167   H199    1.077   .     S
C168   N203    1.438   .     S
C168   C180    1.396   .     A
C168   C181    1.405   .     A
C169   O214    1.281   .     A
C169   C171    1.454   .     S
C169   O212    1.283   .     A
C170   C185    1.419   .     A
C170   C179    1.476   .     S
C170   C182    1.402   .     A
C171   C227    1.334   .     S
C171   H247    1.088   .     S
C172   C281    1.334   1_455 S
C172   H300    1.086   1_455 S
C173   C176    1.451   .     S
C173   C339    1.331   .     S
C173   H360    1.088   .     S
C174   C175    1.435   .     S
C175   O209    1.275   .     A
C175   O215    1.275   .     A
C176   O210    1.275   .     A
C176   O216    1.274   .     A
C177   C182    1.387   .     A
C177   H202    1.083   .     S
C177   C678    1.391   .     S
C178   O207    1.278   .     A
C178   C181    1.453   .     S
C178   O205    1.268   .     A
C179   O206    1.284   .     A
C179   O208    1.283   .     A
C180   H198    1.085   .     S
C180   C682    1.400   1_554 S
C182   H200    1.083   .     S
C183   H201    1.076   .     S
C183   C672    1.391   1_554 S
C183   C679    1.417   1_554 S
C184   C185    1.424   .     A
C184   C678    1.417   .     S
C184   C681    1.427   .     S
C185   C189    1.410   .     A
C186   C679    1.427   1_554 S
C186   C682    1.422   1_554 S
C187   C188    1.391   .     A
C187   C681    1.422   .     S
C187   C675    1.400   .     S
C188   C189    1.382   .     A
C188   H197    1.084   .     S
C189   H191    1.080   .     S
H190   C227    1.086   .     S
H192   C281    1.088   1_455 S
H193   N203    1.045   .     S
H194   N203    1.046   .     S
H196   C339    1.086   .     S
O204   Zn217   1.959   .     S
O204   Zn218   1.937   .     S
O204   Zn219   1.943   .     S
O204   Zn220   1.935   .     S
O205   Zn218   1.939   .     S
O206   Zn220   1.944   .     S
O207   Zn219   1.935   .     S
O208   Zn217   1.932   .     S
O209   Zn217   1.926   .     S
O210   Zn220   1.933   .     S
O211   Zn218   1.928   .     S
O212   Zn219   1.934   .     S
O213   Zn220   1.929   .     S
O214   Zn217   1.926   .     S
O215   Zn218   1.938   .     S
O216   Zn219   1.929   .     S
C221   O268    1.269   .     A
C221   O266    1.269   .     A
C221   C227    1.437   .     S
C222   C236    1.393   .     A
C222   C241    1.409   .     A
C222   H254    1.077   .     S
C223   N258    1.438   .     S
C223   C235    1.396   .     A
C223   C236    1.405   .     A
C224   O269    1.281   .     A
C224   C226    1.454   .     S
C224   O267    1.283   .     A
C225   C240    1.419   .     A
C225   C234    1.476   .     S
C225   C237    1.402   .     A
C226   C282    1.334   .     S
C226   H302    1.088   .     S
C228   C231    1.451   .     S
C228   C394    1.331   .     S
C228   H415    1.088   .     S
C229   C230    1.435   .     S
C230   O264    1.275   .     A
C230   O270    1.275   .     A
C231   O265    1.275   .     A
C231   O271    1.274   .     A
C232   C237    1.387   .     A
C232   H257    1.083   .     S
C232   C733    1.391   .     S
C233   O262    1.278   .     A
C233   C236    1.453   .     S
C233   O260    1.268   .     A
C234   O261    1.284   .     A
C234   O263    1.283   .     A
C235   H253    1.085   .     S
C235   C737    1.400   1_554 S
C237   H255    1.083   .     S
C238   H256    1.076   .     S
C238   C727    1.391   1_554 S
C238   C734    1.417   1_554 S
C239   C240    1.424   .     A
C239   C733    1.417   .     S
C239   C736    1.427   .     S
C240   C244    1.410   .     A
C241   C734    1.427   1_554 S
C241   C737    1.422   1_554 S
C242   C243    1.391   .     A
C242   C736    1.422   .     S
C242   C730    1.400   .     S
C243   C244    1.382   .     A
C243   H252    1.084   .     S
C244   H246    1.080   .     S
H245   C282    1.086   .     S
H248   N258    1.045   .     S
H249   N258    1.046   .     S
H251   C394    1.086   .     S
O259   Zn272   1.959   .     S
O259   Zn273   1.937   .     S
O259   Zn274   1.943   .     S
O259   Zn275   1.935   .     S
O260   Zn273   1.939   .     S
O261   Zn275   1.944   .     S
O262   Zn274   1.935   .     S
O263   Zn272   1.932   .     S
O264   Zn272   1.926   .     S
O265   Zn275   1.933   .     S
O266   Zn273   1.928   .     S
O267   Zn274   1.934   .     S
O268   Zn275   1.929   .     S
O269   Zn272   1.926   .     S
O270   Zn273   1.938   .     S
O271   Zn274   1.929   .     S
C276   O323    1.269   .     A
C276   O321    1.269   .     A
C276   C282    1.437   .     S
C277   C291    1.393   .     A
C277   C296    1.409   .     A
C277   H309    1.077   .     S
C278   N313    1.438   .     S
C278   C290    1.396   .     A
C278   C291    1.405   .     A
C279   O324    1.281   .     A
C279   C281    1.454   .     S
C279   O322    1.283   .     A
C280   C295    1.419   .     A
C280   C289    1.476   .     S
C280   C292    1.402   .     A
C281   C172    1.334   1_655 S
C281   H192    1.088   1_655 S
C283   C286    1.451   .     S
C283   C449    1.331   .     S
C283   H470    1.088   .     S
C284   C285    1.435   .     S
C285   O319    1.275   .     A
C285   O325    1.275   .     A
C286   O320    1.275   .     A
C286   O326    1.274   .     A
C287   C292    1.387   .     A
C287   H312    1.083   .     S
C287   C788    1.391   .     S
C288   O317    1.278   .     A
C288   C291    1.453   .     S
C288   O315    1.268   .     A
C289   O316    1.284   .     A
C289   O318    1.283   .     A
C290   H308    1.085   .     S
C290   C792    1.400   1_554 S
C292   H310    1.083   .     S
C293   H311    1.076   .     S
C293   C782    1.391   1_554 S
C293   C789    1.417   1_554 S
C294   C295    1.424   .     A
C294   C788    1.417   .     S
C294   C791    1.427   .     S
C295   C299    1.410   .     A
C296   C789    1.427   1_554 S
C296   C792    1.422   1_554 S
C297   C298    1.391   .     A
C297   C791    1.422   .     S
C297   C785    1.400   .     S
C298   C299    1.382   .     A
C298   H307    1.084   .     S
C299   H301    1.080   .     S
H300   C172    1.086   1_655 S
H303   N313    1.045   .     S
H304   N313    1.046   .     S
H306   C449    1.086   .     S
O314   Zn327   1.959   .     S
O314   Zn328   1.937   .     S
O314   Zn329   1.943   .     S
O314   Zn330   1.935   .     S
O315   Zn328   1.939   .     S
O316   Zn330   1.944   .     S
O317   Zn329   1.935   .     S
O318   Zn327   1.932   .     S
O319   Zn327   1.926   .     S
O320   Zn330   1.933   .     S
O321   Zn328   1.928   .     S
O322   Zn329   1.934   .     S
O323   Zn330   1.929   .     S
O324   Zn327   1.926   .     S
O325   Zn328   1.938   .     S
O326   Zn329   1.929   .     S
C331   O378    1.269   .     A
C331   O376    1.269   .     A
C331   C337    1.437   .     S
C332   C346    1.393   .     A
C332   C351    1.409   .     A
C332   H364    1.077   .     S
C333   N368    1.438   .     S
C333   C345    1.396   .     A
C333   C346    1.405   .     A
C334   O379    1.281   .     A
C334   C336    1.454   .     S
C334   O377    1.283   .     A
C335   C350    1.419   .     A
C335   C344    1.476   .     S
C335   C347    1.402   .     A
C336   C392    1.334   .     S
C336   H412    1.088   .     S
C337   C446    1.334   1_455 S
C337   H465    1.086   1_455 S
C338   C341    1.451   .     S
C338   C9      1.331   1_565 S
C338   H30     1.088   1_565 S
C339   C340    1.435   .     S
C340   O374    1.275   .     A
C340   O380    1.275   .     A
C341   O375    1.275   .     A
C341   O381    1.274   .     A
C342   C347    1.387   .     A
C342   H367    1.083   .     S
C342   C843    1.391   .     S
C343   O372    1.278   .     A
C343   C346    1.453   .     S
C343   O370    1.268   .     A
C344   O371    1.284   .     A
C344   O373    1.283   .     A
C345   H363    1.085   .     S
C345   C847    1.400   1_554 S
C347   H365    1.083   .     S
C348   H366    1.076   .     S
C348   C837    1.391   1_554 S
C348   C844    1.417   1_554 S
C349   C350    1.424   .     A
C349   C843    1.417   .     S
C349   C846    1.427   .     S
C350   C354    1.410   .     A
C351   C844    1.427   1_554 S
C351   C847    1.422   1_554 S
C352   C353    1.391   .     A
C352   C846    1.422   .     S
C352   C840    1.400   .     S
C353   C354    1.382   .     A
C353   H362    1.084   .     S
C354   H356    1.080   .     S
H355   C392    1.086   .     S
H357   C446    1.088   1_455 S
H358   N368    1.045   .     S
H359   N368    1.046   .     S
H361   C9      1.086   1_565 S
O369   Zn382   1.959   .     S
O369   Zn383   1.937   .     S
O369   Zn384   1.943   .     S
O369   Zn385   1.935   .     S
O370   Zn383   1.939   .     S
O371   Zn385   1.944   .     S
O372   Zn384   1.935   .     S
O373   Zn382   1.932   .     S
O374   Zn382   1.926   .     S
O375   Zn385   1.933   .     S
O376   Zn383   1.928   .     S
O377   Zn384   1.934   .     S
O378   Zn385   1.929   .     S
O379   Zn382   1.926   .     S
O380   Zn383   1.938   .     S
O381   Zn384   1.929   .     S
C386   O433    1.269   .     A
C386   O431    1.269   .     A
C386   C392    1.437   .     S
C387   C401    1.393   .     A
C387   C406    1.409   .     A
C387   H419    1.077   .     S
C388   N423    1.438   .     S
C388   C400    1.396   .     A
C388   C401    1.405   .     A
C389   O434    1.281   .     A
C389   C391    1.454   .     S
C389   O432    1.283   .     A
C390   C405    1.419   .     A
C390   C399    1.476   .     S
C390   C402    1.402   .     A
C391   C447    1.334   .     S
C391   H467    1.088   .     S
C393   C396    1.451   .     S
C393   C64     1.331   1_565 S
C393   H85     1.088   1_565 S
C394   C395    1.435   .     S
C395   O429    1.275   .     A
C395   O435    1.275   .     A
C396   O430    1.275   .     A
C396   O436    1.274   .     A
C397   C402    1.387   .     A
C397   H422    1.083   .     S
C397   C898    1.391   .     S
C398   O427    1.278   .     A
C398   C401    1.453   .     S
C398   O425    1.268   .     A
C399   O426    1.284   .     A
C399   O428    1.283   .     A
C400   H418    1.085   .     S
C400   C902    1.400   1_554 S
C402   H420    1.083   .     S
C403   H421    1.076   .     S
C403   C892    1.391   1_554 S
C403   C899    1.417   1_554 S
C404   C405    1.424   .     A
C404   C898    1.417   .     S
C404   C901    1.427   .     S
C405   C409    1.410   .     A
C406   C899    1.427   1_554 S
C406   C902    1.422   1_554 S
C407   C408    1.391   .     A
C407   C901    1.422   .     S
C407   C895    1.400   .     S
C408   C409    1.382   .     A
C408   H417    1.084   .     S
C409   H411    1.080   .     S
H410   C447    1.086   .     S
H413   N423    1.045   .     S
H414   N423    1.046   .     S
H416   C64     1.086   1_565 S
O424   Zn437   1.959   .     S
O424   Zn438   1.937   .     S
O424   Zn439   1.943   .     S
O424   Zn440   1.935   .     S
O425   Zn438   1.939   .     S
O426   Zn440   1.944   .     S
O427   Zn439   1.935   .     S
O428   Zn437   1.932   .     S
O429   Zn437   1.926   .     S
O430   Zn440   1.933   .     S
O431   Zn438   1.928   .     S
O432   Zn439   1.934   .     S
O433   Zn440   1.929   .     S
O434   Zn437   1.926   .     S
O435   Zn438   1.938   .     S
O436   Zn439   1.929   .     S
C441   O488    1.269   .     A
C441   O486    1.269   .     A
C441   C447    1.437   .     S
C442   C456    1.393   .     A
C442   C461    1.409   .     A
C442   H474    1.077   .     S
C443   N478    1.438   .     S
C443   C455    1.396   .     A
C443   C456    1.405   .     A
C444   O489    1.281   .     A
C444   C446    1.454   .     S
C444   O487    1.283   .     A
C445   C460    1.419   .     A
C445   C454    1.476   .     S
C445   C457    1.402   .     A
C446   C337    1.334   1_655 S
C446   H357    1.088   1_655 S
C448   C451    1.451   .     S
C448   C119    1.331   1_565 S
C448   H140    1.088   1_565 S
C449   C450    1.435   .     S
C450   O484    1.275   .     A
C450   O490    1.275   .     A
C451   O485    1.275   .     A
C451   O491    1.274   .     A
C452   C457    1.387   .     A
C452   H477    1.083   .     S
C452   C953    1.391   .     S
C453   O482    1.278   .     A
C453   C456    1.453   .     S
C453   O480    1.268   .     A
C454   O481    1.284   .     A
C454   O483    1.283   .     A
C455   H473    1.085   .     S
C455   C957    1.400   1_554 S
C457   H475    1.083   .     S
C458   H476    1.076   .     S
C458   C947    1.391   1_554 S
C458   C954    1.417   1_554 S
C459   C460    1.424   .     A
C459   C953    1.417   .     S
C459   C956    1.427   .     S
C460   C464    1.410   .     A
C461   C954    1.427   1_554 S
C461   C957    1.422   1_554 S
C462   C463    1.391   .     A
C462   C956    1.422   .     S
C462   C950    1.400   .     S
C463   C464    1.382   .     A
C463   H472    1.084   .     S
C464   H466    1.080   .     S
H465   C337    1.086   1_655 S
H468   N478    1.045   .     S
H469   N478    1.046   .     S
H471   C119    1.086   1_565 S
O479   Zn492   1.959   .     S
O479   Zn493   1.937   .     S
O479   Zn494   1.943   .     S
O479   Zn495   1.935   .     S
O480   Zn493   1.939   .     S
O481   Zn495   1.944   .     S
O482   Zn494   1.935   .     S
O483   Zn492   1.932   .     S
O484   Zn492   1.926   .     S
O485   Zn495   1.933   .     S
O486   Zn493   1.928   .     S
O487   Zn494   1.934   .     S
O488   Zn495   1.929   .     S
O489   Zn492   1.926   .     S
O490   Zn493   1.938   .     S
O491   Zn494   1.929   .     S
C496   O543    1.269   .     A
C496   O541    1.269   .     A
C496   C502    1.437   .     S
C497   C511    1.393   .     A
C497   C516    1.409   .     A
C497   H529    1.077   .     S
C498   N533    1.438   .     S
C498   C510    1.396   .     A
C498   C511    1.405   .     A
C499   O544    1.281   .     A
C499   C501    1.454   .     S
C499   O542    1.283   .     A
C500   C515    1.419   .     A
C500   C509    1.476   .     S
C500   C512    1.402   .     A
C501   C557    1.334   .     S
C501   H577    1.088   .     S
C502   C611    1.334   1_455 S
C502   H630    1.086   1_455 S
C503   C506    1.451   .     S
C503   C669    1.331   .     S
C503   H690    1.088   .     S
C504   C505    1.435   .     S
C504   C833    1.331   1_545 S
C504   H856    1.086   1_545 S
C505   O539    1.275   .     A
C505   O545    1.275   .     A
C506   O540    1.275   .     A
C506   O546    1.274   .     A
C507   C512    1.387   .     A
C507   H532    1.083   .     S
C507   C18     1.391   1_556 S
C508   O537    1.278   .     A
C508   C511    1.453   .     S
C508   O535    1.268   .     A
C509   O536    1.284   .     A
C509   O538    1.283   .     A
C510   H528    1.085   .     S
C512   H530    1.083   .     S
C513   H531    1.076   .     S
C514   C515    1.424   .     A
C514   C18     1.417   1_556 S
C514   C21     1.427   1_556 S
C515   C519    1.410   .     A
C517   C518    1.391   .     A
C517   C21     1.422   1_556 S
C517   C15     1.400   1_556 S
C518   C519    1.382   .     A
C518   H527    1.084   .     S
C519   H521    1.080   .     S
H520   C557    1.086   .     S
H522   C611    1.088   1_455 S
H523   N533    1.045   .     S
H524   N533    1.046   .     S
H525   C833    1.088   1_545 S
H526   C669    1.086   .     S
O534   Zn547   1.959   .     S
O534   Zn548   1.937   .     S
O534   Zn549   1.943   .     S
O534   Zn550   1.935   .     S
O535   Zn548   1.939   .     S
O536   Zn550   1.944   .     S
O537   Zn549   1.935   .     S
O538   Zn547   1.932   .     S
O539   Zn547   1.926   .     S
O540   Zn550   1.933   .     S
O541   Zn548   1.928   .     S
O542   Zn549   1.934   .     S
O543   Zn550   1.929   .     S
O544   Zn547   1.926   .     S
O545   Zn548   1.938   .     S
O546   Zn549   1.929   .     S
C551   O598    1.269   .     A
C551   O596    1.269   .     A
C551   C557    1.437   .     S
C552   C566    1.393   .     A
C552   C571    1.409   .     A
C552   H584    1.077   .     S
C553   N588    1.438   .     S
C553   C565    1.396   .     A
C553   C566    1.405   .     A
C554   O599    1.281   .     A
C554   C556    1.454   .     S
C554   O597    1.283   .     A
C555   C570    1.419   .     A
C555   C564    1.476   .     S
C555   C567    1.402   .     A
C556   C612    1.334   .     S
C556   H632    1.088   .     S
C558   C561    1.451   .     S
C558   C724    1.331   .     S
C558   H745    1.088   .     S
C559   C560    1.435   .     S
C559   C888    1.331   1_545 S
C559   H911    1.086   1_545 S
C560   O594    1.275   .     A
C560   O600    1.275   .     A
C561   O595    1.275   .     A
C561   O601    1.274   .     A
C562   C567    1.387   .     A
C562   H587    1.083   .     S
C562   C73     1.391   1_556 S
C563   O592    1.278   .     A
C563   C566    1.453   .     S
C563   O590    1.268   .     A
C564   O591    1.284   .     A
C564   O593    1.283   .     A
C565   H583    1.085   .     S
C567   H585    1.083   .     S
C568   H586    1.076   .     S
C569   C570    1.424   .     A
C569   C73     1.417   1_556 S
C569   C76     1.427   1_556 S
C570   C574    1.410   .     A
C572   C573    1.391   .     A
C572   C76     1.422   1_556 S
C572   C70     1.400   1_556 S
C573   C574    1.382   .     A
C573   H582    1.084   .     S
C574   H576    1.080   .     S
H575   C612    1.086   .     S
H578   N588    1.045   .     S
H579   N588    1.046   .     S
H580   C888    1.088   1_545 S
H581   C724    1.086   .     S
O589   Zn602   1.959   .     S
O589   Zn603   1.937   .     S
O589   Zn604   1.943   .     S
O589   Zn605   1.935   .     S
O590   Zn603   1.939   .     S
O591   Zn605   1.944   .     S
O592   Zn604   1.935   .     S
O593   Zn602   1.932   .     S
O594   Zn602   1.926   .     S
O595   Zn605   1.933   .     S
O596   Zn603   1.928   .     S
O597   Zn604   1.934   .     S
O598   Zn605   1.929   .     S
O599   Zn602   1.926   .     S
O600   Zn603   1.938   .     S
O601   Zn604   1.929   .     S
C606   O653    1.269   .     A
C606   O651    1.269   .     A
C606   C612    1.437   .     S
C607   C621    1.393   .     A
C607   C626    1.409   .     A
C607   H639    1.077   .     S
C608   N643    1.438   .     S
C608   C620    1.396   .     A
C608   C621    1.405   .     A
C609   O654    1.281   .     A
C609   C611    1.454   .     S
C609   O652    1.283   .     A
C610   C625    1.419   .     A
C610   C619    1.476   .     S
C610   C622    1.402   .     A
C611   C502    1.334   1_655 S
C611   H522    1.088   1_655 S
C613   C616    1.451   .     S
C613   C779    1.331   .     S
C613   H800    1.088   .     S
C614   C615    1.435   .     S
C614   C943    1.331   1_545 S
C614   H966    1.086   1_545 S
C615   O649    1.275   .     A
C615   O655    1.275   .     A
C616   O650    1.275   .     A
C616   O656    1.274   .     A
C617   C622    1.387   .     A
C617   H642    1.083   .     S
C617   C128    1.391   1_556 S
C618   O647    1.278   .     A
C618   C621    1.453   .     S
C618   O645    1.268   .     A
C619   O646    1.284   .     A
C619   O648    1.283   .     A
C620   H638    1.085   .     S
C622   H640    1.083   .     S
C623   H641    1.076   .     S
C624   C625    1.424   .     A
C624   C128    1.417   1_556 S
C624   C131    1.427   1_556 S
C625   C629    1.410   .     A
C627   C628    1.391   .     A
C627   C131    1.422   1_556 S
C627   C125    1.400   1_556 S
C628   C629    1.382   .     A
C628   H637    1.084   .     S
C629   H631    1.080   .     S
H630   C502    1.086   1_655 S
H633   N643    1.045   .     S
H634   N643    1.046   .     S
H635   C943    1.088   1_545 S
H636   C779    1.086   .     S
O644   Zn657   1.959   .     S
O644   Zn658   1.937   .     S
O644   Zn659   1.943   .     S
O644   Zn660   1.935   .     S
O645   Zn658   1.939   .     S
O646   Zn660   1.944   .     S
O647   Zn659   1.935   .     S
O648   Zn657   1.932   .     S
O649   Zn657   1.926   .     S
O650   Zn660   1.933   .     S
O651   Zn658   1.928   .     S
O652   Zn659   1.934   .     S
O653   Zn660   1.929   .     S
O654   Zn657   1.926   .     S
O655   Zn658   1.938   .     S
O656   Zn659   1.929   .     S
C661   O708    1.269   .     A
C661   O706    1.269   .     A
C661   C667    1.437   .     S
C662   C676    1.393   .     A
C662   C681    1.409   .     A
C662   H694    1.077   .     S
C663   N698    1.438   .     S
C663   C675    1.396   .     A
C663   C676    1.405   .     A
C664   O709    1.281   .     A
C664   C666    1.454   .     S
C664   O707    1.283   .     A
C665   C680    1.419   .     A
C665   C674    1.476   .     S
C665   C677    1.402   .     A
C666   C722    1.334   .     S
C666   H742    1.088   .     S
C667   C776    1.334   1_455 S
C667   H795    1.086   1_455 S
C668   C671    1.451   .     S
C668   C834    1.331   .     S
C668   H855    1.088   .     S
C669   C670    1.435   .     S
C670   O704    1.275   .     A
C670   O710    1.275   .     A
C671   O705    1.275   .     A
C671   O711    1.274   .     A
C672   C677    1.387   .     A
C672   H697    1.083   .     S
C672   C183    1.391   1_556 S
C673   O702    1.278   .     A
C673   C676    1.453   .     S
C673   O700    1.268   .     A
C674   O701    1.284   .     A
C674   O703    1.283   .     A
C675   H693    1.085   .     S
C677   H695    1.083   .     S
C678   H696    1.076   .     S
C679   C680    1.424   .     A
C679   C183    1.417   1_556 S
C679   C186    1.427   1_556 S
C680   C684    1.410   .     A
C682   C683    1.391   .     A
C682   C186    1.422   1_556 S
C682   C180    1.400   1_556 S
C683   C684    1.382   .     A
C683   H692    1.084   .     S
C684   H686    1.080   .     S
H685   C722    1.086   .     S
H687   C776    1.088   1_455 S
H688   N698    1.045   .     S
H689   N698    1.046   .     S
H691   C834    1.086   .     S
O699   Zn712   1.959   .     S
O699   Zn713   1.937   .     S
O699   Zn714   1.943   .     S
O699   Zn715   1.935   .     S
O700   Zn713   1.939   .     S
O701   Zn715   1.944   .     S
O702   Zn714   1.935   .     S
O703   Zn712   1.932   .     S
O704   Zn712   1.926   .     S
O705   Zn715   1.933   .     S
O706   Zn713   1.928   .     S
O707   Zn714   1.934   .     S
O708   Zn715   1.929   .     S
O709   Zn712   1.926   .     S
O710   Zn713   1.938   .     S
O711   Zn714   1.929   .     S
C716   O763    1.269   .     A
C716   O761    1.269   .     A
C716   C722    1.437   .     S
C717   C731    1.393   .     A
C717   C736    1.409   .     A
C717   H749    1.077   .     S
C718   N753    1.438   .     S
C718   C730    1.396   .     A
C718   C731    1.405   .     A
C719   O764    1.281   .     A
C719   C721    1.454   .     S
C719   O762    1.283   .     A
C720   C735    1.419   .     A
C720   C729    1.476   .     S
C720   C732    1.402   .     A
C721   C777    1.334   .     S
C721   H797    1.088   .     S
C723   C726    1.451   .     S
C723   C889    1.331   .     S
C723   H910    1.088   .     S
C724   C725    1.435   .     S
C725   O759    1.275   .     A
C725   O765    1.275   .     A
C726   O760    1.275   .     A
C726   O766    1.274   .     A
C727   C732    1.387   .     A
C727   H752    1.083   .     S
C727   C238    1.391   1_556 S
C728   O757    1.278   .     A
C728   C731    1.453   .     S
C728   O755    1.268   .     A
C729   O756    1.284   .     A
C729   O758    1.283   .     A
C730   H748    1.085   .     S
C732   H750    1.083   .     S
C733   H751    1.076   .     S
C734   C735    1.424   .     A
C734   C238    1.417   1_556 S
C734   C241    1.427   1_556 S
C735   C739    1.410   .     A
C737   C738    1.391   .     A
C737   C241    1.422   1_556 S
C737   C235    1.400   1_556 S
C738   C739    1.382   .     A
C738   H747    1.084   .     S
C739   H741    1.080   .     S
H740   C777    1.086   .     S
H743   N753    1.045   .     S
H744   N753    1.046   .     S
H746   C889    1.086   .     S
O754   Zn767   1.959   .     S
O754   Zn768   1.937   .     S
O754   Zn769   1.943   .     S
O754   Zn770   1.935   .     S
O755   Zn768   1.939   .     S
O756   Zn770   1.944   .     S
O757   Zn769   1.935   .     S
O758   Zn767   1.932   .     S
O759   Zn767   1.926   .     S
O760   Zn770   1.933   .     S
O761   Zn768   1.928   .     S
O762   Zn769   1.934   .     S
O763   Zn770   1.929   .     S
O764   Zn767   1.926   .     S
O765   Zn768   1.938   .     S
O766   Zn769   1.929   .     S
C771   O818    1.269   .     A
C771   O816    1.269   .     A
C771   C777    1.437   .     S
C772   C786    1.393   .     A
C772   C791    1.409   .     A
C772   H804    1.077   .     S
C773   N808    1.438   .     S
C773   C785    1.396   .     A
C773   C786    1.405   .     A
C774   O819    1.281   .     A
C774   C776    1.454   .     S
C774   O817    1.283   .     A
C775   C790    1.419   .     A
C775   C784    1.476   .     S
C775   C787    1.402   .     A
C776   C667    1.334   1_655 S
C776   H687    1.088   1_655 S
C778   C781    1.451   .     S
C778   C944    1.331   .     S
C778   H965    1.088   .     S
C779   C780    1.435   .     S
C780   O814    1.275   .     A
C780   O820    1.275   .     A
C781   O815    1.275   .     A
C781   O821    1.274   .     A
C782   C787    1.387   .     A
C782   H807    1.083   .     S
C782   C293    1.391   1_556 S
C783   O812    1.278   .     A
C783   C786    1.453   .     S
C783   O810    1.268   .     A
C784   O811    1.284   .     A
C784   O813    1.283   .     A
C785   H803    1.085   .     S
C787   H805    1.083   .     S
C788   H806    1.076   .     S
C789   C790    1.424   .     A
C789   C293    1.417   1_556 S
C789   C296    1.427   1_556 S
C790   C794    1.410   .     A
C792   C793    1.391   .     A
C792   C296    1.422   1_556 S
C792   C290    1.400   1_556 S
C793   C794    1.382   .     A
C793   H802    1.084   .     S
C794   H796    1.080   .     S
H795   C667    1.086   1_655 S
H798   N808    1.045   .     S
H799   N808    1.046   .     S
H801   C944    1.086   .     S
O809   Zn822   1.959   .     S
O809   Zn823   1.937   .     S
O809   Zn824   1.943   .     S
O809   Zn825   1.935   .     S
O810   Zn823   1.939   .     S
O811   Zn825   1.944   .     S
O812   Zn824   1.935   .     S
O813   Zn822   1.932   .     S
O814   Zn822   1.926   .     S
O815   Zn825   1.933   .     S
O816   Zn823   1.928   .     S
O817   Zn824   1.934   .     S
O818   Zn825   1.929   .     S
O819   Zn822   1.926   .     S
O820   Zn823   1.938   .     S
O821   Zn824   1.929   .     S
C826   O873    1.269   .     A
C826   O871    1.269   .     A
C826   C832    1.437   .     S
C827   C841    1.393   .     A
C827   C846    1.409   .     A
C827   H859    1.077   .     S
C828   N863    1.438   .     S
C828   C840    1.396   .     A
C828   C841    1.405   .     A
C829   O874    1.281   .     A
C829   C831    1.454   .     S
C829   O872    1.283   .     A
C830   C845    1.419   .     A
C830   C839    1.476   .     S
C830   C842    1.402   .     A
C831   C887    1.334   .     S
C831   H907    1.088   .     S
C832   C941    1.334   1_455 S
C832   H960    1.086   1_455 S
C833   C836    1.451   .     S
C833   C504    1.331   1_565 S
C833   H525    1.088   1_565 S
C834   C835    1.435   .     S
C835   O869    1.275   .     A
C835   O875    1.275   .     A
C836   O870    1.275   .     A
C836   O876    1.274   .     A
C837   C842    1.387   .     A
C837   H862    1.083   .     S
C837   C348    1.391   1_556 S
C838   O867    1.278   .     A
C838   C841    1.453   .     S
C838   O865    1.268   .     A
C839   O866    1.284   .     A
C839   O868    1.283   .     A
C840   H858    1.085   .     S
C842   H860    1.083   .     S
C843   H861    1.076   .     S
C844   C845    1.424   .     A
C844   C348    1.417   1_556 S
C844   C351    1.427   1_556 S
C845   C849    1.410   .     A
C847   C848    1.391   .     A
C847   C351    1.422   1_556 S
C847   C345    1.400   1_556 S
C848   C849    1.382   .     A
C848   H857    1.084   .     S
C849   H851    1.080   .     S
H850   C887    1.086   .     S
H852   C941    1.088   1_455 S
H853   N863    1.045   .     S
H854   N863    1.046   .     S
H856   C504    1.086   1_565 S
O864   Zn877   1.959   .     S
O864   Zn878   1.937   .     S
O864   Zn879   1.943   .     S
O864   Zn880   1.935   .     S
O865   Zn878   1.939   .     S
O866   Zn880   1.944   .     S
O867   Zn879   1.935   .     S
O868   Zn877   1.932   .     S
O869   Zn877   1.926   .     S
O870   Zn880   1.933   .     S
O871   Zn878   1.928   .     S
O872   Zn879   1.934   .     S
O873   Zn880   1.929   .     S
O874   Zn877   1.926   .     S
O875   Zn878   1.938   .     S
O876   Zn879   1.929   .     S
C881   O928    1.269   .     A
C881   O926    1.269   .     A
C881   C887    1.437   .     S
C882   C896    1.393   .     A
C882   C901    1.409   .     A
C882   H914    1.077   .     S
C883   N918    1.438   .     S
C883   C895    1.396   .     A
C883   C896    1.405   .     A
C884   O929    1.281   .     A
C884   C886    1.454   .     S
C884   O927    1.283   .     A
C885   C900    1.419   .     A
C885   C894    1.476   .     S
C885   C897    1.402   .     A
C886   C942    1.334   .     S
C886   H962    1.088   .     S
C888   C891    1.451   .     S
C888   C559    1.331   1_565 S
C888   H580    1.088   1_565 S
C889   C890    1.435   .     S
C890   O924    1.275   .     A
C890   O930    1.275   .     A
C891   O925    1.275   .     A
C891   O931    1.274   .     A
C892   C897    1.387   .     A
C892   H917    1.083   .     S
C892   C403    1.391   1_556 S
C893   O922    1.278   .     A
C893   C896    1.453   .     S
C893   O920    1.268   .     A
C894   O921    1.284   .     A
C894   O923    1.283   .     A
C895   H913    1.085   .     S
C897   H915    1.083   .     S
C898   H916    1.076   .     S
C899   C900    1.424   .     A
C899   C403    1.417   1_556 S
C899   C406    1.427   1_556 S
C900   C904    1.410   .     A
C902   C903    1.391   .     A
C902   C406    1.422   1_556 S
C902   C400    1.400   1_556 S
C903   C904    1.382   .     A
C903   H912    1.084   .     S
C904   H906    1.080   .     S
H905   C942    1.086   .     S
H908   N918    1.045   .     S
H909   N918    1.046   .     S
H911   C559    1.086   1_565 S
O919   Zn932   1.959   .     S
O919   Zn933   1.937   .     S
O919   Zn934   1.943   .     S
O919   Zn935   1.935   .     S
O920   Zn933   1.939   .     S
O921   Zn935   1.944   .     S
O922   Zn934   1.935   .     S
O923   Zn932   1.932   .     S
O924   Zn932   1.926   .     S
O925   Zn935   1.933   .     S
O926   Zn933   1.928   .     S
O927   Zn934   1.934   .     S
O928   Zn935   1.929   .     S
O929   Zn932   1.926   .     S
O930   Zn933   1.938   .     S
O931   Zn934   1.929   .     S
C936   O983    1.269   .     A
C936   O981    1.269   .     A
C936   C942    1.437   .     S
C937   C951    1.393   .     A
C937   C956    1.409   .     A
C937   H969    1.077   .     S
C938   N973    1.438   .     S
C938   C950    1.396   .     A
C938   C951    1.405   .     A
C939   O984    1.281   .     A
C939   C941    1.454   .     S
C939   O982    1.283   .     A
C940   C955    1.419   .     A
C940   C949    1.476   .     S
C940   C952    1.402   .     A
C941   C832    1.334   1_655 S
C941   H852    1.088   1_655 S
C943   C946    1.451   .     S
C943   C614    1.331   1_565 S
C943   H635    1.088   1_565 S
C944   C945    1.435   .     S
C945   O979    1.275   .     A
C945   O985    1.275   .     A
C946   O980    1.275   .     A
C946   O986    1.274   .     A
C947   C952    1.387   .     A
C947   H972    1.083   .     S
C947   C458    1.391   1_556 S
C948   O977    1.278   .     A
C948   C951    1.453   .     S
C948   O975    1.268   .     A
C949   O976    1.284   .     A
C949   O978    1.283   .     A
C950   H968    1.085   .     S
C952   H970    1.083   .     S
C953   H971    1.076   .     S
C954   C955    1.424   .     A
C954   C458    1.417   1_556 S
C954   C461    1.427   1_556 S
C955   C959    1.410   .     A
C957   C958    1.391   .     A
C957   C461    1.422   1_556 S
C957   C455    1.400   1_556 S
C958   C959    1.382   .     A
C958   H967    1.084   .     S
C959   H961    1.080   .     S
H960   C832    1.086   1_655 S
H963   N973    1.045   .     S
H964   N973    1.046   .     S
H966   C614    1.086   1_565 S
O974   Zn987   1.959   .     S
O974   Zn988   1.937   .     S
O974   Zn989   1.943   .     S
O974   Zn990   1.935   .     S
O975   Zn988   1.939   .     S
O976   Zn990   1.944   .     S
O977   Zn989   1.935   .     S
O978   Zn987   1.932   .     S
O979   Zn987   1.926   .     S
O980   Zn990   1.933   .     S
O981   Zn988   1.928   .     S
O982   Zn989   1.934   .     S
O983   Zn990   1.929   .     S
O984   Zn987   1.926   .     S
O985   Zn988   1.938   .     S
O986   Zn989   1.929   .     S
