data_str_m1_o1_o2_pcu_sym.109
_audit_creation_date              2020-01-03
_audit_creation_method            'Materials Studio'
_symmetry_space_group_name_H-M    'P1'
_symmetry_Int_Tables_number       1
_symmetry_cell_setting            triclinic
loop_
_symmetry_equiv_pos_as_xyz
  x,y,z
_cell_length_a                    36.5295
_cell_length_b                    36.5295
_cell_length_c                    34.6140
_cell_angle_alpha                 90.0001
_cell_angle_beta                  90.0000
_cell_angle_gamma                 89.9998
loop_
_atom_site_label
_atom_site_type_symbol
_atom_site_fract_x
_atom_site_fract_y
_atom_site_fract_z
_atom_site_U_iso_or_equiv
_atom_site_adp_type
_atom_site_occupancy
C1     C     0.22760   0.02511   0.04165   0.00000  Uiso   1.00
C2     C     0.02218   0.27529   0.45833   0.00000  Uiso   1.00
C3     C     0.34804   0.40196   0.75000   0.00000  Uiso   1.00
C4     C     0.40187   0.15187   0.25000   0.00000  Uiso   1.00
C5     C     0.09804   0.34804   0.75000   0.00000  Uiso   1.00
C6     C     0.34813   0.40187   0.25000   0.00000  Uiso   1.00
C7     C     0.15196   0.09804   0.75000   0.00000  Uiso   1.00
C8     C     0.09813   0.15187   0.75000   0.00000  Uiso   1.00
C9     C     0.40196   0.34804   0.25000   0.00000  Uiso   1.00
C10    C     0.15187   0.40187   0.75000   0.00000  Uiso   1.00
C11    C     0.34804   0.09804   0.25000   0.00000  Uiso   1.00
C12    C     0.40187   0.34813   0.75000   0.00000  Uiso   1.00
C13    C     0.22489   0.47761   0.54166   0.00000  Uiso   1.00
C14    C     0.09804   0.15196   0.25000   0.00000  Uiso   1.00
C15    C     0.34813   0.09813   0.75000   0.00000  Uiso   1.00
C16    C     0.15196   0.40196   0.25000   0.00000  Uiso   1.00
C17    C     0.25000   0.00000   0.10243   0.00000  Uiso   1.00
C18    C     0.25000   0.00000   0.89756   0.00000  Uiso   1.00
C19    C     0.00000   0.25000   0.10243   0.00000  Uiso   1.00
C20    C     0.00000   0.25000   0.89756   0.00000  Uiso   1.00
C21    C     0.00000   0.25000   0.60242   0.00000  Uiso   1.00
C22    C     0.00000   0.25000   0.39756   0.00000  Uiso   1.00
C23    C     0.25000   0.00000   0.60243   0.00000  Uiso   1.00
C24    C     0.22491   0.02242   0.45835   0.00000  Uiso   1.00
C25    C     0.25000  -0.00000   0.39757   0.00000  Uiso   1.00
C26    C     0.02261   0.22508   0.54164   0.00000  Uiso   1.00
C27    C     0.47782   0.22470   0.45833   0.00000  Uiso   1.00
C28    C     0.27511   0.02239   0.54166   0.00000  Uiso   1.00
C29    C     0.27509   0.47758   0.45835   0.00000  Uiso   1.00
C30    C     0.22858   0.02587   0.08194   0.00000  Uiso   1.00
C31    C     0.27142   0.02587   0.91806   0.00000  Uiso   1.00
C32    C     0.47414   0.22857   0.08194   0.00000  Uiso   1.00
C33    C     0.27239   0.02511   0.95834   0.00000  Uiso   1.00
C34    C     0.47412   0.27140   0.91806   0.00000  Uiso   1.00
C35    C     0.27142   0.47413   0.08194   0.00000  Uiso   1.00
C36    C     0.22858   0.47413   0.91806   0.00000  Uiso   1.00
C37    C     0.02586   0.27143   0.08194   0.00000  Uiso   1.00
C38    C     0.02589   0.22860   0.91805   0.00000  Uiso   1.00
C39    C     0.47837   0.27569   0.58193   0.00000  Uiso   1.00
C40    C     0.02121   0.27604   0.41804   0.00000  Uiso   1.00
C41    C     0.22413   0.47858   0.58194   0.00000  Uiso   1.00
C42    C     0.22415   0.02144   0.41806   0.00000  Uiso   1.00
C43    C     0.02163   0.22430   0.58193   0.00000  Uiso   1.00
C44    C     0.47491   0.22759   0.04165   0.00000  Uiso   1.00
C45    C     0.47879   0.22396   0.41804   0.00000  Uiso   1.00
C46    C     0.27587   0.02142   0.58194   0.00000  Uiso   1.00
C47    C     0.27585   0.47856   0.41806   0.00000  Uiso   1.00
C48    C     0.25000  -0.00000   0.02127   0.00000  Uiso   1.00
C49    C     0.25000  -0.00000   0.97872   0.00000  Uiso   1.00
C50    C     0.00001   0.25000   0.02127   0.00000  Uiso   1.00
C51    C     0.00001   0.25001   0.97872   0.00000  Uiso   1.00
C52    C    -0.00000   0.25000   0.52126   0.00000  Uiso   1.00
C53    C    -0.00000   0.25000   0.47871   0.00000  Uiso   1.00
C54    C     0.25000   0.00000   0.52127   0.00000  Uiso   1.00
C55    C     0.47488   0.27238   0.95834   0.00000  Uiso   1.00
C56    C     0.25000   0.00000   0.47873   0.00000  Uiso   1.00
C57    C     0.25000  -0.00000   0.35517   0.00000  Uiso   1.00
C58    C     0.25000   0.00000   0.64483   0.00000  Uiso   1.00
C59    C     0.00000   0.25000   0.35517   0.00000  Uiso   1.00
C60    C     0.00000   0.25000   0.64483   0.00000  Uiso   1.00
C61    C     0.00000   0.25000   0.85517   0.00000  Uiso   1.00
C62    C     0.00000   0.25000   0.14483   0.00000  Uiso   1.00
C63    C     0.25000  -0.00000   0.85517   0.00000  Uiso   1.00
C64    C     0.25000  -0.00000   0.14483   0.00000  Uiso   1.00
C65    C     0.17996   0.07004   0.25000   0.00000  Uiso   1.00
C66    C     0.27240   0.47489   0.04165   0.00000  Uiso   1.00
C67    C     0.32001   0.42999   0.75000   0.00000  Uiso   1.00
C68    C     0.42996   0.17996   0.25000   0.00000  Uiso   1.00
C69    C     0.07001   0.32001   0.75000   0.00000  Uiso   1.00
C70    C     0.32004   0.42996   0.25000   0.00000  Uiso   1.00
C71    C     0.17999   0.07001   0.75000   0.00000  Uiso   1.00
C72    C     0.07004   0.32004   0.25000   0.00000  Uiso   1.00
C73    C     0.42999   0.17999   0.75000   0.00000  Uiso   1.00
C74    C     0.17996   0.42996   0.75000   0.00000  Uiso   1.00
C75    C     0.32001   0.07001   0.25000   0.00000  Uiso   1.00
C76    C     0.42996   0.32004   0.75000   0.00000  Uiso   1.00
C77    C     0.22761   0.47489   0.95834   0.00000  Uiso   1.00
C78    C     0.07001   0.17999   0.25000   0.00000  Uiso   1.00
C79    C     0.32004   0.07004   0.75000   0.00000  Uiso   1.00
C80    C     0.17999   0.42999   0.25000   0.00000  Uiso   1.00
C81    C     0.07004   0.17996   0.75000   0.00000  Uiso   1.00
C82    C     0.42999   0.32001   0.25000   0.00000  Uiso   1.00
C83    C     0.15102   0.37624   0.21981   0.00000  Uiso   1.00
C84    C     0.34885   0.12416   0.77993   0.00000  Uiso   1.00
C85    C     0.12375   0.15101   0.21980   0.00000  Uiso   1.00
C86    C     0.37585   0.34886   0.77994   0.00000  Uiso   1.00
C87    C     0.34898   0.12376   0.21981   0.00000  Uiso   1.00
C88    C     0.02510   0.27241   0.04166   0.00000  Uiso   1.00
C89    C     0.15115   0.37584   0.77993   0.00000  Uiso   1.00
C90    C     0.37626   0.34899   0.21980   0.00000  Uiso   1.00
C91    C     0.12415   0.15114   0.77994   0.00000  Uiso   1.00
C92    C     0.15100   0.12374   0.78020   0.00000  Uiso   1.00
C93    C     0.34886   0.37585   0.22006   0.00000  Uiso   1.00
C94    C     0.12376   0.34898   0.78019   0.00000  Uiso   1.00
C95    C     0.37583   0.15115   0.22007   0.00000  Uiso   1.00
C96    C     0.34900   0.37626   0.78020   0.00000  Uiso   1.00
C97    C     0.15114   0.12416   0.22006   0.00000  Uiso   1.00
C98    C     0.37624   0.15102   0.78019   0.00000  Uiso   1.00
C99    C     0.02513   0.22763   0.95834   0.00000  Uiso   1.00
C100   C     0.12417   0.34884   0.22007   0.00000  Uiso   1.00
C101   C     0.40102   0.12624   0.71981   0.00000  Uiso   1.00
C102   C     0.09884   0.37417   0.27992   0.00000  Uiso   1.00
C103   C     0.37374   0.40100   0.71979   0.00000  Uiso   1.00
C104   C     0.12585   0.09886   0.27994   0.00000  Uiso   1.00
C105   C     0.09898   0.37376   0.71981   0.00000  Uiso   1.00
C106   C     0.40116   0.12583   0.27993   0.00000  Uiso   1.00
C107   C     0.12626   0.09900   0.71979   0.00000  Uiso   1.00
C108   C     0.37415   0.40114   0.27994   0.00000  Uiso   1.00
C109   C     0.40101   0.37374   0.28020   0.00000  Uiso   1.00
C110   C     0.47739   0.27491   0.54164   0.00000  Uiso   1.00
C111   C     0.09886   0.12585   0.72005   0.00000  Uiso   1.00
C112   C     0.37376   0.09898   0.28019   0.00000  Uiso   1.00
C113   C     0.12584   0.40115   0.72007   0.00000  Uiso   1.00
C114   C     0.09899   0.12625   0.28020   0.00000  Uiso   1.00
C115   C     0.40114   0.37415   0.72005   0.00000  Uiso   1.00
C116   C     0.12624   0.40102   0.28019   0.00000  Uiso   1.00
C117   C     0.37416   0.09885   0.72007   0.00000  Uiso   1.00
C118   C     0.09813   0.34813   0.25000   0.00000  Uiso   1.00
C119   C     0.40196   0.15196   0.75000   0.00000  Uiso   1.00
C120   C     0.15187   0.09813   0.25000   0.00000  Uiso   1.00
H121   H     0.20440   0.04597   0.99537   0.00000  Uiso   1.00
H122   H     0.04519   0.29637   0.50462   0.00000  Uiso   1.00
H123   H     0.20401   0.45443   0.49537   0.00000  Uiso   1.00
H124   H     0.20405   0.04562   0.50463   0.00000  Uiso   1.00
H125   H     0.04600   0.20443   0.49536   0.00000  Uiso   1.00
H126   H     0.45481   0.20362   0.50462   0.00000  Uiso   1.00
H127   H     0.29599   0.04557   0.49537   0.00000  Uiso   1.00
H128   H     0.29595   0.45439   0.50463   0.00000  Uiso   1.00
H129   H     0.21891   0.05786   0.12579   0.00000  Uiso   1.00
H130   H     0.28108   0.05786   0.87421   0.00000  Uiso   1.00
H131   H     0.44215   0.21889   0.12578   0.00000  Uiso   1.00
H132   H     0.29560   0.04597   0.00463   0.00000  Uiso   1.00
H133   H     0.44213   0.28105   0.87421   0.00000  Uiso   1.00
H134   H     0.28109   0.44214   0.12579   0.00000  Uiso   1.00
H135   H     0.21892   0.44214   0.87421   0.00000  Uiso   1.00
H136   H     0.05785   0.28111   0.12579   0.00000  Uiso   1.00
H137   H     0.05788   0.21895   0.87420   0.00000  Uiso   1.00
H138   H     0.46856   0.30771   0.62571   0.00000  Uiso   1.00
H139   H     0.03075   0.30800   0.37413   0.00000  Uiso   1.00
H140   H     0.19214   0.46892   0.62579   0.00000  Uiso   1.00
H141   H     0.19216   0.03112   0.37422   0.00000  Uiso   1.00
H142   H     0.03144   0.19229   0.62571   0.00000  Uiso   1.00
H143   H     0.45407   0.20438   0.99537   0.00000  Uiso   1.00
H144   H     0.46925   0.19200   0.37413   0.00000  Uiso   1.00
H145   H     0.30786   0.03108   0.62579   0.00000  Uiso   1.00
H146   H     0.30784   0.46888   0.37422   0.00000  Uiso   1.00
H147   H     0.45403   0.29559   0.00463   0.00000  Uiso   1.00
H148   H     0.29560   0.45403   0.99537   0.00000  Uiso   1.00
H149   H     0.20441   0.45403   0.00463   0.00000  Uiso   1.00
H150   H     0.04595   0.29563   0.99537   0.00000  Uiso   1.00
H151   H     0.04602   0.20445   0.00463   0.00000  Uiso   1.00
H152   H     0.45399   0.29555   0.49536   0.00000  Uiso   1.00
I153   I     0.19096   0.37887   0.17454   0.00000  Uiso   1.00
I154   I     0.30756   0.37670   0.17628   0.00000  Uiso   1.00
I155   I     0.12112   0.30905   0.82546   0.00000  Uiso   1.00
I156   I     0.37668   0.19247   0.17630   0.00000  Uiso   1.00
I157   I     0.30908   0.37891   0.82549   0.00000  Uiso   1.00
I158   I     0.19245   0.12330   0.17629   0.00000  Uiso   1.00
I159   I     0.37888   0.19095   0.82546   0.00000  Uiso   1.00
I160   I     0.12332   0.30753   0.17631   0.00000  Uiso   1.00
I161   I     0.44095   0.12888   0.67454   0.00000  Uiso   1.00
I162   I     0.05752   0.37334   0.32368   0.00000  Uiso   1.00
I163   I     0.37109   0.44092   0.67450   0.00000  Uiso   1.00
I164   I     0.30754   0.12332   0.82370   0.00000  Uiso   1.00
I165   I     0.12670   0.05756   0.32372   0.00000  Uiso   1.00
I166   I     0.05905   0.37112   0.67454   0.00000  Uiso   1.00
I167   I     0.44248   0.12666   0.32368   0.00000  Uiso   1.00
I168   I     0.12891   0.05908   0.67451   0.00000  Uiso   1.00
I169   I     0.37330   0.44244   0.32372   0.00000  Uiso   1.00
I170   I     0.44092   0.37110   0.32549   0.00000  Uiso   1.00
I171   I     0.05757   0.12672   0.67627   0.00000  Uiso   1.00
I172   I     0.37113   0.05904   0.32545   0.00000  Uiso   1.00
I173   I     0.12668   0.44247   0.67630   0.00000  Uiso   1.00
I174   I     0.05907   0.12890   0.32548   0.00000  Uiso   1.00
I175   I     0.12110   0.19093   0.17452   0.00000  Uiso   1.00
I176   I     0.44243   0.37328   0.67626   0.00000  Uiso   1.00
I177   I     0.12887   0.44096   0.32545   0.00000  Uiso   1.00
I178   I     0.37332   0.05753   0.67630   0.00000  Uiso   1.00
I179   I     0.37671   0.30756   0.82372   0.00000  Uiso   1.00
I180   I     0.30905   0.12113   0.17454   0.00000  Uiso   1.00
I181   I     0.19247   0.37668   0.82370   0.00000  Uiso   1.00
I182   I     0.37890   0.30907   0.17451   0.00000  Uiso   1.00
I183   I     0.12330   0.19244   0.82372   0.00000  Uiso   1.00
I184   I     0.19092   0.12109   0.82549   0.00000  Uiso   1.00
O185   O     0.25000  -0.00000   0.25000   0.00000  Uiso   1.00
O186   O     0.25000   0.46964   0.66317   0.00000  Uiso   1.00
O187   O     0.46964   0.25000   0.33683   0.00000  Uiso   1.00
O188   O     0.03036   0.25000   0.66317   0.00000  Uiso   1.00
O189   O     0.00000   0.21964   0.83683   0.00000  Uiso   1.00
O190   O     0.00000   0.28036   0.16317   0.00000  Uiso   1.00
O191   O     0.28036  -0.00000   0.83683   0.00000  Uiso   1.00
O192   O     0.21964  -0.00000   0.16317   0.00000  Uiso   1.00
O193   O     0.00000   0.28036   0.83683   0.00000  Uiso   1.00
O194   O     0.00000   0.21964   0.16317   0.00000  Uiso   1.00
O195   O     0.21964  -0.00000   0.83683   0.00000  Uiso   1.00
O196   O     0.25000  -0.00000   0.75000   0.00000  Uiso   1.00
O197   O     0.28036  -0.00000   0.16317   0.00000  Uiso   1.00
O198   O     0.20726   0.07307   0.27282   0.00000  Uiso   1.00
O199   O     0.29275   0.42693   0.72718   0.00000  Uiso   1.00
O200   O     0.42693   0.20725   0.27282   0.00000  Uiso   1.00
O201   O     0.07307   0.29275   0.72718   0.00000  Uiso   1.00
O202   O     0.29275   0.42693   0.27282   0.00000  Uiso   1.00
O203   O     0.20726   0.07307   0.72718   0.00000  Uiso   1.00
O204   O     0.07307   0.29275   0.27282   0.00000  Uiso   1.00
O205   O     0.42693   0.20725   0.72718   0.00000  Uiso   1.00
O206   O     0.20726   0.42693   0.72718   0.00000  Uiso   1.00
O207   O     0.00000   0.25000   0.25000   0.00000  Uiso   1.00
O208   O     0.29275   0.07307   0.27282   0.00000  Uiso   1.00
O209   O     0.42693   0.29275   0.72718   0.00000  Uiso   1.00
O210   O     0.07307   0.20726   0.27282   0.00000  Uiso   1.00
O211   O     0.29275   0.07307   0.72718   0.00000  Uiso   1.00
O212   O     0.20726   0.42693   0.27282   0.00000  Uiso   1.00
O213   O     0.07307   0.20726   0.72718   0.00000  Uiso   1.00
O214   O     0.42693   0.29275   0.27282   0.00000  Uiso   1.00
O215   O     0.45726   0.32307   0.77282   0.00000  Uiso   1.00
O216   O     0.04275   0.17693   0.22718   0.00000  Uiso   1.00
O217   O     0.17693   0.45726   0.77282   0.00000  Uiso   1.00
O218   O     0.00000   0.25000   0.75000   0.00000  Uiso   1.00
O219   O     0.32307   0.04274   0.22718   0.00000  Uiso   1.00
O220   O     0.04275   0.17693   0.77282   0.00000  Uiso   1.00
O221   O     0.45726   0.32307   0.22718   0.00000  Uiso   1.00
O222   O     0.32307   0.04274   0.77282   0.00000  Uiso   1.00
O223   O     0.17693   0.45726   0.22718   0.00000  Uiso   1.00
O224   O     0.45726   0.17693   0.22718   0.00000  Uiso   1.00
O225   O     0.04275   0.32307   0.77282   0.00000  Uiso   1.00
O226   O     0.17693   0.04274   0.22718   0.00000  Uiso   1.00
O227   O     0.32307   0.45726   0.77282   0.00000  Uiso   1.00
O228   O     0.04275   0.32307   0.22718   0.00000  Uiso   1.00
O229   O     0.25000   0.46964   0.33683   0.00000  Uiso   1.00
O230   O     0.45726   0.17693   0.77282   0.00000  Uiso   1.00
O231   O     0.32307   0.45726   0.22718   0.00000  Uiso   1.00
O232   O     0.17693   0.04274   0.77282   0.00000  Uiso   1.00
O233   O     0.20501   0.05026   0.02354   0.00000  Uiso   1.00
O234   O     0.29499   0.05026   0.97646   0.00000  Uiso   1.00
O235   O     0.44977   0.20498   0.02354   0.00000  Uiso   1.00
O236   O     0.44972   0.29496   0.97646   0.00000  Uiso   1.00
O237   O     0.29500   0.44974   0.02354   0.00000  Uiso   1.00
O238   O     0.20501   0.44974   0.97646   0.00000  Uiso   1.00
O239   O     0.05024   0.29502   0.02355   0.00000  Uiso   1.00
O240   O     0.25000   0.03036   0.66317   0.00000  Uiso   1.00
O241   O     0.05030   0.20505   0.97645   0.00000  Uiso   1.00
O242   O     0.45457   0.29987   0.52353   0.00000  Uiso   1.00
O243   O     0.04457   0.30063   0.47645   0.00000  Uiso   1.00
O244   O     0.19973   0.45501   0.52354   0.00000  Uiso   1.00
O245   O     0.19978   0.04503   0.47646   0.00000  Uiso   1.00
O246   O     0.04542   0.20013   0.52353   0.00000  Uiso   1.00
O247   O     0.45543   0.19936   0.47644   0.00000  Uiso   1.00
O248   O     0.30026   0.04499   0.52354   0.00000  Uiso   1.00
O249   O     0.30022   0.45497   0.47646   0.00000  Uiso   1.00
O250   O     0.20826   0.05275   0.10011   0.00000  Uiso   1.00
O251   O     0.03036   0.25000   0.33683   0.00000  Uiso   1.00
O252   O     0.29173   0.05275   0.89989   0.00000  Uiso   1.00
O253   O     0.44727   0.20824   0.10010   0.00000  Uiso   1.00
O254   O     0.44722   0.29170   0.89989   0.00000  Uiso   1.00
O255   O     0.29174   0.44725   0.10011   0.00000  Uiso   1.00
O256   O     0.20827   0.44725   0.89989   0.00000  Uiso   1.00
O257   O     0.05273   0.29176   0.10011   0.00000  Uiso   1.00
O258   O     0.05279   0.20830   0.89989   0.00000  Uiso   1.00
O259   O     0.45785   0.30242   0.60009   0.00000  Uiso   1.00
O260   O     0.04134   0.30307   0.39988   0.00000  Uiso   1.00
O261   O     0.19725   0.45826   0.60011   0.00000  Uiso   1.00
O262   O     0.46964   0.25000   0.66317   0.00000  Uiso   1.00
O263   O     0.19728   0.04178   0.39989   0.00000  Uiso   1.00
O264   O     0.04215   0.19758   0.60009   0.00000  Uiso   1.00
O265   O     0.45866   0.19693   0.39988   0.00000  Uiso   1.00
O266   O     0.30275   0.04174   0.60011   0.00000  Uiso   1.00
O267   O     0.30272   0.45822   0.39989   0.00000  Uiso   1.00
O268   O     0.25000   0.03036   0.33683   0.00000  Uiso   1.00
Zn269  Zn    0.20660  -0.00000   0.21760   0.00000  Uiso   1.00
Zn270  Zn    0.04340   0.25000   0.28240   0.00000  Uiso   1.00
Zn271  Zn    0.25000   0.45660   0.71760   0.00000  Uiso   1.00
Zn272  Zn    0.25000   0.04340   0.28240   0.00000  Uiso   1.00
Zn273  Zn    0.04340   0.25000   0.71760   0.00000  Uiso   1.00
Zn274  Zn    0.45660   0.25000   0.28240   0.00000  Uiso   1.00
Zn275  Zn    0.25000   0.04340   0.71760   0.00000  Uiso   1.00
Zn276  Zn    0.25000   0.45660   0.28240   0.00000  Uiso   1.00
Zn277  Zn    0.29340  -0.00000   0.78240   0.00000  Uiso   1.00
Zn278  Zn    0.00000   0.20660   0.21760   0.00000  Uiso   1.00
Zn279  Zn    0.00000   0.29340   0.78240   0.00000  Uiso   1.00
Zn280  Zn    0.29340  -0.00000   0.21760   0.00000  Uiso   1.00
Zn281  Zn    0.20660  -0.00000   0.78240   0.00000  Uiso   1.00
Zn282  Zn    0.00000   0.29340   0.21760   0.00000  Uiso   1.00
Zn283  Zn    0.00000   0.20660   0.78240   0.00000  Uiso   1.00
Zn284  Zn    0.45660   0.25000   0.71760   0.00000  Uiso   1.00
C285   C     0.72760   0.02511   0.04165   0.00000  Uiso   1.00
C286   C     0.52218   0.27529   0.45833   0.00000  Uiso   1.00
C287   C     0.84804   0.40196   0.75000   0.00000  Uiso   1.00
C288   C     0.90187   0.15187   0.25000   0.00000  Uiso   1.00
C289   C     0.59804   0.34804   0.75000   0.00000  Uiso   1.00
C290   C     0.84813   0.40187   0.25000   0.00000  Uiso   1.00
C291   C     0.65196   0.09804   0.75000   0.00000  Uiso   1.00
C292   C     0.59813   0.15187   0.75000   0.00000  Uiso   1.00
C293   C     0.90196   0.34804   0.25000   0.00000  Uiso   1.00
C294   C     0.65187   0.40187   0.75000   0.00000  Uiso   1.00
C295   C     0.84804   0.09804   0.25000   0.00000  Uiso   1.00
C296   C     0.90187   0.34813   0.75000   0.00000  Uiso   1.00
C297   C     0.72489   0.47761   0.54166   0.00000  Uiso   1.00
C298   C     0.59804   0.15196   0.25000   0.00000  Uiso   1.00
C299   C     0.84813   0.09813   0.75000   0.00000  Uiso   1.00
C300   C     0.65196   0.40196   0.25000   0.00000  Uiso   1.00
C301   C     0.75000   0.00000   0.10243   0.00000  Uiso   1.00
C302   C     0.75000   0.00000   0.89756   0.00000  Uiso   1.00
C303   C     0.50000   0.25000   0.10243   0.00000  Uiso   1.00
C304   C     0.50000   0.25000   0.89756   0.00000  Uiso   1.00
C305   C     0.50000   0.25000   0.60242   0.00000  Uiso   1.00
C306   C     0.50000   0.25000   0.39756   0.00000  Uiso   1.00
C307   C     0.75000   0.00000   0.60243   0.00000  Uiso   1.00
C308   C     0.72491   0.02242   0.45835   0.00000  Uiso   1.00
C309   C     0.75000  -0.00000   0.39757   0.00000  Uiso   1.00
C310   C     0.52261   0.22508   0.54164   0.00000  Uiso   1.00
C311   C     0.97782   0.22470   0.45833   0.00000  Uiso   1.00
C312   C     0.77511   0.02239   0.54166   0.00000  Uiso   1.00
C313   C     0.77509   0.47758   0.45835   0.00000  Uiso   1.00
C314   C     0.72858   0.02587   0.08194   0.00000  Uiso   1.00
C315   C     0.77142   0.02587   0.91806   0.00000  Uiso   1.00
C316   C     0.97414   0.22857   0.08194   0.00000  Uiso   1.00
C317   C     0.77239   0.02511   0.95834   0.00000  Uiso   1.00
C318   C     0.97412   0.27140   0.91806   0.00000  Uiso   1.00
C319   C     0.77142   0.47413   0.08194   0.00000  Uiso   1.00
C320   C     0.72858   0.47413   0.91806   0.00000  Uiso   1.00
C321   C     0.52586   0.27143   0.08194   0.00000  Uiso   1.00
C322   C     0.52589   0.22860   0.91805   0.00000  Uiso   1.00
C323   C     0.97837   0.27569   0.58193   0.00000  Uiso   1.00
C324   C     0.52121   0.27604   0.41804   0.00000  Uiso   1.00
C325   C     0.72413   0.47858   0.58194   0.00000  Uiso   1.00
C326   C     0.72415   0.02144   0.41806   0.00000  Uiso   1.00
C327   C     0.52163   0.22430   0.58193   0.00000  Uiso   1.00
C328   C     0.97491   0.22759   0.04165   0.00000  Uiso   1.00
C329   C     0.97879   0.22396   0.41804   0.00000  Uiso   1.00
C330   C     0.77587   0.02142   0.58194   0.00000  Uiso   1.00
C331   C     0.77585   0.47856   0.41806   0.00000  Uiso   1.00
C332   C     0.75000  -0.00000   0.02127   0.00000  Uiso   1.00
C333   C     0.75000  -0.00000   0.97872   0.00000  Uiso   1.00
C334   C     0.50001   0.25000   0.02127   0.00000  Uiso   1.00
C335   C     0.50001   0.25001   0.97872   0.00000  Uiso   1.00
C336   C     0.50000   0.25000   0.52126   0.00000  Uiso   1.00
C337   C     0.50000   0.25000   0.47871   0.00000  Uiso   1.00
C338   C     0.75000   0.00000   0.52127   0.00000  Uiso   1.00
C339   C     0.97488   0.27238   0.95834   0.00000  Uiso   1.00
C340   C     0.75000   0.00000   0.47873   0.00000  Uiso   1.00
C341   C     0.75000  -0.00000   0.35517   0.00000  Uiso   1.00
C342   C     0.75000   0.00000   0.64483   0.00000  Uiso   1.00
C343   C     0.50000   0.25000   0.35517   0.00000  Uiso   1.00
C344   C     0.50000   0.25000   0.64483   0.00000  Uiso   1.00
C345   C     0.50000   0.25000   0.85517   0.00000  Uiso   1.00
C346   C     0.50000   0.25000   0.14483   0.00000  Uiso   1.00
C347   C     0.75000  -0.00000   0.85517   0.00000  Uiso   1.00
C348   C     0.75000  -0.00000   0.14483   0.00000  Uiso   1.00
C349   C     0.67996   0.07004   0.25000   0.00000  Uiso   1.00
C350   C     0.77240   0.47489   0.04165   0.00000  Uiso   1.00
C351   C     0.82001   0.42999   0.75000   0.00000  Uiso   1.00
C352   C     0.92996   0.17996   0.25000   0.00000  Uiso   1.00
C353   C     0.57001   0.32001   0.75000   0.00000  Uiso   1.00
C354   C     0.82004   0.42996   0.25000   0.00000  Uiso   1.00
C355   C     0.67999   0.07001   0.75000   0.00000  Uiso   1.00
C356   C     0.57004   0.32004   0.25000   0.00000  Uiso   1.00
C357   C     0.92999   0.17999   0.75000   0.00000  Uiso   1.00
C358   C     0.67996   0.42996   0.75000   0.00000  Uiso   1.00
C359   C     0.82001   0.07001   0.25000   0.00000  Uiso   1.00
C360   C     0.92996   0.32004   0.75000   0.00000  Uiso   1.00
C361   C     0.72761   0.47489   0.95834   0.00000  Uiso   1.00
C362   C     0.57001   0.17999   0.25000   0.00000  Uiso   1.00
C363   C     0.82004   0.07004   0.75000   0.00000  Uiso   1.00
C364   C     0.67999   0.42999   0.25000   0.00000  Uiso   1.00
C365   C     0.57004   0.17996   0.75000   0.00000  Uiso   1.00
C366   C     0.92999   0.32001   0.25000   0.00000  Uiso   1.00
C367   C     0.65102   0.37624   0.21981   0.00000  Uiso   1.00
C368   C     0.84885   0.12416   0.77993   0.00000  Uiso   1.00
C369   C     0.62375   0.15101   0.21980   0.00000  Uiso   1.00
C370   C     0.87585   0.34886   0.77994   0.00000  Uiso   1.00
C371   C     0.84898   0.12376   0.21981   0.00000  Uiso   1.00
C372   C     0.52510   0.27241   0.04166   0.00000  Uiso   1.00
C373   C     0.65115   0.37584   0.77993   0.00000  Uiso   1.00
C374   C     0.87626   0.34899   0.21980   0.00000  Uiso   1.00
C375   C     0.62415   0.15114   0.77994   0.00000  Uiso   1.00
C376   C     0.65100   0.12374   0.78020   0.00000  Uiso   1.00
C377   C     0.84886   0.37585   0.22006   0.00000  Uiso   1.00
C378   C     0.62376   0.34898   0.78019   0.00000  Uiso   1.00
C379   C     0.87583   0.15115   0.22007   0.00000  Uiso   1.00
C380   C     0.84900   0.37626   0.78020   0.00000  Uiso   1.00
C381   C     0.65114   0.12416   0.22006   0.00000  Uiso   1.00
C382   C     0.87624   0.15102   0.78019   0.00000  Uiso   1.00
C383   C     0.52513   0.22763   0.95834   0.00000  Uiso   1.00
C384   C     0.62417   0.34884   0.22007   0.00000  Uiso   1.00
C385   C     0.90102   0.12624   0.71981   0.00000  Uiso   1.00
C386   C     0.59884   0.37417   0.27992   0.00000  Uiso   1.00
C387   C     0.87374   0.40100   0.71979   0.00000  Uiso   1.00
C388   C     0.62585   0.09886   0.27994   0.00000  Uiso   1.00
C389   C     0.59898   0.37376   0.71981   0.00000  Uiso   1.00
C390   C     0.90116   0.12583   0.27993   0.00000  Uiso   1.00
C391   C     0.62626   0.09900   0.71979   0.00000  Uiso   1.00
C392   C     0.87415   0.40114   0.27994   0.00000  Uiso   1.00
C393   C     0.90101   0.37374   0.28020   0.00000  Uiso   1.00
C394   C     0.97739   0.27491   0.54164   0.00000  Uiso   1.00
C395   C     0.59886   0.12585   0.72005   0.00000  Uiso   1.00
C396   C     0.87376   0.09898   0.28019   0.00000  Uiso   1.00
C397   C     0.62584   0.40115   0.72007   0.00000  Uiso   1.00
C398   C     0.59899   0.12625   0.28020   0.00000  Uiso   1.00
C399   C     0.90114   0.37415   0.72005   0.00000  Uiso   1.00
C400   C     0.62624   0.40102   0.28019   0.00000  Uiso   1.00
C401   C     0.87416   0.09885   0.72007   0.00000  Uiso   1.00
C402   C     0.59813   0.34813   0.25000   0.00000  Uiso   1.00
C403   C     0.90196   0.15196   0.75000   0.00000  Uiso   1.00
C404   C     0.65187   0.09813   0.25000   0.00000  Uiso   1.00
H405   H     0.70440   0.04597   0.99537   0.00000  Uiso   1.00
H406   H     0.54519   0.29637   0.50462   0.00000  Uiso   1.00
H407   H     0.70401   0.45443   0.49537   0.00000  Uiso   1.00
H408   H     0.70405   0.04562   0.50463   0.00000  Uiso   1.00
H409   H     0.54600   0.20443   0.49536   0.00000  Uiso   1.00
H410   H     0.95481   0.20362   0.50462   0.00000  Uiso   1.00
H411   H     0.79599   0.04557   0.49537   0.00000  Uiso   1.00
H412   H     0.79595   0.45439   0.50463   0.00000  Uiso   1.00
H413   H     0.71891   0.05786   0.12579   0.00000  Uiso   1.00
H414   H     0.78108   0.05786   0.87421   0.00000  Uiso   1.00
H415   H     0.94215   0.21889   0.12578   0.00000  Uiso   1.00
H416   H     0.79560   0.04597   0.00463   0.00000  Uiso   1.00
H417   H     0.94213   0.28105   0.87421   0.00000  Uiso   1.00
H418   H     0.78109   0.44214   0.12579   0.00000  Uiso   1.00
H419   H     0.71892   0.44214   0.87421   0.00000  Uiso   1.00
H420   H     0.55785   0.28111   0.12579   0.00000  Uiso   1.00
H421   H     0.55788   0.21895   0.87420   0.00000  Uiso   1.00
H422   H     0.96856   0.30771   0.62571   0.00000  Uiso   1.00
H423   H     0.53075   0.30800   0.37413   0.00000  Uiso   1.00
H424   H     0.69214   0.46892   0.62579   0.00000  Uiso   1.00
H425   H     0.69216   0.03112   0.37422   0.00000  Uiso   1.00
H426   H     0.53144   0.19229   0.62571   0.00000  Uiso   1.00
H427   H     0.95407   0.20438   0.99537   0.00000  Uiso   1.00
H428   H     0.96925   0.19200   0.37413   0.00000  Uiso   1.00
H429   H     0.80786   0.03108   0.62579   0.00000  Uiso   1.00
H430   H     0.80784   0.46888   0.37422   0.00000  Uiso   1.00
H431   H     0.95403   0.29559   0.00463   0.00000  Uiso   1.00
H432   H     0.79560   0.45403   0.99537   0.00000  Uiso   1.00
H433   H     0.70441   0.45403   0.00463   0.00000  Uiso   1.00
H434   H     0.54595   0.29563   0.99537   0.00000  Uiso   1.00
H435   H     0.54602   0.20445   0.00463   0.00000  Uiso   1.00
H436   H     0.95399   0.29555   0.49536   0.00000  Uiso   1.00
I437   I     0.69096   0.37887   0.17454   0.00000  Uiso   1.00
I438   I     0.80756   0.37670   0.17628   0.00000  Uiso   1.00
I439   I     0.62112   0.30905   0.82546   0.00000  Uiso   1.00
I440   I     0.87668   0.19247   0.17630   0.00000  Uiso   1.00
I441   I     0.80908   0.37891   0.82549   0.00000  Uiso   1.00
I442   I     0.69245   0.12330   0.17629   0.00000  Uiso   1.00
I443   I     0.87888   0.19095   0.82546   0.00000  Uiso   1.00
I444   I     0.62332   0.30753   0.17631   0.00000  Uiso   1.00
I445   I     0.94095   0.12888   0.67454   0.00000  Uiso   1.00
I446   I     0.55752   0.37334   0.32368   0.00000  Uiso   1.00
I447   I     0.87109   0.44092   0.67450   0.00000  Uiso   1.00
I448   I     0.80754   0.12332   0.82370   0.00000  Uiso   1.00
I449   I     0.62670   0.05756   0.32372   0.00000  Uiso   1.00
I450   I     0.55905   0.37112   0.67454   0.00000  Uiso   1.00
I451   I     0.94248   0.12666   0.32368   0.00000  Uiso   1.00
I452   I     0.62891   0.05908   0.67451   0.00000  Uiso   1.00
I453   I     0.87330   0.44244   0.32372   0.00000  Uiso   1.00
I454   I     0.94092   0.37110   0.32549   0.00000  Uiso   1.00
I455   I     0.55757   0.12672   0.67627   0.00000  Uiso   1.00
I456   I     0.87113   0.05904   0.32545   0.00000  Uiso   1.00
I457   I     0.62668   0.44247   0.67630   0.00000  Uiso   1.00
I458   I     0.55907   0.12890   0.32548   0.00000  Uiso   1.00
I459   I     0.62110   0.19093   0.17452   0.00000  Uiso   1.00
I460   I     0.94243   0.37328   0.67626   0.00000  Uiso   1.00
I461   I     0.62887   0.44096   0.32545   0.00000  Uiso   1.00
I462   I     0.87332   0.05753   0.67630   0.00000  Uiso   1.00
I463   I     0.87671   0.30756   0.82372   0.00000  Uiso   1.00
I464   I     0.80905   0.12113   0.17454   0.00000  Uiso   1.00
I465   I     0.69247   0.37668   0.82370   0.00000  Uiso   1.00
I466   I     0.87890   0.30907   0.17451   0.00000  Uiso   1.00
I467   I     0.62330   0.19244   0.82372   0.00000  Uiso   1.00
I468   I     0.69092   0.12109   0.82549   0.00000  Uiso   1.00
O469   O     0.75000  -0.00000   0.25000   0.00000  Uiso   1.00
O470   O     0.75000   0.46964   0.66317   0.00000  Uiso   1.00
O471   O     0.96964   0.25000   0.33683   0.00000  Uiso   1.00
O472   O     0.53036   0.25000   0.66317   0.00000  Uiso   1.00
O473   O     0.50000   0.21964   0.83683   0.00000  Uiso   1.00
O474   O     0.50000   0.28036   0.16317   0.00000  Uiso   1.00
O475   O     0.78036  -0.00000   0.83683   0.00000  Uiso   1.00
O476   O     0.71964  -0.00000   0.16317   0.00000  Uiso   1.00
O477   O     0.50000   0.28036   0.83683   0.00000  Uiso   1.00
O478   O     0.50000   0.21964   0.16317   0.00000  Uiso   1.00
O479   O     0.71964  -0.00000   0.83683   0.00000  Uiso   1.00
O480   O     0.75000  -0.00000   0.75000   0.00000  Uiso   1.00
O481   O     0.78036  -0.00000   0.16317   0.00000  Uiso   1.00
O482   O     0.70726   0.07307   0.27282   0.00000  Uiso   1.00
O483   O     0.79275   0.42693   0.72718   0.00000  Uiso   1.00
O484   O     0.92693   0.20725   0.27282   0.00000  Uiso   1.00
O485   O     0.57307   0.29275   0.72718   0.00000  Uiso   1.00
O486   O     0.79275   0.42693   0.27282   0.00000  Uiso   1.00
O487   O     0.70726   0.07307   0.72718   0.00000  Uiso   1.00
O488   O     0.57307   0.29275   0.27282   0.00000  Uiso   1.00
O489   O     0.92693   0.20725   0.72718   0.00000  Uiso   1.00
O490   O     0.70726   0.42693   0.72718   0.00000  Uiso   1.00
O491   O     0.50000   0.25000   0.25000   0.00000  Uiso   1.00
O492   O     0.79275   0.07307   0.27282   0.00000  Uiso   1.00
O493   O     0.92693   0.29275   0.72718   0.00000  Uiso   1.00
O494   O     0.57307   0.20726   0.27282   0.00000  Uiso   1.00
O495   O     0.79275   0.07307   0.72718   0.00000  Uiso   1.00
O496   O     0.70726   0.42693   0.27282   0.00000  Uiso   1.00
O497   O     0.57307   0.20726   0.72718   0.00000  Uiso   1.00
O498   O     0.92693   0.29275   0.27282   0.00000  Uiso   1.00
O499   O     0.95726   0.32307   0.77282   0.00000  Uiso   1.00
O500   O     0.54275   0.17693   0.22718   0.00000  Uiso   1.00
O501   O     0.67693   0.45726   0.77282   0.00000  Uiso   1.00
O502   O     0.50000   0.25000   0.75000   0.00000  Uiso   1.00
O503   O     0.82307   0.04274   0.22718   0.00000  Uiso   1.00
O504   O     0.54275   0.17693   0.77282   0.00000  Uiso   1.00
O505   O     0.95726   0.32307   0.22718   0.00000  Uiso   1.00
O506   O     0.82307   0.04274   0.77282   0.00000  Uiso   1.00
O507   O     0.67693   0.45726   0.22718   0.00000  Uiso   1.00
O508   O     0.95726   0.17693   0.22718   0.00000  Uiso   1.00
O509   O     0.54275   0.32307   0.77282   0.00000  Uiso   1.00
O510   O     0.67693   0.04274   0.22718   0.00000  Uiso   1.00
O511   O     0.82307   0.45726   0.77282   0.00000  Uiso   1.00
O512   O     0.54275   0.32307   0.22718   0.00000  Uiso   1.00
O513   O     0.75000   0.46964   0.33683   0.00000  Uiso   1.00
O514   O     0.95726   0.17693   0.77282   0.00000  Uiso   1.00
O515   O     0.82307   0.45726   0.22718   0.00000  Uiso   1.00
O516   O     0.67693   0.04274   0.77282   0.00000  Uiso   1.00
O517   O     0.70501   0.05026   0.02354   0.00000  Uiso   1.00
O518   O     0.79499   0.05026   0.97646   0.00000  Uiso   1.00
O519   O     0.94977   0.20498   0.02354   0.00000  Uiso   1.00
O520   O     0.94972   0.29496   0.97646   0.00000  Uiso   1.00
O521   O     0.79500   0.44974   0.02354   0.00000  Uiso   1.00
O522   O     0.70501   0.44974   0.97646   0.00000  Uiso   1.00
O523   O     0.55024   0.29502   0.02355   0.00000  Uiso   1.00
O524   O     0.75000   0.03036   0.66317   0.00000  Uiso   1.00
O525   O     0.55030   0.20505   0.97645   0.00000  Uiso   1.00
O526   O     0.95457   0.29987   0.52353   0.00000  Uiso   1.00
O527   O     0.54457   0.30063   0.47645   0.00000  Uiso   1.00
O528   O     0.69973   0.45501   0.52354   0.00000  Uiso   1.00
O529   O     0.69978   0.04503   0.47646   0.00000  Uiso   1.00
O530   O     0.54542   0.20013   0.52353   0.00000  Uiso   1.00
O531   O     0.95543   0.19936   0.47644   0.00000  Uiso   1.00
O532   O     0.80026   0.04499   0.52354   0.00000  Uiso   1.00
O533   O     0.80022   0.45497   0.47646   0.00000  Uiso   1.00
O534   O     0.70826   0.05275   0.10011   0.00000  Uiso   1.00
O535   O     0.53036   0.25000   0.33683   0.00000  Uiso   1.00
O536   O     0.79173   0.05275   0.89989   0.00000  Uiso   1.00
O537   O     0.94727   0.20824   0.10010   0.00000  Uiso   1.00
O538   O     0.94722   0.29170   0.89989   0.00000  Uiso   1.00
O539   O     0.79174   0.44725   0.10011   0.00000  Uiso   1.00
O540   O     0.70827   0.44725   0.89989   0.00000  Uiso   1.00
O541   O     0.55273   0.29176   0.10011   0.00000  Uiso   1.00
O542   O     0.55279   0.20830   0.89989   0.00000  Uiso   1.00
O543   O     0.95785   0.30242   0.60009   0.00000  Uiso   1.00
O544   O     0.54134   0.30307   0.39988   0.00000  Uiso   1.00
O545   O     0.69725   0.45826   0.60011   0.00000  Uiso   1.00
O546   O     0.96964   0.25000   0.66317   0.00000  Uiso   1.00
O547   O     0.69728   0.04178   0.39989   0.00000  Uiso   1.00
O548   O     0.54215   0.19758   0.60009   0.00000  Uiso   1.00
O549   O     0.95866   0.19693   0.39988   0.00000  Uiso   1.00
O550   O     0.80275   0.04174   0.60011   0.00000  Uiso   1.00
O551   O     0.80272   0.45822   0.39989   0.00000  Uiso   1.00
O552   O     0.75000   0.03036   0.33683   0.00000  Uiso   1.00
Zn553  Zn    0.70660  -0.00000   0.21760   0.00000  Uiso   1.00
Zn554  Zn    0.54340   0.25000   0.28240   0.00000  Uiso   1.00
Zn555  Zn    0.75000   0.45660   0.71760   0.00000  Uiso   1.00
Zn556  Zn    0.75000   0.04340   0.28240   0.00000  Uiso   1.00
Zn557  Zn    0.54340   0.25000   0.71760   0.00000  Uiso   1.00
Zn558  Zn    0.95660   0.25000   0.28240   0.00000  Uiso   1.00
Zn559  Zn    0.75000   0.04340   0.71760   0.00000  Uiso   1.00
Zn560  Zn    0.75000   0.45660   0.28240   0.00000  Uiso   1.00
Zn561  Zn    0.79340  -0.00000   0.78240   0.00000  Uiso   1.00
Zn562  Zn    0.50000   0.20660   0.21760   0.00000  Uiso   1.00
Zn563  Zn    0.50000   0.29340   0.78240   0.00000  Uiso   1.00
Zn564  Zn    0.79340  -0.00000   0.21760   0.00000  Uiso   1.00
Zn565  Zn    0.70660  -0.00000   0.78240   0.00000  Uiso   1.00
Zn566  Zn    0.50000   0.29340   0.21760   0.00000  Uiso   1.00
Zn567  Zn    0.50000   0.20660   0.78240   0.00000  Uiso   1.00
Zn568  Zn    0.95660   0.25000   0.71760   0.00000  Uiso   1.00
C569   C     0.22760   0.52511   0.04165   0.00000  Uiso   1.00
C570   C     0.02218   0.77529   0.45833   0.00000  Uiso   1.00
C571   C     0.34804   0.90196   0.75000   0.00000  Uiso   1.00
C572   C     0.40187   0.65187   0.25000   0.00000  Uiso   1.00
C573   C     0.09804   0.84804   0.75000   0.00000  Uiso   1.00
C574   C     0.34813   0.90187   0.25000   0.00000  Uiso   1.00
C575   C     0.15196   0.59804   0.75000   0.00000  Uiso   1.00
C576   C     0.09813   0.65187   0.75000   0.00000  Uiso   1.00
C577   C     0.40196   0.84804   0.25000   0.00000  Uiso   1.00
C578   C     0.15187   0.90187   0.75000   0.00000  Uiso   1.00
C579   C     0.34804   0.59804   0.25000   0.00000  Uiso   1.00
C580   C     0.40187   0.84813   0.75000   0.00000  Uiso   1.00
C581   C     0.22489   0.97761   0.54166   0.00000  Uiso   1.00
C582   C     0.09804   0.65196   0.25000   0.00000  Uiso   1.00
C583   C     0.34813   0.59813   0.75000   0.00000  Uiso   1.00
C584   C     0.15196   0.90196   0.25000   0.00000  Uiso   1.00
C585   C     0.25000   0.50000   0.10243   0.00000  Uiso   1.00
C586   C     0.25000   0.50000   0.89756   0.00000  Uiso   1.00
C587   C     0.00000   0.75000   0.10243   0.00000  Uiso   1.00
C588   C     0.00000   0.75000   0.89756   0.00000  Uiso   1.00
C589   C     0.00000   0.75000   0.60242   0.00000  Uiso   1.00
C590   C     0.00000   0.75000   0.39756   0.00000  Uiso   1.00
C591   C     0.25000   0.50000   0.60243   0.00000  Uiso   1.00
C592   C     0.22491   0.52242   0.45835   0.00000  Uiso   1.00
C593   C     0.25000   0.50000   0.39757   0.00000  Uiso   1.00
C594   C     0.02261   0.72508   0.54164   0.00000  Uiso   1.00
C595   C     0.47782   0.72470   0.45833   0.00000  Uiso   1.00
C596   C     0.27511   0.52239   0.54166   0.00000  Uiso   1.00
C597   C     0.27509   0.97758   0.45835   0.00000  Uiso   1.00
C598   C     0.22858   0.52587   0.08194   0.00000  Uiso   1.00
C599   C     0.27142   0.52587   0.91806   0.00000  Uiso   1.00
C600   C     0.47414   0.72857   0.08194   0.00000  Uiso   1.00
C601   C     0.27239   0.52511   0.95834   0.00000  Uiso   1.00
C602   C     0.47412   0.77140   0.91806   0.00000  Uiso   1.00
C603   C     0.27142   0.97413   0.08194   0.00000  Uiso   1.00
C604   C     0.22858   0.97413   0.91806   0.00000  Uiso   1.00
C605   C     0.02586   0.77143   0.08194   0.00000  Uiso   1.00
C606   C     0.02589   0.72860   0.91805   0.00000  Uiso   1.00
C607   C     0.47837   0.77569   0.58193   0.00000  Uiso   1.00
C608   C     0.02121   0.77604   0.41804   0.00000  Uiso   1.00
C609   C     0.22413   0.97858   0.58194   0.00000  Uiso   1.00
C610   C     0.22415   0.52144   0.41806   0.00000  Uiso   1.00
C611   C     0.02163   0.72430   0.58193   0.00000  Uiso   1.00
C612   C     0.47491   0.72759   0.04165   0.00000  Uiso   1.00
C613   C     0.47879   0.72396   0.41804   0.00000  Uiso   1.00
C614   C     0.27587   0.52142   0.58194   0.00000  Uiso   1.00
C615   C     0.27585   0.97856   0.41806   0.00000  Uiso   1.00
C616   C     0.25000   0.50000   0.02127   0.00000  Uiso   1.00
C617   C     0.25000   0.50000   0.97872   0.00000  Uiso   1.00
C618   C     0.00001   0.75000   0.02127   0.00000  Uiso   1.00
C619   C     0.00001   0.75001   0.97872   0.00000  Uiso   1.00
C620   C    -0.00000   0.75000   0.52126   0.00000  Uiso   1.00
C621   C    -0.00000   0.75000   0.47871   0.00000  Uiso   1.00
C622   C     0.25000   0.50000   0.52127   0.00000  Uiso   1.00
C623   C     0.47488   0.77238   0.95834   0.00000  Uiso   1.00
C624   C     0.25000   0.50000   0.47873   0.00000  Uiso   1.00
C625   C     0.25000   0.50000   0.35517   0.00000  Uiso   1.00
C626   C     0.25000   0.50000   0.64483   0.00000  Uiso   1.00
C627   C     0.00000   0.75000   0.35517   0.00000  Uiso   1.00
C628   C     0.00000   0.75000   0.64483   0.00000  Uiso   1.00
C629   C     0.00000   0.75000   0.85517   0.00000  Uiso   1.00
C630   C     0.00000   0.75000   0.14483   0.00000  Uiso   1.00
C631   C     0.25000   0.50000   0.85517   0.00000  Uiso   1.00
C632   C     0.25000   0.50000   0.14483   0.00000  Uiso   1.00
C633   C     0.17996   0.57004   0.25000   0.00000  Uiso   1.00
C634   C     0.27240   0.97489   0.04165   0.00000  Uiso   1.00
C635   C     0.32001   0.92999   0.75000   0.00000  Uiso   1.00
C636   C     0.42996   0.67996   0.25000   0.00000  Uiso   1.00
C637   C     0.07001   0.82001   0.75000   0.00000  Uiso   1.00
C638   C     0.32004   0.92996   0.25000   0.00000  Uiso   1.00
C639   C     0.17999   0.57001   0.75000   0.00000  Uiso   1.00
C640   C     0.07004   0.82004   0.25000   0.00000  Uiso   1.00
C641   C     0.42999   0.67999   0.75000   0.00000  Uiso   1.00
C642   C     0.17996   0.92996   0.75000   0.00000  Uiso   1.00
C643   C     0.32001   0.57001   0.25000   0.00000  Uiso   1.00
C644   C     0.42996   0.82004   0.75000   0.00000  Uiso   1.00
C645   C     0.22761   0.97489   0.95834   0.00000  Uiso   1.00
C646   C     0.07001   0.67999   0.25000   0.00000  Uiso   1.00
C647   C     0.32004   0.57004   0.75000   0.00000  Uiso   1.00
C648   C     0.17999   0.92999   0.25000   0.00000  Uiso   1.00
C649   C     0.07004   0.67996   0.75000   0.00000  Uiso   1.00
C650   C     0.42999   0.82001   0.25000   0.00000  Uiso   1.00
C651   C     0.15102   0.87624   0.21981   0.00000  Uiso   1.00
C652   C     0.34885   0.62416   0.77993   0.00000  Uiso   1.00
C653   C     0.12375   0.65101   0.21980   0.00000  Uiso   1.00
C654   C     0.37585   0.84886   0.77994   0.00000  Uiso   1.00
C655   C     0.34898   0.62376   0.21981   0.00000  Uiso   1.00
C656   C     0.02510   0.77241   0.04166   0.00000  Uiso   1.00
C657   C     0.15115   0.87584   0.77993   0.00000  Uiso   1.00
C658   C     0.37626   0.84899   0.21980   0.00000  Uiso   1.00
C659   C     0.12415   0.65114   0.77994   0.00000  Uiso   1.00
C660   C     0.15100   0.62374   0.78020   0.00000  Uiso   1.00
C661   C     0.34886   0.87585   0.22006   0.00000  Uiso   1.00
C662   C     0.12376   0.84898   0.78019   0.00000  Uiso   1.00
C663   C     0.37583   0.65115   0.22007   0.00000  Uiso   1.00
C664   C     0.34900   0.87626   0.78020   0.00000  Uiso   1.00
C665   C     0.15114   0.62416   0.22006   0.00000  Uiso   1.00
C666   C     0.37624   0.65102   0.78019   0.00000  Uiso   1.00
C667   C     0.02513   0.72763   0.95834   0.00000  Uiso   1.00
C668   C     0.12417   0.84884   0.22007   0.00000  Uiso   1.00
C669   C     0.40102   0.62624   0.71981   0.00000  Uiso   1.00
C670   C     0.09884   0.87417   0.27992   0.00000  Uiso   1.00
C671   C     0.37374   0.90100   0.71979   0.00000  Uiso   1.00
C672   C     0.12585   0.59886   0.27994   0.00000  Uiso   1.00
C673   C     0.09898   0.87376   0.71981   0.00000  Uiso   1.00
C674   C     0.40116   0.62583   0.27993   0.00000  Uiso   1.00
C675   C     0.12626   0.59900   0.71979   0.00000  Uiso   1.00
C676   C     0.37415   0.90114   0.27994   0.00000  Uiso   1.00
C677   C     0.40101   0.87374   0.28020   0.00000  Uiso   1.00
C678   C     0.47739   0.77491   0.54164   0.00000  Uiso   1.00
C679   C     0.09886   0.62585   0.72005   0.00000  Uiso   1.00
C680   C     0.37376   0.59898   0.28019   0.00000  Uiso   1.00
C681   C     0.12584   0.90115   0.72007   0.00000  Uiso   1.00
C682   C     0.09899   0.62625   0.28020   0.00000  Uiso   1.00
C683   C     0.40114   0.87415   0.72005   0.00000  Uiso   1.00
C684   C     0.12624   0.90102   0.28019   0.00000  Uiso   1.00
C685   C     0.37416   0.59885   0.72007   0.00000  Uiso   1.00
C686   C     0.09813   0.84813   0.25000   0.00000  Uiso   1.00
C687   C     0.40196   0.65196   0.75000   0.00000  Uiso   1.00
C688   C     0.15187   0.59813   0.25000   0.00000  Uiso   1.00
H689   H     0.20440   0.54597   0.99537   0.00000  Uiso   1.00
H690   H     0.04519   0.79637   0.50462   0.00000  Uiso   1.00
H691   H     0.20401   0.95443   0.49537   0.00000  Uiso   1.00
H692   H     0.20405   0.54562   0.50463   0.00000  Uiso   1.00
H693   H     0.04600   0.70443   0.49536   0.00000  Uiso   1.00
H694   H     0.45481   0.70362   0.50462   0.00000  Uiso   1.00
H695   H     0.29599   0.54557   0.49537   0.00000  Uiso   1.00
H696   H     0.29595   0.95439   0.50463   0.00000  Uiso   1.00
H697   H     0.21891   0.55786   0.12579   0.00000  Uiso   1.00
H698   H     0.28108   0.55786   0.87421   0.00000  Uiso   1.00
H699   H     0.44215   0.71889   0.12578   0.00000  Uiso   1.00
H700   H     0.29560   0.54597   0.00463   0.00000  Uiso   1.00
H701   H     0.44213   0.78105   0.87421   0.00000  Uiso   1.00
H702   H     0.28109   0.94214   0.12579   0.00000  Uiso   1.00
H703   H     0.21892   0.94214   0.87421   0.00000  Uiso   1.00
H704   H     0.05785   0.78111   0.12579   0.00000  Uiso   1.00
H705   H     0.05788   0.71895   0.87420   0.00000  Uiso   1.00
H706   H     0.46856   0.80771   0.62571   0.00000  Uiso   1.00
H707   H     0.03075   0.80800   0.37413   0.00000  Uiso   1.00
H708   H     0.19214   0.96892   0.62579   0.00000  Uiso   1.00
H709   H     0.19216   0.53112   0.37422   0.00000  Uiso   1.00
H710   H     0.03144   0.69229   0.62571   0.00000  Uiso   1.00
H711   H     0.45407   0.70438   0.99537   0.00000  Uiso   1.00
H712   H     0.46925   0.69200   0.37413   0.00000  Uiso   1.00
H713   H     0.30786   0.53108   0.62579   0.00000  Uiso   1.00
H714   H     0.30784   0.96888   0.37422   0.00000  Uiso   1.00
H715   H     0.45403   0.79559   0.00463   0.00000  Uiso   1.00
H716   H     0.29560   0.95403   0.99537   0.00000  Uiso   1.00
H717   H     0.20441   0.95403   0.00463   0.00000  Uiso   1.00
H718   H     0.04595   0.79563   0.99537   0.00000  Uiso   1.00
H719   H     0.04602   0.70445   0.00463   0.00000  Uiso   1.00
H720   H     0.45399   0.79555   0.49536   0.00000  Uiso   1.00
I721   I     0.19096   0.87887   0.17454   0.00000  Uiso   1.00
I722   I     0.30756   0.87670   0.17628   0.00000  Uiso   1.00
I723   I     0.12112   0.80905   0.82546   0.00000  Uiso   1.00
I724   I     0.37668   0.69247   0.17630   0.00000  Uiso   1.00
I725   I     0.30908   0.87891   0.82549   0.00000  Uiso   1.00
I726   I     0.19245   0.62330   0.17629   0.00000  Uiso   1.00
I727   I     0.37888   0.69095   0.82546   0.00000  Uiso   1.00
I728   I     0.12332   0.80753   0.17631   0.00000  Uiso   1.00
I729   I     0.44095   0.62888   0.67454   0.00000  Uiso   1.00
I730   I     0.05752   0.87334   0.32368   0.00000  Uiso   1.00
I731   I     0.37109   0.94092   0.67450   0.00000  Uiso   1.00
I732   I     0.30754   0.62332   0.82370   0.00000  Uiso   1.00
I733   I     0.12670   0.55756   0.32372   0.00000  Uiso   1.00
I734   I     0.05905   0.87112   0.67454   0.00000  Uiso   1.00
I735   I     0.44248   0.62666   0.32368   0.00000  Uiso   1.00
I736   I     0.12891   0.55908   0.67451   0.00000  Uiso   1.00
I737   I     0.37330   0.94244   0.32372   0.00000  Uiso   1.00
I738   I     0.44092   0.87110   0.32549   0.00000  Uiso   1.00
I739   I     0.05757   0.62672   0.67627   0.00000  Uiso   1.00
I740   I     0.37113   0.55904   0.32545   0.00000  Uiso   1.00
I741   I     0.12668   0.94247   0.67630   0.00000  Uiso   1.00
I742   I     0.05907   0.62890   0.32548   0.00000  Uiso   1.00
I743   I     0.12110   0.69093   0.17452   0.00000  Uiso   1.00
I744   I     0.44243   0.87328   0.67626   0.00000  Uiso   1.00
I745   I     0.12887   0.94096   0.32545   0.00000  Uiso   1.00
I746   I     0.37332   0.55753   0.67630   0.00000  Uiso   1.00
I747   I     0.37671   0.80756   0.82372   0.00000  Uiso   1.00
I748   I     0.30905   0.62113   0.17454   0.00000  Uiso   1.00
I749   I     0.19247   0.87668   0.82370   0.00000  Uiso   1.00
I750   I     0.37890   0.80907   0.17451   0.00000  Uiso   1.00
I751   I     0.12330   0.69244   0.82372   0.00000  Uiso   1.00
I752   I     0.19092   0.62109   0.82549   0.00000  Uiso   1.00
O753   O     0.25000   0.50000   0.25000   0.00000  Uiso   1.00
O754   O     0.25000   0.96964   0.66317   0.00000  Uiso   1.00
O755   O     0.46964   0.75000   0.33683   0.00000  Uiso   1.00
O756   O     0.03036   0.75000   0.66317   0.00000  Uiso   1.00
O757   O     0.00000   0.71964   0.83683   0.00000  Uiso   1.00
O758   O     0.00000   0.78036   0.16317   0.00000  Uiso   1.00
O759   O     0.28036   0.50000   0.83683   0.00000  Uiso   1.00
O760   O     0.21964   0.50000   0.16317   0.00000  Uiso   1.00
O761   O     0.00000   0.78036   0.83683   0.00000  Uiso   1.00
O762   O     0.00000   0.71964   0.16317   0.00000  Uiso   1.00
O763   O     0.21964   0.50000   0.83683   0.00000  Uiso   1.00
O764   O     0.25000   0.50000   0.75000   0.00000  Uiso   1.00
O765   O     0.28036   0.50000   0.16317   0.00000  Uiso   1.00
O766   O     0.20726   0.57307   0.27282   0.00000  Uiso   1.00
O767   O     0.29275   0.92693   0.72718   0.00000  Uiso   1.00
O768   O     0.42693   0.70725   0.27282   0.00000  Uiso   1.00
O769   O     0.07307   0.79275   0.72718   0.00000  Uiso   1.00
O770   O     0.29275   0.92693   0.27282   0.00000  Uiso   1.00
O771   O     0.20726   0.57307   0.72718   0.00000  Uiso   1.00
O772   O     0.07307   0.79275   0.27282   0.00000  Uiso   1.00
O773   O     0.42693   0.70725   0.72718   0.00000  Uiso   1.00
O774   O     0.20726   0.92693   0.72718   0.00000  Uiso   1.00
O775   O     0.00000   0.75000   0.25000   0.00000  Uiso   1.00
O776   O     0.29275   0.57307   0.27282   0.00000  Uiso   1.00
O777   O     0.42693   0.79275   0.72718   0.00000  Uiso   1.00
O778   O     0.07307   0.70726   0.27282   0.00000  Uiso   1.00
O779   O     0.29275   0.57307   0.72718   0.00000  Uiso   1.00
O780   O     0.20726   0.92693   0.27282   0.00000  Uiso   1.00
O781   O     0.07307   0.70726   0.72718   0.00000  Uiso   1.00
O782   O     0.42693   0.79275   0.27282   0.00000  Uiso   1.00
O783   O     0.45726   0.82307   0.77282   0.00000  Uiso   1.00
O784   O     0.04275   0.67693   0.22718   0.00000  Uiso   1.00
O785   O     0.17693   0.95726   0.77282   0.00000  Uiso   1.00
O786   O     0.00000   0.75000   0.75000   0.00000  Uiso   1.00
O787   O     0.32307   0.54274   0.22718   0.00000  Uiso   1.00
O788   O     0.04275   0.67693   0.77282   0.00000  Uiso   1.00
O789   O     0.45726   0.82307   0.22718   0.00000  Uiso   1.00
O790   O     0.32307   0.54274   0.77282   0.00000  Uiso   1.00
O791   O     0.17693   0.95726   0.22718   0.00000  Uiso   1.00
O792   O     0.45726   0.67693   0.22718   0.00000  Uiso   1.00
O793   O     0.04275   0.82307   0.77282   0.00000  Uiso   1.00
O794   O     0.17693   0.54274   0.22718   0.00000  Uiso   1.00
O795   O     0.32307   0.95726   0.77282   0.00000  Uiso   1.00
O796   O     0.04275   0.82307   0.22718   0.00000  Uiso   1.00
O797   O     0.25000   0.96964   0.33683   0.00000  Uiso   1.00
O798   O     0.45726   0.67693   0.77282   0.00000  Uiso   1.00
O799   O     0.32307   0.95726   0.22718   0.00000  Uiso   1.00
O800   O     0.17693   0.54274   0.77282   0.00000  Uiso   1.00
O801   O     0.20501   0.55026   0.02354   0.00000  Uiso   1.00
O802   O     0.29499   0.55026   0.97646   0.00000  Uiso   1.00
O803   O     0.44977   0.70498   0.02354   0.00000  Uiso   1.00
O804   O     0.44972   0.79496   0.97646   0.00000  Uiso   1.00
O805   O     0.29500   0.94974   0.02354   0.00000  Uiso   1.00
O806   O     0.20501   0.94974   0.97646   0.00000  Uiso   1.00
O807   O     0.05024   0.79502   0.02355   0.00000  Uiso   1.00
O808   O     0.25000   0.53036   0.66317   0.00000  Uiso   1.00
O809   O     0.05030   0.70505   0.97645   0.00000  Uiso   1.00
O810   O     0.45457   0.79987   0.52353   0.00000  Uiso   1.00
O811   O     0.04457   0.80063   0.47645   0.00000  Uiso   1.00
O812   O     0.19973   0.95501   0.52354   0.00000  Uiso   1.00
O813   O     0.19978   0.54503   0.47646   0.00000  Uiso   1.00
O814   O     0.04542   0.70013   0.52353   0.00000  Uiso   1.00
O815   O     0.45543   0.69936   0.47644   0.00000  Uiso   1.00
O816   O     0.30026   0.54499   0.52354   0.00000  Uiso   1.00
O817   O     0.30022   0.95497   0.47646   0.00000  Uiso   1.00
O818   O     0.20826   0.55275   0.10011   0.00000  Uiso   1.00
O819   O     0.03036   0.75000   0.33683   0.00000  Uiso   1.00
O820   O     0.29173   0.55275   0.89989   0.00000  Uiso   1.00
O821   O     0.44727   0.70824   0.10010   0.00000  Uiso   1.00
O822   O     0.44722   0.79170   0.89989   0.00000  Uiso   1.00
O823   O     0.29174   0.94725   0.10011   0.00000  Uiso   1.00
O824   O     0.20827   0.94725   0.89989   0.00000  Uiso   1.00
O825   O     0.05273   0.79176   0.10011   0.00000  Uiso   1.00
O826   O     0.05279   0.70830   0.89989   0.00000  Uiso   1.00
O827   O     0.45785   0.80242   0.60009   0.00000  Uiso   1.00
O828   O     0.04134   0.80307   0.39988   0.00000  Uiso   1.00
O829   O     0.19725   0.95826   0.60011   0.00000  Uiso   1.00
O830   O     0.46964   0.75000   0.66317   0.00000  Uiso   1.00
O831   O     0.19728   0.54178   0.39989   0.00000  Uiso   1.00
O832   O     0.04215   0.69758   0.60009   0.00000  Uiso   1.00
O833   O     0.45866   0.69693   0.39988   0.00000  Uiso   1.00
O834   O     0.30275   0.54174   0.60011   0.00000  Uiso   1.00
O835   O     0.30272   0.95822   0.39989   0.00000  Uiso   1.00
O836   O     0.25000   0.53036   0.33683   0.00000  Uiso   1.00
Zn837  Zn    0.20660   0.50000   0.21760   0.00000  Uiso   1.00
Zn838  Zn    0.04340   0.75000   0.28240   0.00000  Uiso   1.00
Zn839  Zn    0.25000   0.95660   0.71760   0.00000  Uiso   1.00
Zn840  Zn    0.25000   0.54340   0.28240   0.00000  Uiso   1.00
Zn841  Zn    0.04340   0.75000   0.71760   0.00000  Uiso   1.00
Zn842  Zn    0.45660   0.75000   0.28240   0.00000  Uiso   1.00
Zn843  Zn    0.25000   0.54340   0.71760   0.00000  Uiso   1.00
Zn844  Zn    0.25000   0.95660   0.28240   0.00000  Uiso   1.00
Zn845  Zn    0.29340   0.50000   0.78240   0.00000  Uiso   1.00
Zn846  Zn    0.00000   0.70660   0.21760   0.00000  Uiso   1.00
Zn847  Zn    0.00000   0.79340   0.78240   0.00000  Uiso   1.00
Zn848  Zn    0.29340   0.50000   0.21760   0.00000  Uiso   1.00
Zn849  Zn    0.20660   0.50000   0.78240   0.00000  Uiso   1.00
Zn850  Zn    0.00000   0.79340   0.21760   0.00000  Uiso   1.00
Zn851  Zn    0.00000   0.70660   0.78240   0.00000  Uiso   1.00
Zn852  Zn    0.45660   0.75000   0.71760   0.00000  Uiso   1.00
C853   C     0.72760   0.52511   0.04165   0.00000  Uiso   1.00
C854   C     0.52218   0.77529   0.45833   0.00000  Uiso   1.00
C855   C     0.84804   0.90196   0.75000   0.00000  Uiso   1.00
C856   C     0.90187   0.65187   0.25000   0.00000  Uiso   1.00
C857   C     0.59804   0.84804   0.75000   0.00000  Uiso   1.00
C858   C     0.84813   0.90187   0.25000   0.00000  Uiso   1.00
C859   C     0.65196   0.59804   0.75000   0.00000  Uiso   1.00
C860   C     0.59813   0.65187   0.75000   0.00000  Uiso   1.00
C861   C     0.90196   0.84804   0.25000   0.00000  Uiso   1.00
C862   C     0.65187   0.90187   0.75000   0.00000  Uiso   1.00
C863   C     0.84804   0.59804   0.25000   0.00000  Uiso   1.00
C864   C     0.90187   0.84813   0.75000   0.00000  Uiso   1.00
C865   C     0.72489   0.97761   0.54166   0.00000  Uiso   1.00
C866   C     0.59804   0.65196   0.25000   0.00000  Uiso   1.00
C867   C     0.84813   0.59813   0.75000   0.00000  Uiso   1.00
C868   C     0.65196   0.90196   0.25000   0.00000  Uiso   1.00
C869   C     0.75000   0.50000   0.10243   0.00000  Uiso   1.00
C870   C     0.75000   0.50000   0.89756   0.00000  Uiso   1.00
C871   C     0.50000   0.75000   0.10243   0.00000  Uiso   1.00
C872   C     0.50000   0.75000   0.89756   0.00000  Uiso   1.00
C873   C     0.50000   0.75000   0.60242   0.00000  Uiso   1.00
C874   C     0.50000   0.75000   0.39756   0.00000  Uiso   1.00
C875   C     0.75000   0.50000   0.60243   0.00000  Uiso   1.00
C876   C     0.72491   0.52242   0.45835   0.00000  Uiso   1.00
C877   C     0.75000   0.50000   0.39757   0.00000  Uiso   1.00
C878   C     0.52261   0.72508   0.54164   0.00000  Uiso   1.00
C879   C     0.97782   0.72470   0.45833   0.00000  Uiso   1.00
C880   C     0.77511   0.52239   0.54166   0.00000  Uiso   1.00
C881   C     0.77509   0.97758   0.45835   0.00000  Uiso   1.00
C882   C     0.72858   0.52587   0.08194   0.00000  Uiso   1.00
C883   C     0.77142   0.52587   0.91806   0.00000  Uiso   1.00
C884   C     0.97414   0.72857   0.08194   0.00000  Uiso   1.00
C885   C     0.77239   0.52511   0.95834   0.00000  Uiso   1.00
C886   C     0.97412   0.77140   0.91806   0.00000  Uiso   1.00
C887   C     0.77142   0.97413   0.08194   0.00000  Uiso   1.00
C888   C     0.72858   0.97413   0.91806   0.00000  Uiso   1.00
C889   C     0.52586   0.77143   0.08194   0.00000  Uiso   1.00
C890   C     0.52589   0.72860   0.91805   0.00000  Uiso   1.00
C891   C     0.97837   0.77569   0.58193   0.00000  Uiso   1.00
C892   C     0.52121   0.77604   0.41804   0.00000  Uiso   1.00
C893   C     0.72413   0.97858   0.58194   0.00000  Uiso   1.00
C894   C     0.72415   0.52144   0.41806   0.00000  Uiso   1.00
C895   C     0.52163   0.72430   0.58193   0.00000  Uiso   1.00
C896   C     0.97491   0.72759   0.04165   0.00000  Uiso   1.00
C897   C     0.97879   0.72396   0.41804   0.00000  Uiso   1.00
C898   C     0.77587   0.52142   0.58194   0.00000  Uiso   1.00
C899   C     0.77585   0.97856   0.41806   0.00000  Uiso   1.00
C900   C     0.75000   0.50000   0.02127   0.00000  Uiso   1.00
C901   C     0.75000   0.50000   0.97872   0.00000  Uiso   1.00
C902   C     0.50001   0.75000   0.02127   0.00000  Uiso   1.00
C903   C     0.50001   0.75001   0.97872   0.00000  Uiso   1.00
C904   C     0.50000   0.75000   0.52126   0.00000  Uiso   1.00
C905   C     0.50000   0.75000   0.47871   0.00000  Uiso   1.00
C906   C     0.75000   0.50000   0.52127   0.00000  Uiso   1.00
C907   C     0.97488   0.77238   0.95834   0.00000  Uiso   1.00
C908   C     0.75000   0.50000   0.47873   0.00000  Uiso   1.00
C909   C     0.75000   0.50000   0.35517   0.00000  Uiso   1.00
C910   C     0.75000   0.50000   0.64483   0.00000  Uiso   1.00
C911   C     0.50000   0.75000   0.35517   0.00000  Uiso   1.00
C912   C     0.50000   0.75000   0.64483   0.00000  Uiso   1.00
C913   C     0.50000   0.75000   0.85517   0.00000  Uiso   1.00
C914   C     0.50000   0.75000   0.14483   0.00000  Uiso   1.00
C915   C     0.75000   0.50000   0.85517   0.00000  Uiso   1.00
C916   C     0.75000   0.50000   0.14483   0.00000  Uiso   1.00
C917   C     0.67996   0.57004   0.25000   0.00000  Uiso   1.00
C918   C     0.77240   0.97489   0.04165   0.00000  Uiso   1.00
C919   C     0.82001   0.92999   0.75000   0.00000  Uiso   1.00
C920   C     0.92996   0.67996   0.25000   0.00000  Uiso   1.00
C921   C     0.57001   0.82001   0.75000   0.00000  Uiso   1.00
C922   C     0.82004   0.92996   0.25000   0.00000  Uiso   1.00
C923   C     0.67999   0.57001   0.75000   0.00000  Uiso   1.00
C924   C     0.57004   0.82004   0.25000   0.00000  Uiso   1.00
C925   C     0.92999   0.67999   0.75000   0.00000  Uiso   1.00
C926   C     0.67996   0.92996   0.75000   0.00000  Uiso   1.00
C927   C     0.82001   0.57001   0.25000   0.00000  Uiso   1.00
C928   C     0.92996   0.82004   0.75000   0.00000  Uiso   1.00
C929   C     0.72761   0.97489   0.95834   0.00000  Uiso   1.00
C930   C     0.57001   0.67999   0.25000   0.00000  Uiso   1.00
C931   C     0.82004   0.57004   0.75000   0.00000  Uiso   1.00
C932   C     0.67999   0.92999   0.25000   0.00000  Uiso   1.00
C933   C     0.57004   0.67996   0.75000   0.00000  Uiso   1.00
C934   C     0.92999   0.82001   0.25000   0.00000  Uiso   1.00
C935   C     0.65102   0.87624   0.21981   0.00000  Uiso   1.00
C936   C     0.84885   0.62416   0.77993   0.00000  Uiso   1.00
C937   C     0.62375   0.65101   0.21980   0.00000  Uiso   1.00
C938   C     0.87585   0.84886   0.77994   0.00000  Uiso   1.00
C939   C     0.84898   0.62376   0.21981   0.00000  Uiso   1.00
C940   C     0.52510   0.77241   0.04166   0.00000  Uiso   1.00
C941   C     0.65115   0.87584   0.77993   0.00000  Uiso   1.00
C942   C     0.87626   0.84899   0.21980   0.00000  Uiso   1.00
C943   C     0.62415   0.65114   0.77994   0.00000  Uiso   1.00
C944   C     0.65100   0.62374   0.78020   0.00000  Uiso   1.00
C945   C     0.84886   0.87585   0.22006   0.00000  Uiso   1.00
C946   C     0.62376   0.84898   0.78019   0.00000  Uiso   1.00
C947   C     0.87583   0.65115   0.22007   0.00000  Uiso   1.00
C948   C     0.84900   0.87626   0.78020   0.00000  Uiso   1.00
C949   C     0.65114   0.62416   0.22006   0.00000  Uiso   1.00
C950   C     0.87624   0.65102   0.78019   0.00000  Uiso   1.00
C951   C     0.52513   0.72763   0.95834   0.00000  Uiso   1.00
C952   C     0.62417   0.84884   0.22007   0.00000  Uiso   1.00
C953   C     0.90102   0.62624   0.71981   0.00000  Uiso   1.00
C954   C     0.59884   0.87417   0.27992   0.00000  Uiso   1.00
C955   C     0.87374   0.90100   0.71979   0.00000  Uiso   1.00
C956   C     0.62585   0.59886   0.27994   0.00000  Uiso   1.00
C957   C     0.59898   0.87376   0.71981   0.00000  Uiso   1.00
C958   C     0.90116   0.62583   0.27993   0.00000  Uiso   1.00
C959   C     0.62626   0.59900   0.71979   0.00000  Uiso   1.00
C960   C     0.87415   0.90114   0.27994   0.00000  Uiso   1.00
C961   C     0.90101   0.87374   0.28020   0.00000  Uiso   1.00
C962   C     0.97739   0.77491   0.54164   0.00000  Uiso   1.00
C963   C     0.59886   0.62585   0.72005   0.00000  Uiso   1.00
C964   C     0.87376   0.59898   0.28019   0.00000  Uiso   1.00
C965   C     0.62584   0.90115   0.72007   0.00000  Uiso   1.00
C966   C     0.59899   0.62625   0.28020   0.00000  Uiso   1.00
C967   C     0.90114   0.87415   0.72005   0.00000  Uiso   1.00
C968   C     0.62624   0.90102   0.28019   0.00000  Uiso   1.00
C969   C     0.87416   0.59885   0.72007   0.00000  Uiso   1.00
C970   C     0.59813   0.84813   0.25000   0.00000  Uiso   1.00
C971   C     0.90196   0.65196   0.75000   0.00000  Uiso   1.00
C972   C     0.65187   0.59813   0.25000   0.00000  Uiso   1.00
H973   H     0.70440   0.54597   0.99537   0.00000  Uiso   1.00
H974   H     0.54519   0.79637   0.50462   0.00000  Uiso   1.00
H975   H     0.70401   0.95443   0.49537   0.00000  Uiso   1.00
H976   H     0.70405   0.54562   0.50463   0.00000  Uiso   1.00
H977   H     0.54600   0.70443   0.49536   0.00000  Uiso   1.00
H978   H     0.95481   0.70362   0.50462   0.00000  Uiso   1.00
H979   H     0.79599   0.54557   0.49537   0.00000  Uiso   1.00
H980   H     0.79595   0.95439   0.50463   0.00000  Uiso   1.00
H981   H     0.71891   0.55786   0.12579   0.00000  Uiso   1.00
H982   H     0.78108   0.55786   0.87421   0.00000  Uiso   1.00
H983   H     0.94215   0.71889   0.12578   0.00000  Uiso   1.00
H984   H     0.79560   0.54597   0.00463   0.00000  Uiso   1.00
H985   H     0.94213   0.78105   0.87421   0.00000  Uiso   1.00
H986   H     0.78109   0.94214   0.12579   0.00000  Uiso   1.00
H987   H     0.71892   0.94214   0.87421   0.00000  Uiso   1.00
H988   H     0.55785   0.78111   0.12579   0.00000  Uiso   1.00
H989   H     0.55788   0.71895   0.87420   0.00000  Uiso   1.00
H990   H     0.96856   0.80771   0.62571   0.00000  Uiso   1.00
H991   H     0.53075   0.80800   0.37413   0.00000  Uiso   1.00
H992   H     0.69214   0.96892   0.62579   0.00000  Uiso   1.00
H993   H     0.69216   0.53112   0.37422   0.00000  Uiso   1.00
H994   H     0.53144   0.69229   0.62571   0.00000  Uiso   1.00
H995   H     0.95407   0.70438   0.99537   0.00000  Uiso   1.00
H996   H     0.96925   0.69200   0.37413   0.00000  Uiso   1.00
H997   H     0.80786   0.53108   0.62579   0.00000  Uiso   1.00
H998   H     0.80784   0.96888   0.37422   0.00000  Uiso   1.00
H999   H     0.95403   0.79559   0.00463   0.00000  Uiso   1.00
H1000  H     0.79560   0.95403   0.99537   0.00000  Uiso   1.00
H1001  H     0.70441   0.95403   0.00463   0.00000  Uiso   1.00
H1002  H     0.54595   0.79563   0.99537   0.00000  Uiso   1.00
H1003  H     0.54602   0.70445   0.00463   0.00000  Uiso   1.00
H1004  H     0.95399   0.79555   0.49536   0.00000  Uiso   1.00
I1005  I     0.69096   0.87887   0.17454   0.00000  Uiso   1.00
I1006  I     0.80756   0.87670   0.17628   0.00000  Uiso   1.00
I1007  I     0.62112   0.80905   0.82546   0.00000  Uiso   1.00
I1008  I     0.87668   0.69247   0.17630   0.00000  Uiso   1.00
I1009  I     0.80908   0.87891   0.82549   0.00000  Uiso   1.00
I1010  I     0.69245   0.62330   0.17629   0.00000  Uiso   1.00
I1011  I     0.87888   0.69095   0.82546   0.00000  Uiso   1.00
I1012  I     0.62332   0.80753   0.17631   0.00000  Uiso   1.00
I1013  I     0.94095   0.62888   0.67454   0.00000  Uiso   1.00
I1014  I     0.55752   0.87334   0.32368   0.00000  Uiso   1.00
I1015  I     0.87109   0.94092   0.67450   0.00000  Uiso   1.00
I1016  I     0.80754   0.62332   0.82370   0.00000  Uiso   1.00
I1017  I     0.62670   0.55756   0.32372   0.00000  Uiso   1.00
I1018  I     0.55905   0.87112   0.67454   0.00000  Uiso   1.00
I1019  I     0.94248   0.62666   0.32368   0.00000  Uiso   1.00
I1020  I     0.62891   0.55908   0.67451   0.00000  Uiso   1.00
I1021  I     0.87330   0.94244   0.32372   0.00000  Uiso   1.00
I1022  I     0.94092   0.87110   0.32549   0.00000  Uiso   1.00
I1023  I     0.55757   0.62672   0.67627   0.00000  Uiso   1.00
I1024  I     0.87113   0.55904   0.32545   0.00000  Uiso   1.00
I1025  I     0.62668   0.94247   0.67630   0.00000  Uiso   1.00
I1026  I     0.55907   0.62890   0.32548   0.00000  Uiso   1.00
I1027  I     0.62110   0.69093   0.17452   0.00000  Uiso   1.00
I1028  I     0.94243   0.87328   0.67626   0.00000  Uiso   1.00
I1029  I     0.62887   0.94096   0.32545   0.00000  Uiso   1.00
I1030  I     0.87332   0.55753   0.67630   0.00000  Uiso   1.00
I1031  I     0.87671   0.80756   0.82372   0.00000  Uiso   1.00
I1032  I     0.80905   0.62113   0.17454   0.00000  Uiso   1.00
I1033  I     0.69247   0.87668   0.82370   0.00000  Uiso   1.00
I1034  I     0.87890   0.80907   0.17451   0.00000  Uiso   1.00
I1035  I     0.62330   0.69244   0.82372   0.00000  Uiso   1.00
I1036  I     0.69092   0.62109   0.82549   0.00000  Uiso   1.00
O1037  O     0.75000   0.50000   0.25000   0.00000  Uiso   1.00
O1038  O     0.75000   0.96964   0.66317   0.00000  Uiso   1.00
O1039  O     0.96964   0.75000   0.33683   0.00000  Uiso   1.00
O1040  O     0.53036   0.75000   0.66317   0.00000  Uiso   1.00
O1041  O     0.50000   0.71964   0.83683   0.00000  Uiso   1.00
O1042  O     0.50000   0.78036   0.16317   0.00000  Uiso   1.00
O1043  O     0.78036   0.50000   0.83683   0.00000  Uiso   1.00
O1044  O     0.71964   0.50000   0.16317   0.00000  Uiso   1.00
O1045  O     0.50000   0.78036   0.83683   0.00000  Uiso   1.00
O1046  O     0.50000   0.71964   0.16317   0.00000  Uiso   1.00
O1047  O     0.71964   0.50000   0.83683   0.00000  Uiso   1.00
O1048  O     0.75000   0.50000   0.75000   0.00000  Uiso   1.00
O1049  O     0.78036   0.50000   0.16317   0.00000  Uiso   1.00
O1050  O     0.70726   0.57307   0.27282   0.00000  Uiso   1.00
O1051  O     0.79275   0.92693   0.72718   0.00000  Uiso   1.00
O1052  O     0.92693   0.70725   0.27282   0.00000  Uiso   1.00
O1053  O     0.57307   0.79275   0.72718   0.00000  Uiso   1.00
O1054  O     0.79275   0.92693   0.27282   0.00000  Uiso   1.00
O1055  O     0.70726   0.57307   0.72718   0.00000  Uiso   1.00
O1056  O     0.57307   0.79275   0.27282   0.00000  Uiso   1.00
O1057  O     0.92693   0.70725   0.72718   0.00000  Uiso   1.00
O1058  O     0.70726   0.92693   0.72718   0.00000  Uiso   1.00
O1059  O     0.50000   0.75000   0.25000   0.00000  Uiso   1.00
O1060  O     0.79275   0.57307   0.27282   0.00000  Uiso   1.00
O1061  O     0.92693   0.79275   0.72718   0.00000  Uiso   1.00
O1062  O     0.57307   0.70726   0.27282   0.00000  Uiso   1.00
O1063  O     0.79275   0.57307   0.72718   0.00000  Uiso   1.00
O1064  O     0.70726   0.92693   0.27282   0.00000  Uiso   1.00
O1065  O     0.57307   0.70726   0.72718   0.00000  Uiso   1.00
O1066  O     0.92693   0.79275   0.27282   0.00000  Uiso   1.00
O1067  O     0.95726   0.82307   0.77282   0.00000  Uiso   1.00
O1068  O     0.54275   0.67693   0.22718   0.00000  Uiso   1.00
O1069  O     0.67693   0.95726   0.77282   0.00000  Uiso   1.00
O1070  O     0.50000   0.75000   0.75000   0.00000  Uiso   1.00
O1071  O     0.82307   0.54274   0.22718   0.00000  Uiso   1.00
O1072  O     0.54275   0.67693   0.77282   0.00000  Uiso   1.00
O1073  O     0.95726   0.82307   0.22718   0.00000  Uiso   1.00
O1074  O     0.82307   0.54274   0.77282   0.00000  Uiso   1.00
O1075  O     0.67693   0.95726   0.22718   0.00000  Uiso   1.00
O1076  O     0.95726   0.67693   0.22718   0.00000  Uiso   1.00
O1077  O     0.54275   0.82307   0.77282   0.00000  Uiso   1.00
O1078  O     0.67693   0.54274   0.22718   0.00000  Uiso   1.00
O1079  O     0.82307   0.95726   0.77282   0.00000  Uiso   1.00
O1080  O     0.54275   0.82307   0.22718   0.00000  Uiso   1.00
O1081  O     0.75000   0.96964   0.33683   0.00000  Uiso   1.00
O1082  O     0.95726   0.67693   0.77282   0.00000  Uiso   1.00
O1083  O     0.82307   0.95726   0.22718   0.00000  Uiso   1.00
O1084  O     0.67693   0.54274   0.77282   0.00000  Uiso   1.00
O1085  O     0.70501   0.55026   0.02354   0.00000  Uiso   1.00
O1086  O     0.79499   0.55026   0.97646   0.00000  Uiso   1.00
O1087  O     0.94977   0.70498   0.02354   0.00000  Uiso   1.00
O1088  O     0.94972   0.79496   0.97646   0.00000  Uiso   1.00
O1089  O     0.79500   0.94974   0.02354   0.00000  Uiso   1.00
O1090  O     0.70501   0.94974   0.97646   0.00000  Uiso   1.00
O1091  O     0.55024   0.79502   0.02355   0.00000  Uiso   1.00
O1092  O     0.75000   0.53036   0.66317   0.00000  Uiso   1.00
O1093  O     0.55030   0.70505   0.97645   0.00000  Uiso   1.00
O1094  O     0.95457   0.79987   0.52353   0.00000  Uiso   1.00
O1095  O     0.54457   0.80063   0.47645   0.00000  Uiso   1.00
O1096  O     0.69973   0.95501   0.52354   0.00000  Uiso   1.00
O1097  O     0.69978   0.54503   0.47646   0.00000  Uiso   1.00
O1098  O     0.54542   0.70013   0.52353   0.00000  Uiso   1.00
O1099  O     0.95543   0.69936   0.47644   0.00000  Uiso   1.00
O1100  O     0.80026   0.54499   0.52354   0.00000  Uiso   1.00
O1101  O     0.80022   0.95497   0.47646   0.00000  Uiso   1.00
O1102  O     0.70826   0.55275   0.10011   0.00000  Uiso   1.00
O1103  O     0.53036   0.75000   0.33683   0.00000  Uiso   1.00
O1104  O     0.79173   0.55275   0.89989   0.00000  Uiso   1.00
O1105  O     0.94727   0.70824   0.10010   0.00000  Uiso   1.00
O1106  O     0.94722   0.79170   0.89989   0.00000  Uiso   1.00
O1107  O     0.79174   0.94725   0.10011   0.00000  Uiso   1.00
O1108  O     0.70827   0.94725   0.89989   0.00000  Uiso   1.00
O1109  O     0.55273   0.79176   0.10011   0.00000  Uiso   1.00
O1110  O     0.55279   0.70830   0.89989   0.00000  Uiso   1.00
O1111  O     0.95785   0.80242   0.60009   0.00000  Uiso   1.00
O1112  O     0.54134   0.80307   0.39988   0.00000  Uiso   1.00
O1113  O     0.69725   0.95826   0.60011   0.00000  Uiso   1.00
O1114  O     0.96964   0.75000   0.66317   0.00000  Uiso   1.00
O1115  O     0.69728   0.54178   0.39989   0.00000  Uiso   1.00
O1116  O     0.54215   0.69758   0.60009   0.00000  Uiso   1.00
O1117  O     0.95866   0.69693   0.39988   0.00000  Uiso   1.00
O1118  O     0.80275   0.54174   0.60011   0.00000  Uiso   1.00
O1119  O     0.80272   0.95822   0.39989   0.00000  Uiso   1.00
O1120  O     0.75000   0.53036   0.33683   0.00000  Uiso   1.00
Zn1121 Zn    0.70660   0.50000   0.21760   0.00000  Uiso   1.00
Zn1122 Zn    0.54340   0.75000   0.28240   0.00000  Uiso   1.00
Zn1123 Zn    0.75000   0.95660   0.71760   0.00000  Uiso   1.00
Zn1124 Zn    0.75000   0.54340   0.28240   0.00000  Uiso   1.00
Zn1125 Zn    0.54340   0.75000   0.71760   0.00000  Uiso   1.00
Zn1126 Zn    0.95660   0.75000   0.28240   0.00000  Uiso   1.00
Zn1127 Zn    0.75000   0.54340   0.71760   0.00000  Uiso   1.00
Zn1128 Zn    0.75000   0.95660   0.28240   0.00000  Uiso   1.00
Zn1129 Zn    0.79340   0.50000   0.78240   0.00000  Uiso   1.00
Zn1130 Zn    0.50000   0.70660   0.21760   0.00000  Uiso   1.00
Zn1131 Zn    0.50000   0.79340   0.78240   0.00000  Uiso   1.00
Zn1132 Zn    0.79340   0.50000   0.21760   0.00000  Uiso   1.00
Zn1133 Zn    0.70660   0.50000   0.78240   0.00000  Uiso   1.00
Zn1134 Zn    0.50000   0.79340   0.21760   0.00000  Uiso   1.00
Zn1135 Zn    0.50000   0.70660   0.78240   0.00000  Uiso   1.00
Zn1136 Zn    0.95660   0.75000   0.71760   0.00000  Uiso   1.00
loop_
_geom_bond_atom_site_label_1
_geom_bond_atom_site_label_2
_geom_bond_distance
_geom_bond_site_symmetry_2
_ccdc_geom_bond_type
C1     O233    1.385   .     S
C1     C30     1.395   .     A
C1     C48     1.417   .     S
C2     O243    1.385   .     S
C2     C40     1.395   .     A
C2     C53     1.417   .     S
C3     C96     1.406   .     A
C3     C103    1.406   .     A
C3     C67     1.448   .     S
C4     C68     1.451   .     S
C4     C106    1.407   .     A
C4     C95     1.407   .     A
C5     C94     1.406   .     A
C5     C69     1.448   .     S
C5     C105    1.406   .     A
C6     C93     1.407   .     A
C6     C70     1.451   .     S
C6     C108    1.407   .     A
C7     C71     1.448   .     S
C7     C107    1.406   .     A
C7     C92     1.406   .     A
C8     C111    1.407   .     A
C8     C81     1.451   .     S
C8     C91     1.407   .     A
C9     C109    1.406   .     A
C9     C90     1.406   .     A
C9     C82     1.448   .     S
C10    C89     1.407   .     A
C10    C74     1.451   .     S
C10    C113    1.407   .     A
C11    C112    1.406   .     A
C11    C87     1.406   .     A
C11    C75     1.448   .     S
C12    C115    1.407   .     A
C12    C76     1.451   .     S
C12    C86     1.407   .     A
C13    C41     1.395   .     A
C13    O244    1.385   .     S
C13    C622    1.417   .     S
C14    C114    1.406   .     A
C14    C85     1.406   .     A
C14    C78     1.448   .     S
C15    C79     1.451   .     S
C15    C117    1.407   .     A
C15    C84     1.407   .     A
C16    C116    1.406   .     A
C16    C83     1.406   .     A
C16    C80     1.448   .     S
C17    C603    1.417   1_545 A
C17    C30     1.417   .     S
C17    C64     1.467   .     S
C18    C604    1.417   1_545 A
C18    C31     1.417   .     S
C18    C63     1.467   .     S
C19    C37     1.417   .     A
C19    C316    1.417   1_455 S
C19    C62     1.467   .     S
C20    C61     1.467   .     S
C20    C38     1.417   .     A
C20    C318    1.417   1_455 S
C21    C60     1.468   .     S
C21    C323    1.417   1_455 A
C21    C43     1.417   .     S
C22    C329    1.417   1_455 A
C22    C59     1.467   .     S
C22    C40     1.417   .     S
C23    C58     1.467   .     S
C23    C609    1.417   1_545 A
C23    C46     1.417   .     S
C24    C42     1.395   .     A
C24    O245    1.385   .     S
C24    C56     1.417   .     A
C25    C57     1.467   .     S
C25    C42     1.417   .     A
C25    C615    1.417   1_545 S
C26    C43     1.395   .     A
C26    O246    1.385   .     S
C26    C52     1.417   .     S
C27    C45     1.395   .     A
C27    O247    1.385   .     S
C27    C337    1.417   .     A
C28    C46     1.395   .     A
C28    O248    1.385   .     S
C28    C54     1.417   .     A
C29    C47     1.395   .     A
C29    O249    1.385   .     S
C29    C624    1.417   .     S
C30    O250    1.382   .     S
C31    O252    1.382   .     S
C31    C33     1.395   .     A
C32    O253    1.382   .     S
C32    C44     1.395   .     A
C32    C303    1.417   .     S
C33    O234    1.385   .     S
C33    C49     1.417   .     S
C34    C55     1.395   .     A
C34    O254    1.382   .     S
C34    C304    1.417   .     S
C35    C66     1.395   .     A
C35    O255    1.382   .     S
C35    C585    1.417   .     A
C36    O256    1.382   .     S
C36    C77     1.395   .     A
C36    C586    1.417   .     A
C37    C88     1.395   .     A
C37    O257    1.382   .     S
C38    O258    1.382   .     S
C38    C99     1.395   .     A
C39    C110    1.395   .     A
C39    C305    1.417   .     A
C39    O259    1.382   .     S
C40    O260    1.382   .     S
C41    C591    1.417   .     A
C41    O261    1.382   .     S
C42    O263    1.382   .     S
C43    O264    1.382   .     S
C44    O235    1.385   .     S
C44    C334    1.417   .     S
C45    O265    1.382   .     S
C45    C306    1.417   .     A
C46    O266    1.382   .     S
C47    O267    1.382   .     S
C47    C593    1.417   .     S
C48    C634    1.417   1_545 A
C48    C49     1.473   1_554 S
C49    C645    1.417   1_545 A
C49    C48     1.473   1_556 S
C50    C88     1.417   .     A
C50    C328    1.417   1_455 S
C50    C51     1.473   1_554 S
C51    C99     1.417   .     A
C51    C50     1.473   1_556 S
C51    C339    1.417   1_455 S
C52    C394    1.417   1_455 A
C52    C53     1.473   .     S
C53    C311    1.417   1_455 A
C54    C56     1.473   .     S
C54    C581    1.417   1_545 S
C55    O236    1.385   .     S
C55    C335    1.417   .     S
C56    C597    1.417   1_545 S
C57    O268    1.278   .     A
C57    O797    1.278   1_545 S
C58    O754    1.278   1_545 A
C58    O240    1.278   .     S
C59    O471    1.278   1_455 A
C59    O251    1.278   .     S
C60    O546    1.278   1_455 A
C60    O188    1.278   .     S
C61    O189    1.278   .     S
C61    O193    1.278   .     S
C62    O190    1.278   .     S
C62    O194    1.278   .     S
C63    O195    1.278   .     A
C63    O191    1.278   .     A
C64    O197    1.278   .     A
C64    O192    1.278   .     A
C65    C120    1.451   .     S
C65    O226    1.277   .     A
C65    O198    1.277   .     A
C66    O237    1.385   .     S
C66    C616    1.417   .     A
C67    O199    1.276   .     A
C67    O227    1.276   .     A
C68    O200    1.277   .     A
C68    O224    1.277   .     A
C69    O201    1.276   .     A
C69    O225    1.276   .     A
C70    O231    1.277   .     A
C70    O202    1.277   .     A
C71    O232    1.276   .     A
C71    O203    1.276   .     A
C72    O204    1.277   .     A
C72    O228    1.277   .     A
C72    C118    1.451   .     S
C73    C119    1.448   .     S
C73    O230    1.276   .     A
C73    O205    1.276   .     A
C74    O206    1.277   .     A
C74    O217    1.277   .     A
C75    O208    1.276   .     A
C75    O219    1.276   .     A
C76    O209    1.277   .     A
C76    O215    1.277   .     A
C77    O238    1.385   .     S
C77    C617    1.417   .     A
C78    O210    1.276   .     A
C78    O216    1.276   .     A
C79    O211    1.277   .     A
C79    O222    1.277   .     A
C80    O212    1.276   .     A
C80    O223    1.276   .     A
C81    O213    1.277   .     A
C81    O220    1.277   .     A
C82    O221    1.276   .     A
C82    O214    1.276   .     A
C83    I153    2.143   .     S
C83    C100    1.401   .     A
C84    C98     1.401   .     A
C84    I164    2.139   .     S
C85    C97     1.401   .     A
C85    I175    2.143   .     S
C86    C96     1.401   .     A
C86    I179    2.139   .     S
C87    I180    2.143   .     S
C87    C95     1.401   .     A
C88    O239    1.385   .     S
C89    C94     1.401   .     A
C89    I181    2.139   .     S
C90    I182    2.143   .     S
C90    C93     1.401   .     A
C91    I183    2.138   .     S
C91    C92     1.401   .     A
C92    I184    2.143   .     S
C93    I154    2.139   .     S
C94    I155    2.143   .     S
C95    I156    2.139   .     S
C96    I157    2.143   .     S
C97    C120    1.407   .     A
C97    I158    2.139   .     S
C98    C119    1.406   .     A
C98    I159    2.143   .     S
C99    O241    1.385   .     S
C100   I160    2.139   .     S
C100   C118    1.407   .     A
C101   C119    1.406   .     A
C101   I161    2.143   .     S
C101   C117    1.401   .     A
C102   C118    1.407   .     A
C102   I162    2.138   .     S
C102   C116    1.401   .     A
C103   C115    1.401   .     A
C103   I163    2.143   .     S
C104   C120    1.407   .     A
C104   I165    2.139   .     S
C104   C114    1.401   .     A
C105   C113    1.401   .     A
C105   I166    2.143   .     S
C106   C112    1.401   .     A
C106   I167    2.138   .     S
C107   C111    1.401   .     A
C107   I168    2.143   .     S
C108   C109    1.401   .     A
C108   I169    2.139   .     S
C109   I170    2.143   .     S
C110   C336    1.417   .     A
C110   O242    1.385   .     S
C111   I171    2.139   .     S
C112   I172    2.143   .     S
C113   I173    2.139   .     S
C114   I174    2.143   .     S
C115   I176    2.139   .     S
C116   I177    2.143   .     S
C117   I178    2.139   .     S
H121   O233    0.988   1_556 S
H122   O243    0.988   .     S
H123   O244    0.988   .     S
H124   O245    0.988   .     S
H125   O246    0.988   .     S
H126   O247    0.988   .     S
H127   O248    0.988   .     S
H128   O249    0.988   .     S
H129   O250    0.988   .     S
H130   O252    0.988   .     S
H131   O253    0.988   .     S
H132   O234    0.988   1_554 S
H133   O254    0.988   .     S
H134   O255    0.988   .     S
H135   O256    0.988   .     S
H136   O257    0.988   .     S
H137   O258    0.988   .     S
H138   O259    0.988   .     S
H139   O260    0.988   .     S
H140   O261    0.988   .     S
H141   O263    0.988   .     S
H142   O264    0.988   .     S
H143   O235    0.988   1_556 S
H144   O265    0.988   .     S
H145   O266    0.988   .     S
H146   O267    0.988   .     S
H147   O236    0.988   1_554 S
H148   O237    0.988   1_556 S
H149   O238    0.988   1_554 S
H150   O239    0.988   1_556 S
H151   O241    0.988   1_554 S
H152   O242    0.988   .     S
O185   Zn272   1.942   .     S
O185   Zn280   1.942   .     S
O185   Zn269   1.942   .     S
O185   Zn844   1.942   1_545 S
O186   C626    1.278   .     A
O186   Zn271   1.943   .     S
O187   C343    1.278   .     A
O187   Zn274   1.943   .     S
O188   Zn273   1.943   .     S
O189   Zn283   1.943   .     S
O190   Zn282   1.943   .     S
O191   Zn277   1.943   .     S
O192   Zn269   1.943   .     S
O193   Zn279   1.943   .     S
O194   Zn278   1.943   .     S
O195   Zn281   1.943   .     S
O196   Zn277   1.942   .     S
O196   Zn281   1.942   .     S
O196   Zn275   1.942   .     S
O196   Zn839   1.942   1_545 S
O197   Zn280   1.943   .     S
O198   Zn272   1.929   .     S
O199   Zn271   1.929   .     S
O200   Zn274   1.929   .     S
O201   Zn273   1.929   .     S
O202   Zn276   1.929   .     S
O203   Zn275   1.929   .     S
O204   Zn270   1.929   .     S
O205   Zn284   1.929   .     S
O206   Zn271   1.929   .     S
O207   Zn270   1.942   .     S
O207   Zn278   1.942   .     S
O207   Zn558   1.942   1_455 S
O207   Zn282   1.942   .     S
O208   Zn272   1.929   .     S
O209   Zn284   1.929   .     S
O210   Zn270   1.929   .     S
O211   Zn275   1.929   .     S
O212   Zn276   1.929   .     S
O213   Zn273   1.929   .     S
O214   Zn274   1.929   .     S
O215   Zn563   1.929   .     S
O216   Zn278   1.929   .     S
O217   Zn849   1.929   .     S
O218   Zn283   1.942   .     S
O218   Zn273   1.942   .     S
O218   Zn279   1.942   .     S
O218   Zn568   1.942   1_455 S
O219   Zn280   1.929   .     S
O220   Zn283   1.929   .     S
O221   Zn566   1.929   .     S
O222   Zn277   1.929   .     S
O223   Zn837   1.929   .     S
O224   Zn562   1.929   .     S
O225   Zn279   1.929   .     S
O226   Zn269   1.929   .     S
O227   Zn845   1.929   .     S
O228   Zn282   1.929   .     S
O229   Zn276   1.943   .     S
O229   C625    1.278   .     S
O230   Zn567   1.929   .     S
O231   Zn848   1.929   .     S
O232   Zn281   1.929   .     S
O233   H121    0.988   1_554 S
O234   H132    0.988   1_556 S
O235   H143    0.988   1_554 S
O236   H147    0.988   1_556 S
O237   H148    0.988   1_554 S
O238   H149    0.988   1_556 S
O239   H150    0.988   1_554 S
O240   Zn275   1.943   .     S
O241   H151    0.988   1_556 S
O251   Zn270   1.943   .     S
O262   Zn284   1.943   .     S
O262   C344    1.278   .     A
O268   Zn272   1.943   .     S
Zn269  O791    1.929   1_545 S
Zn271  O764    1.942   .     S
Zn274  O491    1.942   .     S
Zn276  O753    1.942   .     S
Zn277  O795    1.929   1_545 S
Zn278  O508    1.929   1_455 S
Zn279  O499    1.929   1_455 S
Zn280  O799    1.929   1_545 S
Zn281  O785    1.929   1_545 S
Zn282  O505    1.929   1_455 S
Zn283  O514    1.929   1_455 S
Zn284  O502    1.942   .     S
C285   O517    1.385   .     S
C285   C314    1.395   .     A
C285   C332    1.417   .     S
C286   O527    1.385   .     S
C286   C324    1.395   .     A
C286   C337    1.417   .     S
C287   C380    1.406   .     A
C287   C387    1.406   .     A
C287   C351    1.448   .     S
C288   C352    1.451   .     S
C288   C390    1.407   .     A
C288   C379    1.407   .     A
C289   C378    1.406   .     A
C289   C353    1.448   .     S
C289   C389    1.406   .     A
C290   C377    1.407   .     A
C290   C354    1.451   .     S
C290   C392    1.407   .     A
C291   C355    1.448   .     S
C291   C391    1.406   .     A
C291   C376    1.406   .     A
C292   C395    1.407   .     A
C292   C365    1.451   .     S
C292   C375    1.407   .     A
C293   C393    1.406   .     A
C293   C374    1.406   .     A
C293   C366    1.448   .     S
C294   C373    1.407   .     A
C294   C358    1.451   .     S
C294   C397    1.407   .     A
C295   C396    1.406   .     A
C295   C371    1.406   .     A
C295   C359    1.448   .     S
C296   C399    1.407   .     A
C296   C360    1.451   .     S
C296   C370    1.407   .     A
C297   C325    1.395   .     A
C297   O528    1.385   .     S
C297   C906    1.417   .     S
C298   C398    1.406   .     A
C298   C369    1.406   .     A
C298   C362    1.448   .     S
C299   C363    1.451   .     S
C299   C401    1.407   .     A
C299   C368    1.407   .     A
C300   C400    1.406   .     A
C300   C367    1.406   .     A
C300   C364    1.448   .     S
C301   C887    1.417   1_545 A
C301   C314    1.417   .     S
C301   C348    1.467   .     S
C302   C888    1.417   1_545 A
C302   C315    1.417   .     S
C302   C347    1.467   .     S
C303   C321    1.417   .     A
C303   C346    1.467   .     S
C304   C345    1.467   .     S
C304   C322    1.417   .     A
C305   C344    1.468   .     S
C305   C327    1.417   .     S
C306   C343    1.467   .     S
C306   C324    1.417   .     S
C307   C342    1.467   .     S
C307   C893    1.417   1_545 A
C307   C330    1.417   .     S
C308   C326    1.395   .     A
C308   O529    1.385   .     S
C308   C340    1.417   .     A
C309   C341    1.467   .     S
C309   C326    1.417   .     A
C309   C899    1.417   1_545 S
C310   C327    1.395   .     A
C310   O530    1.385   .     S
C310   C336    1.417   .     S
C311   C329    1.395   .     A
C311   O531    1.385   .     S
C311   C53     1.417   1_655 A
C312   C330    1.395   .     A
C312   O532    1.385   .     S
C312   C338    1.417   .     A
C313   C331    1.395   .     A
C313   O533    1.385   .     S
C313   C908    1.417   .     S
C314   O534    1.382   .     S
C315   O536    1.382   .     S
C315   C317    1.395   .     A
C316   O537    1.382   .     S
C316   C328    1.395   .     A
C316   C19     1.417   1_655 S
C317   O518    1.385   .     S
C317   C333    1.417   .     S
C318   C339    1.395   .     A
C318   O538    1.382   .     S
C318   C20     1.417   1_655 S
C319   C350    1.395   .     A
C319   O539    1.382   .     S
C319   C869    1.417   .     A
C320   O540    1.382   .     S
C320   C361    1.395   .     A
C320   C870    1.417   .     A
C321   C372    1.395   .     A
C321   O541    1.382   .     S
C322   O542    1.382   .     S
C322   C383    1.395   .     A
C323   C394    1.395   .     A
C323   C21     1.417   1_655 A
C323   O543    1.382   .     S
C324   O544    1.382   .     S
C325   C875    1.417   .     A
C325   O545    1.382   .     S
C326   O547    1.382   .     S
C327   O548    1.382   .     S
C328   O519    1.385   .     S
C328   C50     1.417   1_655 S
C329   O549    1.382   .     S
C329   C22     1.417   1_655 A
C330   O550    1.382   .     S
C331   O551    1.382   .     S
C331   C877    1.417   .     S
C332   C918    1.417   1_545 A
C332   C333    1.473   1_554 S
C333   C929    1.417   1_545 A
C333   C332    1.473   1_556 S
C334   C372    1.417   .     A
C334   C335    1.473   1_554 S
C335   C383    1.417   .     A
C335   C334    1.473   1_556 S
C336   C337    1.473   .     S
C338   C340    1.473   .     S
C338   C865    1.417   1_545 S
C339   O520    1.385   .     S
C339   C51     1.417   1_655 S
C340   C881    1.417   1_545 S
C341   O552    1.278   .     A
C341   O1081   1.278   1_545 S
C342   O1038   1.278   1_545 A
C342   O524    1.278   .     S
C343   O535    1.278   .     S
C344   O472    1.278   .     S
C345   O473    1.278   .     S
C345   O477    1.278   .     S
C346   O474    1.278   .     S
C346   O478    1.278   .     S
C347   O479    1.278   .     A
C347   O475    1.278   .     A
C348   O481    1.278   .     A
C348   O476    1.278   .     A
C349   C404    1.451   .     S
C349   O510    1.277   .     A
C349   O482    1.277   .     A
C350   O521    1.385   .     S
C350   C900    1.417   .     A
C351   O483    1.276   .     A
C351   O511    1.276   .     A
C352   O484    1.277   .     A
C352   O508    1.277   .     A
C353   O485    1.276   .     A
C353   O509    1.276   .     A
C354   O515    1.277   .     A
C354   O486    1.277   .     A
C355   O516    1.276   .     A
C355   O487    1.276   .     A
C356   O488    1.277   .     A
C356   O512    1.277   .     A
C356   C402    1.451   .     S
C357   C403    1.448   .     S
C357   O514    1.276   .     A
C357   O489    1.276   .     A
C358   O490    1.277   .     A
C358   O501    1.277   .     A
C359   O492    1.276   .     A
C359   O503    1.276   .     A
C360   O493    1.277   .     A
C360   O499    1.277   .     A
C361   O522    1.385   .     S
C361   C901    1.417   .     A
C362   O494    1.276   .     A
C362   O500    1.276   .     A
C363   O495    1.277   .     A
C363   O506    1.277   .     A
C364   O496    1.276   .     A
C364   O507    1.276   .     A
C365   O497    1.277   .     A
C365   O504    1.277   .     A
C366   O505    1.276   .     A
C366   O498    1.276   .     A
C367   I437    2.143   .     S
C367   C384    1.401   .     A
C368   C382    1.401   .     A
C368   I448    2.139   .     S
C369   C381    1.401   .     A
C369   I459    2.143   .     S
C370   C380    1.401   .     A
C370   I463    2.139   .     S
C371   I464    2.143   .     S
C371   C379    1.401   .     A
C372   O523    1.385   .     S
C373   C378    1.401   .     A
C373   I465    2.139   .     S
C374   I466    2.143   .     S
C374   C377    1.401   .     A
C375   I467    2.138   .     S
C375   C376    1.401   .     A
C376   I468    2.143   .     S
C377   I438    2.139   .     S
C378   I439    2.143   .     S
C379   I440    2.139   .     S
C380   I441    2.143   .     S
C381   C404    1.407   .     A
C381   I442    2.139   .     S
C382   C403    1.406   .     A
C382   I443    2.143   .     S
C383   O525    1.385   .     S
C384   I444    2.139   .     S
C384   C402    1.407   .     A
C385   C403    1.406   .     A
C385   I445    2.143   .     S
C385   C401    1.401   .     A
C386   C402    1.407   .     A
C386   I446    2.138   .     S
C386   C400    1.401   .     A
C387   C399    1.401   .     A
C387   I447    2.143   .     S
C388   C404    1.407   .     A
C388   I449    2.139   .     S
C388   C398    1.401   .     A
C389   C397    1.401   .     A
C389   I450    2.143   .     S
C390   C396    1.401   .     A
C390   I451    2.138   .     S
C391   C395    1.401   .     A
C391   I452    2.143   .     S
C392   C393    1.401   .     A
C392   I453    2.139   .     S
C393   I454    2.143   .     S
C394   C52     1.417   1_655 A
C394   O526    1.385   .     S
C395   I455    2.139   .     S
C396   I456    2.143   .     S
C397   I457    2.139   .     S
C398   I458    2.143   .     S
C399   I460    2.139   .     S
C400   I461    2.143   .     S
C401   I462    2.139   .     S
H405   O517    0.988   1_556 S
H406   O527    0.988   .     S
H407   O528    0.988   .     S
H408   O529    0.988   .     S
H409   O530    0.988   .     S
H410   O531    0.988   .     S
H411   O532    0.988   .     S
H412   O533    0.988   .     S
H413   O534    0.988   .     S
H414   O536    0.988   .     S
H415   O537    0.988   .     S
H416   O518    0.988   1_554 S
H417   O538    0.988   .     S
H418   O539    0.988   .     S
H419   O540    0.988   .     S
H420   O541    0.988   .     S
H421   O542    0.988   .     S
H422   O543    0.988   .     S
H423   O544    0.988   .     S
H424   O545    0.988   .     S
H425   O547    0.988   .     S
H426   O548    0.988   .     S
H427   O519    0.988   1_556 S
H428   O549    0.988   .     S
H429   O550    0.988   .     S
H430   O551    0.988   .     S
H431   O520    0.988   1_554 S
H432   O521    0.988   1_556 S
H433   O522    0.988   1_554 S
H434   O523    0.988   1_556 S
H435   O525    0.988   1_554 S
H436   O526    0.988   .     S
O469   Zn556   1.942   .     S
O469   Zn564   1.942   .     S
O469   Zn553   1.942   .     S
O469   Zn1128  1.942   1_545 S
O470   C910    1.278   .     A
O470   Zn555   1.943   .     S
O471   C59     1.278   1_655 A
O471   Zn558   1.943   .     S
O472   Zn557   1.943   .     S
O473   Zn567   1.943   .     S
O474   Zn566   1.943   .     S
O475   Zn561   1.943   .     S
O476   Zn553   1.943   .     S
O477   Zn563   1.943   .     S
O478   Zn562   1.943   .     S
O479   Zn565   1.943   .     S
O480   Zn561   1.942   .     S
O480   Zn565   1.942   .     S
O480   Zn559   1.942   .     S
O480   Zn1123  1.942   1_545 S
O481   Zn564   1.943   .     S
O482   Zn556   1.929   .     S
O483   Zn555   1.929   .     S
O484   Zn558   1.929   .     S
O485   Zn557   1.929   .     S
O486   Zn560   1.929   .     S
O487   Zn559   1.929   .     S
O488   Zn554   1.929   .     S
O489   Zn568   1.929   .     S
O490   Zn555   1.929   .     S
O491   Zn554   1.942   .     S
O491   Zn562   1.942   .     S
O491   Zn566   1.942   .     S
O492   Zn556   1.929   .     S
O493   Zn568   1.929   .     S
O494   Zn554   1.929   .     S
O495   Zn559   1.929   .     S
O496   Zn560   1.929   .     S
O497   Zn557   1.929   .     S
O498   Zn558   1.929   .     S
O499   Zn279   1.929   1_655 S
O500   Zn562   1.929   .     S
O501   Zn1133  1.929   .     S
O502   Zn567   1.942   .     S
O502   Zn557   1.942   .     S
O502   Zn563   1.942   .     S
O503   Zn564   1.929   .     S
O504   Zn567   1.929   .     S
O505   Zn282   1.929   1_655 S
O506   Zn561   1.929   .     S
O507   Zn1121  1.929   .     S
O508   Zn278   1.929   1_655 S
O509   Zn563   1.929   .     S
O510   Zn553   1.929   .     S
O511   Zn1129  1.929   .     S
O512   Zn566   1.929   .     S
O513   Zn560   1.943   .     S
O513   C909    1.278   .     S
O514   Zn283   1.929   1_655 S
O515   Zn1132  1.929   .     S
O516   Zn565   1.929   .     S
O517   H405    0.988   1_554 S
O518   H416    0.988   1_556 S
O519   H427    0.988   1_554 S
O520   H431    0.988   1_556 S
O521   H432    0.988   1_554 S
O522   H433    0.988   1_556 S
O523   H434    0.988   1_554 S
O524   Zn559   1.943   .     S
O525   H435    0.988   1_556 S
O535   Zn554   1.943   .     S
O546   Zn568   1.943   .     S
O546   C60     1.278   1_655 A
O552   Zn556   1.943   .     S
Zn553  O1075   1.929   1_545 S
Zn555  O1048   1.942   .     S
Zn558  O207    1.942   1_655 S
Zn560  O1037   1.942   .     S
Zn561  O1079   1.929   1_545 S
Zn564  O1083   1.929   1_545 S
Zn565  O1069   1.929   1_545 S
Zn568  O218    1.942   1_655 S
C569   O801    1.385   .     S
C569   C598    1.395   .     A
C569   C616    1.417   .     S
C570   O811    1.385   .     S
C570   C608    1.395   .     A
C570   C621    1.417   .     S
C571   C664    1.406   .     A
C571   C671    1.406   .     A
C571   C635    1.448   .     S
C572   C636    1.451   .     S
C572   C674    1.407   .     A
C572   C663    1.407   .     A
C573   C662    1.406   .     A
C573   C637    1.448   .     S
C573   C673    1.406   .     A
C574   C661    1.407   .     A
C574   C638    1.451   .     S
C574   C676    1.407   .     A
C575   C639    1.448   .     S
C575   C675    1.406   .     A
C575   C660    1.406   .     A
C576   C679    1.407   .     A
C576   C649    1.451   .     S
C576   C659    1.407   .     A
C577   C677    1.406   .     A
C577   C658    1.406   .     A
C577   C650    1.448   .     S
C578   C657    1.407   .     A
C578   C642    1.451   .     S
C578   C681    1.407   .     A
C579   C680    1.406   .     A
C579   C655    1.406   .     A
C579   C643    1.448   .     S
C580   C683    1.407   .     A
C580   C644    1.451   .     S
C580   C654    1.407   .     A
C581   C609    1.395   .     A
C581   O812    1.385   .     S
C581   C54     1.417   1_565 S
C582   C682    1.406   .     A
C582   C653    1.406   .     A
C582   C646    1.448   .     S
C583   C647    1.451   .     S
C583   C685    1.407   .     A
C583   C652    1.407   .     A
C584   C684    1.406   .     A
C584   C651    1.406   .     A
C584   C648    1.448   .     S
C585   C598    1.417   .     S
C585   C632    1.467   .     S
C586   C599    1.417   .     S
C586   C631    1.467   .     S
C587   C605    1.417   .     A
C587   C884    1.417   1_455 S
C587   C630    1.467   .     S
C588   C629    1.467   .     S
C588   C606    1.417   .     A
C588   C886    1.417   1_455 S
C589   C628    1.468   .     S
C589   C891    1.417   1_455 A
C589   C611    1.417   .     S
C590   C897    1.417   1_455 A
C590   C627    1.467   .     S
C590   C608    1.417   .     S
C591   C626    1.467   .     S
C591   C614    1.417   .     S
C592   C610    1.395   .     A
C592   O813    1.385   .     S
C592   C624    1.417   .     A
C593   C625    1.467   .     S
C593   C610    1.417   .     A
C594   C611    1.395   .     A
C594   O814    1.385   .     S
C594   C620    1.417   .     S
C595   C613    1.395   .     A
C595   O815    1.385   .     S
C595   C905    1.417   .     A
C596   C614    1.395   .     A
C596   O816    1.385   .     S
C596   C622    1.417   .     A
C597   C615    1.395   .     A
C597   O817    1.385   .     S
C597   C56     1.417   1_565 S
C598   O818    1.382   .     S
C599   O820    1.382   .     S
C599   C601    1.395   .     A
C600   O821    1.382   .     S
C600   C612    1.395   .     A
C600   C871    1.417   .     S
C601   O802    1.385   .     S
C601   C617    1.417   .     S
C602   C623    1.395   .     A
C602   O822    1.382   .     S
C602   C872    1.417   .     S
C603   C634    1.395   .     A
C603   O823    1.382   .     S
C603   C17     1.417   1_565 A
C604   O824    1.382   .     S
C604   C645    1.395   .     A
C604   C18     1.417   1_565 A
C605   C656    1.395   .     A
C605   O825    1.382   .     S
C606   O826    1.382   .     S
C606   C667    1.395   .     A
C607   C678    1.395   .     A
C607   C873    1.417   .     A
C607   O827    1.382   .     S
C608   O828    1.382   .     S
C609   C23     1.417   1_565 A
C609   O829    1.382   .     S
C610   O831    1.382   .     S
C611   O832    1.382   .     S
C612   O803    1.385   .     S
C612   C902    1.417   .     S
C613   O833    1.382   .     S
C613   C874    1.417   .     A
C614   O834    1.382   .     S
C615   O835    1.382   .     S
C615   C25     1.417   1_565 S
C616   C617    1.473   1_554 S
C617   C616    1.473   1_556 S
C618   C656    1.417   .     A
C618   C896    1.417   1_455 S
C618   C619    1.473   1_554 S
C619   C667    1.417   .     A
C619   C618    1.473   1_556 S
C619   C907    1.417   1_455 S
C620   C962    1.417   1_455 A
C620   C621    1.473   .     S
C621   C879    1.417   1_455 A
C622   C624    1.473   .     S
C623   O804    1.385   .     S
C623   C903    1.417   .     S
C625   O836    1.278   .     A
C626   O808    1.278   .     S
C627   O1039   1.278   1_455 A
C627   O819    1.278   .     S
C628   O1114   1.278   1_455 A
C628   O756    1.278   .     S
C629   O757    1.278   .     S
C629   O761    1.278   .     S
C630   O758    1.278   .     S
C630   O762    1.278   .     S
C631   O763    1.278   .     A
C631   O759    1.278   .     A
C632   O765    1.278   .     A
C632   O760    1.278   .     A
C633   C688    1.451   .     S
C633   O794    1.277   .     A
C633   O766    1.277   .     A
C634   O805    1.385   .     S
C634   C48     1.417   1_565 A
C635   O767    1.276   .     A
C635   O795    1.276   .     A
C636   O768    1.277   .     A
C636   O792    1.277   .     A
C637   O769    1.276   .     A
C637   O793    1.276   .     A
C638   O799    1.277   .     A
C638   O770    1.277   .     A
C639   O800    1.276   .     A
C639   O771    1.276   .     A
C640   O772    1.277   .     A
C640   O796    1.277   .     A
C640   C686    1.451   .     S
C641   C687    1.448   .     S
C641   O798    1.276   .     A
C641   O773    1.276   .     A
C642   O774    1.277   .     A
C642   O785    1.277   .     A
C643   O776    1.276   .     A
C643   O787    1.276   .     A
C644   O777    1.277   .     A
C644   O783    1.277   .     A
C645   O806    1.385   .     S
C645   C49     1.417   1_565 A
C646   O778    1.276   .     A
C646   O784    1.276   .     A
C647   O779    1.277   .     A
C647   O790    1.277   .     A
C648   O780    1.276   .     A
C648   O791    1.276   .     A
C649   O781    1.277   .     A
C649   O788    1.277   .     A
C650   O789    1.276   .     A
C650   O782    1.276   .     A
C651   I721    2.143   .     S
C651   C668    1.401   .     A
C652   C666    1.401   .     A
C652   I732    2.139   .     S
C653   C665    1.401   .     A
C653   I743    2.143   .     S
C654   C664    1.401   .     A
C654   I747    2.139   .     S
C655   I748    2.143   .     S
C655   C663    1.401   .     A
C656   O807    1.385   .     S
C657   C662    1.401   .     A
C657   I749    2.139   .     S
C658   I750    2.143   .     S
C658   C661    1.401   .     A
C659   I751    2.138   .     S
C659   C660    1.401   .     A
C660   I752    2.143   .     S
C661   I722    2.139   .     S
C662   I723    2.143   .     S
C663   I724    2.139   .     S
C664   I725    2.143   .     S
C665   C688    1.407   .     A
C665   I726    2.139   .     S
C666   C687    1.406   .     A
C666   I727    2.143   .     S
C667   O809    1.385   .     S
C668   I728    2.139   .     S
C668   C686    1.407   .     A
C669   C687    1.406   .     A
C669   I729    2.143   .     S
C669   C685    1.401   .     A
C670   C686    1.407   .     A
C670   I730    2.138   .     S
C670   C684    1.401   .     A
C671   C683    1.401   .     A
C671   I731    2.143   .     S
C672   C688    1.407   .     A
C672   I733    2.139   .     S
C672   C682    1.401   .     A
C673   C681    1.401   .     A
C673   I734    2.143   .     S
C674   C680    1.401   .     A
C674   I735    2.138   .     S
C675   C679    1.401   .     A
C675   I736    2.143   .     S
C676   C677    1.401   .     A
C676   I737    2.139   .     S
C677   I738    2.143   .     S
C678   C904    1.417   .     A
C678   O810    1.385   .     S
C679   I739    2.139   .     S
C680   I740    2.143   .     S
C681   I741    2.139   .     S
C682   I742    2.143   .     S
C683   I744    2.139   .     S
C684   I745    2.143   .     S
C685   I746    2.139   .     S
H689   O801    0.988   1_556 S
H690   O811    0.988   .     S
H691   O812    0.988   .     S
H692   O813    0.988   .     S
H693   O814    0.988   .     S
H694   O815    0.988   .     S
H695   O816    0.988   .     S
H696   O817    0.988   .     S
H697   O818    0.988   .     S
H698   O820    0.988   .     S
H699   O821    0.988   .     S
H700   O802    0.988   1_554 S
H701   O822    0.988   .     S
H702   O823    0.988   .     S
H703   O824    0.988   .     S
H704   O825    0.988   .     S
H705   O826    0.988   .     S
H706   O827    0.988   .     S
H707   O828    0.988   .     S
H708   O829    0.988   .     S
H709   O831    0.988   .     S
H710   O832    0.988   .     S
H711   O803    0.988   1_556 S
H712   O833    0.988   .     S
H713   O834    0.988   .     S
H714   O835    0.988   .     S
H715   O804    0.988   1_554 S
H716   O805    0.988   1_556 S
H717   O806    0.988   1_554 S
H718   O807    0.988   1_556 S
H719   O809    0.988   1_554 S
H720   O810    0.988   .     S
O753   Zn840   1.942   .     S
O753   Zn848   1.942   .     S
O753   Zn837   1.942   .     S
O754   C58     1.278   1_565 A
O754   Zn839   1.943   .     S
O755   C911    1.278   .     A
O755   Zn842   1.943   .     S
O756   Zn841   1.943   .     S
O757   Zn851   1.943   .     S
O758   Zn850   1.943   .     S
O759   Zn845   1.943   .     S
O760   Zn837   1.943   .     S
O761   Zn847   1.943   .     S
O762   Zn846   1.943   .     S
O763   Zn849   1.943   .     S
O764   Zn845   1.942   .     S
O764   Zn849   1.942   .     S
O764   Zn843   1.942   .     S
O765   Zn848   1.943   .     S
O766   Zn840   1.929   .     S
O767   Zn839   1.929   .     S
O768   Zn842   1.929   .     S
O769   Zn841   1.929   .     S
O770   Zn844   1.929   .     S
O771   Zn843   1.929   .     S
O772   Zn838   1.929   .     S
O773   Zn852   1.929   .     S
O774   Zn839   1.929   .     S
O775   Zn838   1.942   .     S
O775   Zn846   1.942   .     S
O775   Zn1126  1.942   1_455 S
O775   Zn850   1.942   .     S
O776   Zn840   1.929   .     S
O777   Zn852   1.929   .     S
O778   Zn838   1.929   .     S
O779   Zn843   1.929   .     S
O780   Zn844   1.929   .     S
O781   Zn841   1.929   .     S
O782   Zn842   1.929   .     S
O783   Zn1131  1.929   .     S
O784   Zn846   1.929   .     S
O785   Zn281   1.929   1_565 S
O786   Zn851   1.942   .     S
O786   Zn841   1.942   .     S
O786   Zn847   1.942   .     S
O786   Zn1136  1.942   1_455 S
O787   Zn848   1.929   .     S
O788   Zn851   1.929   .     S
O789   Zn1134  1.929   .     S
O790   Zn845   1.929   .     S
O791   Zn269   1.929   1_565 S
O792   Zn1130  1.929   .     S
O793   Zn847   1.929   .     S
O794   Zn837   1.929   .     S
O795   Zn277   1.929   1_565 S
O796   Zn850   1.929   .     S
O797   Zn844   1.943   .     S
O797   C57     1.278   1_565 S
O798   Zn1135  1.929   .     S
O799   Zn280   1.929   1_565 S
O800   Zn849   1.929   .     S
O801   H689    0.988   1_554 S
O802   H700    0.988   1_556 S
O803   H711    0.988   1_554 S
O804   H715    0.988   1_556 S
O805   H716    0.988   1_554 S
O806   H717    0.988   1_556 S
O807   H718    0.988   1_554 S
O808   Zn843   1.943   .     S
O809   H719    0.988   1_556 S
O819   Zn838   1.943   .     S
O830   Zn852   1.943   .     S
O830   C912    1.278   .     A
O836   Zn840   1.943   .     S
Zn839  O196    1.942   1_565 S
Zn842  O1059   1.942   .     S
Zn844  O185    1.942   1_565 S
Zn846  O1076   1.929   1_455 S
Zn847  O1067   1.929   1_455 S
Zn850  O1073   1.929   1_455 S
Zn851  O1082   1.929   1_455 S
Zn852  O1070   1.942   .     S
C853   O1085   1.385   .     S
C853   C882    1.395   .     A
C853   C900    1.417   .     S
C854   O1095   1.385   .     S
C854   C892    1.395   .     A
C854   C905    1.417   .     S
C855   C948    1.406   .     A
C855   C955    1.406   .     A
C855   C919    1.448   .     S
C856   C920    1.451   .     S
C856   C958    1.407   .     A
C856   C947    1.407   .     A
C857   C946    1.406   .     A
C857   C921    1.448   .     S
C857   C957    1.406   .     A
C858   C945    1.407   .     A
C858   C922    1.451   .     S
C858   C960    1.407   .     A
C859   C923    1.448   .     S
C859   C959    1.406   .     A
C859   C944    1.406   .     A
C860   C963    1.407   .     A
C860   C933    1.451   .     S
C860   C943    1.407   .     A
C861   C961    1.406   .     A
C861   C942    1.406   .     A
C861   C934    1.448   .     S
C862   C941    1.407   .     A
C862   C926    1.451   .     S
C862   C965    1.407   .     A
C863   C964    1.406   .     A
C863   C939    1.406   .     A
C863   C927    1.448   .     S
C864   C967    1.407   .     A
C864   C928    1.451   .     S
C864   C938    1.407   .     A
C865   C893    1.395   .     A
C865   O1096   1.385   .     S
C865   C338    1.417   1_565 S
C866   C966    1.406   .     A
C866   C937    1.406   .     A
C866   C930    1.448   .     S
C867   C931    1.451   .     S
C867   C969    1.407   .     A
C867   C936    1.407   .     A
C868   C968    1.406   .     A
C868   C935    1.406   .     A
C868   C932    1.448   .     S
C869   C882    1.417   .     S
C869   C916    1.467   .     S
C870   C883    1.417   .     S
C870   C915    1.467   .     S
C871   C889    1.417   .     A
C871   C914    1.467   .     S
C872   C913    1.467   .     S
C872   C890    1.417   .     A
C873   C912    1.468   .     S
C873   C895    1.417   .     S
C874   C911    1.467   .     S
C874   C892    1.417   .     S
C875   C910    1.467   .     S
C875   C898    1.417   .     S
C876   C894    1.395   .     A
C876   O1097   1.385   .     S
C876   C908    1.417   .     A
C877   C909    1.467   .     S
C877   C894    1.417   .     A
C878   C895    1.395   .     A
C878   O1098   1.385   .     S
C878   C904    1.417   .     S
C879   C897    1.395   .     A
C879   O1099   1.385   .     S
C879   C621    1.417   1_655 A
C880   C898    1.395   .     A
C880   O1100   1.385   .     S
C880   C906    1.417   .     A
C881   C899    1.395   .     A
C881   O1101   1.385   .     S
C881   C340    1.417   1_565 S
C882   O1102   1.382   .     S
C883   O1104   1.382   .     S
C883   C885    1.395   .     A
C884   O1105   1.382   .     S
C884   C896    1.395   .     A
C884   C587    1.417   1_655 S
C885   O1086   1.385   .     S
C885   C901    1.417   .     S
C886   C907    1.395   .     A
C886   O1106   1.382   .     S
C886   C588    1.417   1_655 S
C887   C918    1.395   .     A
C887   O1107   1.382   .     S
C887   C301    1.417   1_565 A
C888   O1108   1.382   .     S
C888   C929    1.395   .     A
C888   C302    1.417   1_565 A
C889   C940    1.395   .     A
C889   O1109   1.382   .     S
C890   O1110   1.382   .     S
C890   C951    1.395   .     A
C891   C962    1.395   .     A
C891   C589    1.417   1_655 A
C891   O1111   1.382   .     S
C892   O1112   1.382   .     S
C893   C307    1.417   1_565 A
C893   O1113   1.382   .     S
C894   O1115   1.382   .     S
C895   O1116   1.382   .     S
C896   O1087   1.385   .     S
C896   C618    1.417   1_655 S
C897   O1117   1.382   .     S
C897   C590    1.417   1_655 A
C898   O1118   1.382   .     S
C899   O1119   1.382   .     S
C899   C309    1.417   1_565 S
C900   C901    1.473   1_554 S
C901   C900    1.473   1_556 S
C902   C940    1.417   .     A
C902   C903    1.473   1_554 S
C903   C951    1.417   .     A
C903   C902    1.473   1_556 S
C904   C905    1.473   .     S
C906   C908    1.473   .     S
C907   O1088   1.385   .     S
C907   C619    1.417   1_655 S
C909   O1120   1.278   .     A
C910   O1092   1.278   .     S
C911   O1103   1.278   .     S
C912   O1040   1.278   .     S
C913   O1041   1.278   .     S
C913   O1045   1.278   .     S
C914   O1042   1.278   .     S
C914   O1046   1.278   .     S
C915   O1047   1.278   .     A
C915   O1043   1.278   .     A
C916   O1049   1.278   .     A
C916   O1044   1.278   .     A
C917   C972    1.451   .     S
C917   O1078   1.277   .     A
C917   O1050   1.277   .     A
C918   O1089   1.385   .     S
C918   C332    1.417   1_565 A
C919   O1051   1.276   .     A
C919   O1079   1.276   .     A
C920   O1052   1.277   .     A
C920   O1076   1.277   .     A
C921   O1053   1.276   .     A
C921   O1077   1.276   .     A
C922   O1083   1.277   .     A
C922   O1054   1.277   .     A
C923   O1084   1.276   .     A
C923   O1055   1.276   .     A
C924   O1056   1.277   .     A
C924   O1080   1.277   .     A
C924   C970    1.451   .     S
C925   C971    1.448   .     S
C925   O1082   1.276   .     A
C925   O1057   1.276   .     A
C926   O1058   1.277   .     A
C926   O1069   1.277   .     A
C927   O1060   1.276   .     A
C927   O1071   1.276   .     A
C928   O1061   1.277   .     A
C928   O1067   1.277   .     A
C929   O1090   1.385   .     S
C929   C333    1.417   1_565 A
C930   O1062   1.276   .     A
C930   O1068   1.276   .     A
C931   O1063   1.277   .     A
C931   O1074   1.277   .     A
C932   O1064   1.276   .     A
C932   O1075   1.276   .     A
C933   O1065   1.277   .     A
C933   O1072   1.277   .     A
C934   O1073   1.276   .     A
C934   O1066   1.276   .     A
C935   I1005   2.143   .     S
C935   C952    1.401   .     A
C936   C950    1.401   .     A
C936   I1016   2.139   .     S
C937   C949    1.401   .     A
C937   I1027   2.143   .     S
C938   C948    1.401   .     A
C938   I1031   2.139   .     S
C939   I1032   2.143   .     S
C939   C947    1.401   .     A
C940   O1091   1.385   .     S
C941   C946    1.401   .     A
C941   I1033   2.139   .     S
C942   I1034   2.143   .     S
C942   C945    1.401   .     A
C943   I1035   2.138   .     S
C943   C944    1.401   .     A
C944   I1036   2.143   .     S
C945   I1006   2.139   .     S
C946   I1007   2.143   .     S
C947   I1008   2.139   .     S
C948   I1009   2.143   .     S
C949   C972    1.407   .     A
C949   I1010   2.139   .     S
C950   C971    1.406   .     A
C950   I1011   2.143   .     S
C951   O1093   1.385   .     S
C952   I1012   2.139   .     S
C952   C970    1.407   .     A
C953   C971    1.406   .     A
C953   I1013   2.143   .     S
C953   C969    1.401   .     A
C954   C970    1.407   .     A
C954   I1014   2.138   .     S
C954   C968    1.401   .     A
C955   C967    1.401   .     A
C955   I1015   2.143   .     S
C956   C972    1.407   .     A
C956   I1017   2.139   .     S
C956   C966    1.401   .     A
C957   C965    1.401   .     A
C957   I1018   2.143   .     S
C958   C964    1.401   .     A
C958   I1019   2.138   .     S
C959   C963    1.401   .     A
C959   I1020   2.143   .     S
C960   C961    1.401   .     A
C960   I1021   2.139   .     S
C961   I1022   2.143   .     S
C962   C620    1.417   1_655 A
C962   O1094   1.385   .     S
C963   I1023   2.139   .     S
C964   I1024   2.143   .     S
C965   I1025   2.139   .     S
C966   I1026   2.143   .     S
C967   I1028   2.139   .     S
C968   I1029   2.143   .     S
C969   I1030   2.139   .     S
H973   O1085   0.988   1_556 S
H974   O1095   0.988   .     S
H975   O1096   0.988   .     S
H976   O1097   0.988   .     S
H977   O1098   0.988   .     S
H978   O1099   0.988   .     S
H979   O1100   0.988   .     S
H980   O1101   0.988   .     S
H981   O1102   0.988   .     S
H982   O1104   0.988   .     S
H983   O1105   0.988   .     S
H984   O1086   0.988   1_554 S
H985   O1106   0.988   .     S
H986   O1107   0.988   .     S
H987   O1108   0.988   .     S
H988   O1109   0.988   .     S
H989   O1110   0.988   .     S
H990   O1111   0.988   .     S
H991   O1112   0.988   .     S
H992   O1113   0.988   .     S
H993   O1115   0.988   .     S
H994   O1116   0.988   .     S
H995   O1087   0.988   1_556 S
H996   O1117   0.988   .     S
H997   O1118   0.988   .     S
H998   O1119   0.988   .     S
H999   O1088   0.988   1_554 S
H1000  O1089   0.988   1_556 S
H1001  O1090   0.988   1_554 S
H1002  O1091   0.988   1_556 S
H1003  O1093   0.988   1_554 S
H1004  O1094   0.988   .     S
O1037  Zn1124  1.942   .     S
O1037  Zn1132  1.942   .     S
O1037  Zn1121  1.942   .     S
O1038  C342    1.278   1_565 A
O1038  Zn1123  1.943   .     S
O1039  C627    1.278   1_655 A
O1039  Zn1126  1.943   .     S
O1040  Zn1125  1.943   .     S
O1041  Zn1135  1.943   .     S
O1042  Zn1134  1.943   .     S
O1043  Zn1129  1.943   .     S
O1044  Zn1121  1.943   .     S
O1045  Zn1131  1.943   .     S
O1046  Zn1130  1.943   .     S
O1047  Zn1133  1.943   .     S
O1048  Zn1129  1.942   .     S
O1048  Zn1133  1.942   .     S
O1048  Zn1127  1.942   .     S
O1049  Zn1132  1.943   .     S
O1050  Zn1124  1.929   .     S
O1051  Zn1123  1.929   .     S
O1052  Zn1126  1.929   .     S
O1053  Zn1125  1.929   .     S
O1054  Zn1128  1.929   .     S
O1055  Zn1127  1.929   .     S
O1056  Zn1122  1.929   .     S
O1057  Zn1136  1.929   .     S
O1058  Zn1123  1.929   .     S
O1059  Zn1122  1.942   .     S
O1059  Zn1130  1.942   .     S
O1059  Zn1134  1.942   .     S
O1060  Zn1124  1.929   .     S
O1061  Zn1136  1.929   .     S
O1062  Zn1122  1.929   .     S
O1063  Zn1127  1.929   .     S
O1064  Zn1128  1.929   .     S
O1065  Zn1125  1.929   .     S
O1066  Zn1126  1.929   .     S
O1067  Zn847   1.929   1_655 S
O1068  Zn1130  1.929   .     S
O1069  Zn565   1.929   1_565 S
O1070  Zn1135  1.942   .     S
O1070  Zn1125  1.942   .     S
O1070  Zn1131  1.942   .     S
O1071  Zn1132  1.929   .     S
O1072  Zn1135  1.929   .     S
O1073  Zn850   1.929   1_655 S
O1074  Zn1129  1.929   .     S
O1075  Zn553   1.929   1_565 S
O1076  Zn846   1.929   1_655 S
O1077  Zn1131  1.929   .     S
O1078  Zn1121  1.929   .     S
O1079  Zn561   1.929   1_565 S
O1080  Zn1134  1.929   .     S
O1081  Zn1128  1.943   .     S
O1081  C341    1.278   1_565 S
O1082  Zn851   1.929   1_655 S
O1083  Zn564   1.929   1_565 S
O1084  Zn1133  1.929   .     S
O1085  H973    0.988   1_554 S
O1086  H984    0.988   1_556 S
O1087  H995    0.988   1_554 S
O1088  H999    0.988   1_556 S
O1089  H1000   0.988   1_554 S
O1090  H1001   0.988   1_556 S
O1091  H1002   0.988   1_554 S
O1092  Zn1127  1.943   .     S
O1093  H1003   0.988   1_556 S
O1103  Zn1122  1.943   .     S
O1114  Zn1136  1.943   .     S
O1114  C628    1.278   1_655 A
O1120  Zn1124  1.943   .     S
Zn1123 O480    1.942   1_565 S
Zn1126 O775    1.942   1_655 S
Zn1128 O469    1.942   1_565 S
Zn1136 O786    1.942   1_655 S
