data_str_m1_o10_o18_pcu_sym.121
_audit_creation_date              2020-01-03
_audit_creation_method            'Materials Studio'
_symmetry_space_group_name_H-M    'P1'
_symmetry_Int_Tables_number       1
_symmetry_cell_setting            triclinic
loop_
_symmetry_equiv_pos_as_xyz
  x,y,z
_cell_length_a                    32.5878
_cell_length_b                    32.5229
_cell_length_c                    35.8519
_cell_angle_alpha                 98.1232
_cell_angle_beta                  72.7950
_cell_angle_gamma                 98.6898
loop_
_atom_site_label
_atom_site_type_symbol
_atom_site_fract_x
_atom_site_fract_y
_atom_site_fract_z
_atom_site_U_iso_or_equiv
_atom_site_adp_type
_atom_site_occupancy
Br1    Br    0.11136   0.15750   0.11210   0.00000  Uiso   1.00
C2     C     0.05247   0.15978   0.25895   0.00000  Uiso   1.00
C3     C     0.21102   0.14433   0.45877   0.00000  Uiso   1.00
C4     C     0.23431   0.12826   0.47893   0.00000  Uiso   1.00
C5     C     0.28111   0.17376   0.24118   0.00000  Uiso   1.00
C6     C     0.22249   0.13298   0.01979   0.00000  Uiso   1.00
C7     C     0.18611   0.15394   0.04122   0.00000  Uiso   1.00
C8     C     0.24704   0.11722   0.03944   0.00000  Uiso   1.00
C9     C     0.23576   0.12184   0.08016   0.00000  Uiso   1.00
C10    C     0.17086   0.15168   0.08240   0.00000  Uiso   1.00
C11    C     0.32724   0.17719   0.23759   0.00000  Uiso   1.00
C12    C     0.00724   0.15783   0.26174   0.00000  Uiso   1.00
C13    C     0.11157   0.22860   0.41951   0.00000  Uiso   1.00
C14    C     0.18097   0.32220   0.23803   0.00000  Uiso   1.00
C15    C     0.15157   0.01207   0.26200   0.00000  Uiso   1.00
C16    C     0.15598   0.05614   0.25883   0.00000  Uiso   1.00
C17    C     0.17688   0.27769   0.24132   0.00000  Uiso   1.00
C18    C     0.18815   0.14553   0.14407   0.00000  Uiso   1.00
C19    C     0.14548   0.18780   0.35608   0.00000  Uiso   1.00
C20    C     0.13790   0.19784   0.39870   0.00000  Uiso   1.00
C21    C     0.19748   0.13824   0.10159   0.00000  Uiso   1.00
C22    C     0.10600   0.23857   0.45964   0.00000  Uiso   1.00
C23    C     0.15835   0.17705   0.41850   0.00000  Uiso   1.00
C24    C     0.15453   0.18764   0.45869   0.00000  Uiso   1.00
C25    C     0.12719   0.21837   0.47937   0.00000  Uiso   1.00
C26    C     0.17703   0.16856   0.47888   0.00000  Uiso   1.00
C27    C     0.16703   0.17617   0.02046   0.00000  Uiso   1.00
C28    C     0.14214   0.20897   0.03943   0.00000  Uiso   1.00
C29    C     0.12222   0.22942   0.01931   0.00000  Uiso   1.00
Cl30   Cl    0.03075   0.20697   0.20160   0.00000  Uiso   1.00
H31    H     0.10306   0.25423   0.03507   0.00000  Uiso   1.00
H32    H     0.17647   0.15208   0.40205   0.00000  Uiso   1.00
H33    H     0.13989   0.22100   0.06950   0.00000  Uiso   1.00
H34    H     0.22252   0.13970   0.42721   0.00000  Uiso   1.00
H35    H     0.27572   0.10249   0.02329   0.00000  Uiso   1.00
H36    H     0.31799   0.13955   0.28385   0.00000  Uiso   1.00
H37    H     0.20815   0.00287   0.21596   0.00000  Uiso   1.00
H38    H     0.12401   0.33215   0.28413   0.00000  Uiso   1.00
H39    H     0.25633   0.11162   0.09506   0.00000  Uiso   1.00
H40    H     0.26164   0.11174   0.46238   0.00000  Uiso   1.00
H41    H     0.08542   0.26238   0.47521   0.00000  Uiso   1.00
H42    H     0.09538   0.24504   0.40479   0.00000  Uiso   1.00
O43    O     0.16667   0.16667   0.25000   0.00000  Uiso   1.00
O44    O     0.15693   0.12393   0.16625   0.00000  Uiso   1.00
O45    O     0.12687   0.20646   0.33749   0.00000  Uiso   1.00
O46    O     0.21088   0.17493   0.15877   0.00000  Uiso   1.00
O47    O     0.17198   0.16135   0.33749   0.00000  Uiso   1.00
O48    O     0.17849   0.08101   0.27821   0.00000  Uiso   1.00
O49    O     0.14581   0.26136   0.26767   0.00000  Uiso   1.00
O50    O     0.07452   0.13251   0.23607   0.00000  Uiso   1.00
O51    O     0.26785   0.19179   0.21806   0.00000  Uiso   1.00
O52    O     0.06990   0.18960   0.27820   0.00000  Uiso   1.00
O53    O     0.25440   0.15277   0.26768   0.00000  Uiso   1.00
O54    O     0.13800   0.06903   0.23607   0.00000  Uiso   1.00
O55    O     0.20437   0.25527   0.21806   0.00000  Uiso   1.00
Zn56   Zn    0.19244   0.14090   0.28278   0.00000  Uiso   1.00
Zn57   Zn    0.13459   0.12378   0.22258   0.00000  Uiso   1.00
Zn58   Zn    0.21166   0.19664   0.21188   0.00000  Uiso   1.00
Zn59   Zn    0.12798   0.20535   0.28277   0.00000  Uiso   1.00
Br60   Br    0.44470   0.15750   0.11210   0.00000  Uiso   1.00
C61    C     0.38580   0.15978   0.25895   0.00000  Uiso   1.00
C62    C     0.54435   0.14433   0.45877   0.00000  Uiso   1.00
C63    C     0.56764   0.12826   0.47893   0.00000  Uiso   1.00
C64    C     0.61444   0.17376   0.24118   0.00000  Uiso   1.00
C65    C     0.55582   0.13298   0.01979   0.00000  Uiso   1.00
C66    C     0.51945   0.15394   0.04122   0.00000  Uiso   1.00
C67    C     0.58037   0.11722   0.03944   0.00000  Uiso   1.00
C68    C     0.56910   0.12184   0.08016   0.00000  Uiso   1.00
C69    C     0.50419   0.15168   0.08240   0.00000  Uiso   1.00
C70    C     0.66057   0.17719   0.23759   0.00000  Uiso   1.00
C71    C     0.34058   0.15783   0.26174   0.00000  Uiso   1.00
C72    C     0.44490   0.22860   0.41951   0.00000  Uiso   1.00
C73    C     0.51430   0.32220   0.23803   0.00000  Uiso   1.00
C74    C     0.48491   0.01207   0.26200   0.00000  Uiso   1.00
C75    C     0.48931   0.05614   0.25883   0.00000  Uiso   1.00
C76    C     0.51022   0.27769   0.24132   0.00000  Uiso   1.00
C77    C     0.52149   0.14553   0.14407   0.00000  Uiso   1.00
C78    C     0.47882   0.18780   0.35608   0.00000  Uiso   1.00
C79    C     0.47123   0.19784   0.39870   0.00000  Uiso   1.00
C80    C     0.53081   0.13824   0.10159   0.00000  Uiso   1.00
C81    C     0.43933   0.23857   0.45964   0.00000  Uiso   1.00
C82    C     0.49168   0.17705   0.41850   0.00000  Uiso   1.00
C83    C     0.48787   0.18764   0.45869   0.00000  Uiso   1.00
C84    C     0.46053   0.21837   0.47937   0.00000  Uiso   1.00
C85    C     0.51036   0.16856   0.47888   0.00000  Uiso   1.00
C86    C     0.50036   0.17617   0.02046   0.00000  Uiso   1.00
C87    C     0.47547   0.20897   0.03943   0.00000  Uiso   1.00
C88    C     0.45556   0.22942   0.01931   0.00000  Uiso   1.00
Cl89   Cl    0.36409   0.20697   0.20160   0.00000  Uiso   1.00
H90    H     0.43639   0.25423   0.03507   0.00000  Uiso   1.00
H91    H     0.50980   0.15208   0.40205   0.00000  Uiso   1.00
H92    H     0.47323   0.22100   0.06950   0.00000  Uiso   1.00
H93    H     0.55586   0.13970   0.42721   0.00000  Uiso   1.00
H94    H     0.60905   0.10249   0.02329   0.00000  Uiso   1.00
H95    H     0.65132   0.13955   0.28385   0.00000  Uiso   1.00
H96    H     0.54148   0.00287   0.21596   0.00000  Uiso   1.00
H97    H     0.45735   0.33215   0.28413   0.00000  Uiso   1.00
H98    H     0.58966   0.11162   0.09506   0.00000  Uiso   1.00
H99    H     0.59497   0.11174   0.46238   0.00000  Uiso   1.00
H100   H     0.41875   0.26238   0.47521   0.00000  Uiso   1.00
H101   H     0.42871   0.24504   0.40479   0.00000  Uiso   1.00
O102   O     0.50000   0.16667   0.25000   0.00000  Uiso   1.00
O103   O     0.49027   0.12393   0.16625   0.00000  Uiso   1.00
O104   O     0.46020   0.20646   0.33749   0.00000  Uiso   1.00
O105   O     0.54421   0.17493   0.15877   0.00000  Uiso   1.00
O106   O     0.50532   0.16135   0.33749   0.00000  Uiso   1.00
O107   O     0.51182   0.08101   0.27821   0.00000  Uiso   1.00
O108   O     0.47914   0.26136   0.26767   0.00000  Uiso   1.00
O109   O     0.40785   0.13251   0.23607   0.00000  Uiso   1.00
O110   O     0.60119   0.19179   0.21806   0.00000  Uiso   1.00
O111   O     0.40323   0.18960   0.27820   0.00000  Uiso   1.00
O112   O     0.58773   0.15277   0.26768   0.00000  Uiso   1.00
O113   O     0.47133   0.06903   0.23607   0.00000  Uiso   1.00
O114   O     0.53771   0.25527   0.21806   0.00000  Uiso   1.00
Zn115  Zn    0.52577   0.14090   0.28278   0.00000  Uiso   1.00
Zn116  Zn    0.46792   0.12378   0.22258   0.00000  Uiso   1.00
Zn117  Zn    0.54500   0.19664   0.21188   0.00000  Uiso   1.00
Zn118  Zn    0.46131   0.20535   0.28277   0.00000  Uiso   1.00
Br119  Br    0.77803   0.15750   0.11210   0.00000  Uiso   1.00
C120   C     0.71913   0.15978   0.25895   0.00000  Uiso   1.00
C121   C     0.87768   0.14433   0.45877   0.00000  Uiso   1.00
C122   C     0.90097   0.12826   0.47893   0.00000  Uiso   1.00
C123   C     0.94778   0.17376   0.24118   0.00000  Uiso   1.00
C124   C     0.88915   0.13298   0.01979   0.00000  Uiso   1.00
C125   C     0.85278   0.15394   0.04122   0.00000  Uiso   1.00
C126   C     0.91371   0.11722   0.03944   0.00000  Uiso   1.00
C127   C     0.90243   0.12184   0.08016   0.00000  Uiso   1.00
C128   C     0.83752   0.15168   0.08240   0.00000  Uiso   1.00
C129   C     0.99391   0.17719   0.23759   0.00000  Uiso   1.00
C130   C     0.67391   0.15783   0.26174   0.00000  Uiso   1.00
C131   C     0.77823   0.22860   0.41951   0.00000  Uiso   1.00
C132   C     0.84764   0.32220   0.23803   0.00000  Uiso   1.00
C133   C     0.81824   0.01207   0.26200   0.00000  Uiso   1.00
C134   C     0.82264   0.05614   0.25883   0.00000  Uiso   1.00
C135   C     0.84355   0.27769   0.24132   0.00000  Uiso   1.00
C136   C     0.85482   0.14553   0.14407   0.00000  Uiso   1.00
C137   C     0.81215   0.18780   0.35608   0.00000  Uiso   1.00
C138   C     0.80457   0.19784   0.39870   0.00000  Uiso   1.00
C139   C     0.86414   0.13824   0.10159   0.00000  Uiso   1.00
C140   C     0.77267   0.23857   0.45964   0.00000  Uiso   1.00
C141   C     0.82502   0.17705   0.41850   0.00000  Uiso   1.00
C142   C     0.82120   0.18764   0.45869   0.00000  Uiso   1.00
C143   C     0.79386   0.21837   0.47937   0.00000  Uiso   1.00
C144   C     0.84369   0.16856   0.47888   0.00000  Uiso   1.00
C145   C     0.83370   0.17617   0.02046   0.00000  Uiso   1.00
C146   C     0.80881   0.20897   0.03943   0.00000  Uiso   1.00
C147   C     0.78889   0.22942   0.01931   0.00000  Uiso   1.00
Cl148  Cl    0.69742   0.20697   0.20160   0.00000  Uiso   1.00
H149   H     0.76973   0.25423   0.03507   0.00000  Uiso   1.00
H150   H     0.84314   0.15208   0.40205   0.00000  Uiso   1.00
H151   H     0.80656   0.22100   0.06950   0.00000  Uiso   1.00
H152   H     0.88919   0.13970   0.42721   0.00000  Uiso   1.00
H153   H     0.94238   0.10249   0.02329   0.00000  Uiso   1.00
H154   H     0.98466   0.13955   0.28385   0.00000  Uiso   1.00
H155   H     0.87482   0.00287   0.21596   0.00000  Uiso   1.00
H156   H     0.79068   0.33215   0.28413   0.00000  Uiso   1.00
H157   H     0.92299   0.11162   0.09506   0.00000  Uiso   1.00
H158   H     0.92830   0.11174   0.46238   0.00000  Uiso   1.00
H159   H     0.75209   0.26238   0.47521   0.00000  Uiso   1.00
H160   H     0.76205   0.24504   0.40479   0.00000  Uiso   1.00
O161   O     0.83333   0.16667   0.25000   0.00000  Uiso   1.00
O162   O     0.82360   0.12393   0.16625   0.00000  Uiso   1.00
O163   O     0.79354   0.20646   0.33749   0.00000  Uiso   1.00
O164   O     0.87755   0.17493   0.15877   0.00000  Uiso   1.00
O165   O     0.83865   0.16135   0.33749   0.00000  Uiso   1.00
O166   O     0.84515   0.08101   0.27821   0.00000  Uiso   1.00
O167   O     0.81247   0.26136   0.26767   0.00000  Uiso   1.00
O168   O     0.74119   0.13251   0.23607   0.00000  Uiso   1.00
O169   O     0.93452   0.19179   0.21806   0.00000  Uiso   1.00
O170   O     0.73656   0.18960   0.27820   0.00000  Uiso   1.00
O171   O     0.92106   0.15277   0.26768   0.00000  Uiso   1.00
O172   O     0.80467   0.06903   0.23607   0.00000  Uiso   1.00
O173   O     0.87104   0.25527   0.21806   0.00000  Uiso   1.00
Zn174  Zn    0.85910   0.14090   0.28278   0.00000  Uiso   1.00
Zn175  Zn    0.80125   0.12378   0.22258   0.00000  Uiso   1.00
Zn176  Zn    0.87833   0.19664   0.21188   0.00000  Uiso   1.00
Zn177  Zn    0.79465   0.20535   0.28277   0.00000  Uiso   1.00
Br178  Br    0.11136   0.49083   0.11210   0.00000  Uiso   1.00
C179   C     0.05247   0.49311   0.25895   0.00000  Uiso   1.00
C180   C     0.21102   0.47766   0.45877   0.00000  Uiso   1.00
C181   C     0.23431   0.46159   0.47893   0.00000  Uiso   1.00
C182   C     0.28111   0.50710   0.24118   0.00000  Uiso   1.00
C183   C     0.22249   0.46631   0.01979   0.00000  Uiso   1.00
C184   C     0.18611   0.48727   0.04122   0.00000  Uiso   1.00
C185   C     0.24704   0.45056   0.03944   0.00000  Uiso   1.00
C186   C     0.23576   0.45517   0.08016   0.00000  Uiso   1.00
C187   C     0.17086   0.48501   0.08240   0.00000  Uiso   1.00
C188   C     0.32724   0.51052   0.23759   0.00000  Uiso   1.00
C189   C     0.00724   0.49117   0.26174   0.00000  Uiso   1.00
C190   C     0.11157   0.56193   0.41951   0.00000  Uiso   1.00
C191   C     0.18097   0.65553   0.23803   0.00000  Uiso   1.00
C192   C     0.15157   0.34540   0.26200   0.00000  Uiso   1.00
C193   C     0.15598   0.38947   0.25883   0.00000  Uiso   1.00
C194   C     0.17688   0.61102   0.24132   0.00000  Uiso   1.00
C195   C     0.18815   0.47886   0.14407   0.00000  Uiso   1.00
C196   C     0.14548   0.52114   0.35608   0.00000  Uiso   1.00
C197   C     0.13790   0.53117   0.39870   0.00000  Uiso   1.00
C198   C     0.19748   0.47158   0.10159   0.00000  Uiso   1.00
C199   C     0.10600   0.57190   0.45964   0.00000  Uiso   1.00
C200   C     0.15835   0.51039   0.41850   0.00000  Uiso   1.00
C201   C     0.15453   0.52098   0.45869   0.00000  Uiso   1.00
C202   C     0.12719   0.55170   0.47937   0.00000  Uiso   1.00
C203   C     0.17703   0.50190   0.47888   0.00000  Uiso   1.00
C204   C     0.16703   0.50951   0.02046   0.00000  Uiso   1.00
C205   C     0.14214   0.54230   0.03943   0.00000  Uiso   1.00
C206   C     0.12222   0.56275   0.01931   0.00000  Uiso   1.00
Cl207  Cl    0.03075   0.54031   0.20160   0.00000  Uiso   1.00
H208   H     0.10306   0.58756   0.03507   0.00000  Uiso   1.00
H209   H     0.17647   0.48541   0.40205   0.00000  Uiso   1.00
H210   H     0.13989   0.55433   0.06950   0.00000  Uiso   1.00
H211   H     0.22252   0.47304   0.42721   0.00000  Uiso   1.00
H212   H     0.27572   0.43583   0.02329   0.00000  Uiso   1.00
H213   H     0.31799   0.47288   0.28385   0.00000  Uiso   1.00
H214   H     0.20815   0.33620   0.21596   0.00000  Uiso   1.00
H215   H     0.12401   0.66548   0.28413   0.00000  Uiso   1.00
H216   H     0.25633   0.44495   0.09506   0.00000  Uiso   1.00
H217   H     0.26164   0.44508   0.46238   0.00000  Uiso   1.00
H218   H     0.08542   0.59572   0.47521   0.00000  Uiso   1.00
H219   H     0.09538   0.57838   0.40479   0.00000  Uiso   1.00
O220   O     0.16667   0.50000   0.25000   0.00000  Uiso   1.00
O221   O     0.15693   0.45726   0.16625   0.00000  Uiso   1.00
O222   O     0.12687   0.53979   0.33749   0.00000  Uiso   1.00
O223   O     0.21088   0.50826   0.15877   0.00000  Uiso   1.00
O224   O     0.17198   0.49468   0.33749   0.00000  Uiso   1.00
O225   O     0.17849   0.41434   0.27821   0.00000  Uiso   1.00
O226   O     0.14581   0.59469   0.26767   0.00000  Uiso   1.00
O227   O     0.07452   0.46584   0.23607   0.00000  Uiso   1.00
O228   O     0.26785   0.52512   0.21806   0.00000  Uiso   1.00
O229   O     0.06990   0.52293   0.27820   0.00000  Uiso   1.00
O230   O     0.25440   0.48610   0.26768   0.00000  Uiso   1.00
O231   O     0.13800   0.40236   0.23607   0.00000  Uiso   1.00
O232   O     0.20437   0.58860   0.21806   0.00000  Uiso   1.00
Zn233  Zn    0.19244   0.47423   0.28278   0.00000  Uiso   1.00
Zn234  Zn    0.13459   0.45711   0.22258   0.00000  Uiso   1.00
Zn235  Zn    0.21166   0.52997   0.21188   0.00000  Uiso   1.00
Zn236  Zn    0.12798   0.53868   0.28277   0.00000  Uiso   1.00
Br237  Br    0.44470   0.49083   0.11210   0.00000  Uiso   1.00
C238   C     0.38580   0.49311   0.25895   0.00000  Uiso   1.00
C239   C     0.54435   0.47766   0.45877   0.00000  Uiso   1.00
C240   C     0.56764   0.46159   0.47893   0.00000  Uiso   1.00
C241   C     0.61444   0.50710   0.24118   0.00000  Uiso   1.00
C242   C     0.55582   0.46631   0.01979   0.00000  Uiso   1.00
C243   C     0.51945   0.48727   0.04122   0.00000  Uiso   1.00
C244   C     0.58037   0.45056   0.03944   0.00000  Uiso   1.00
C245   C     0.56910   0.45517   0.08016   0.00000  Uiso   1.00
C246   C     0.50419   0.48501   0.08240   0.00000  Uiso   1.00
C247   C     0.66057   0.51052   0.23759   0.00000  Uiso   1.00
C248   C     0.34058   0.49117   0.26174   0.00000  Uiso   1.00
C249   C     0.44490   0.56193   0.41951   0.00000  Uiso   1.00
C250   C     0.51430   0.65553   0.23803   0.00000  Uiso   1.00
C251   C     0.48491   0.34540   0.26200   0.00000  Uiso   1.00
C252   C     0.48931   0.38947   0.25883   0.00000  Uiso   1.00
C253   C     0.51022   0.61102   0.24132   0.00000  Uiso   1.00
C254   C     0.52149   0.47886   0.14407   0.00000  Uiso   1.00
C255   C     0.47882   0.52114   0.35608   0.00000  Uiso   1.00
C256   C     0.47123   0.53117   0.39870   0.00000  Uiso   1.00
C257   C     0.53081   0.47158   0.10159   0.00000  Uiso   1.00
C258   C     0.43933   0.57190   0.45964   0.00000  Uiso   1.00
C259   C     0.49168   0.51039   0.41850   0.00000  Uiso   1.00
C260   C     0.48787   0.52098   0.45869   0.00000  Uiso   1.00
C261   C     0.46053   0.55170   0.47937   0.00000  Uiso   1.00
C262   C     0.51036   0.50190   0.47888   0.00000  Uiso   1.00
C263   C     0.50036   0.50951   0.02046   0.00000  Uiso   1.00
C264   C     0.47547   0.54230   0.03943   0.00000  Uiso   1.00
C265   C     0.45556   0.56275   0.01931   0.00000  Uiso   1.00
Cl266  Cl    0.36409   0.54031   0.20160   0.00000  Uiso   1.00
H267   H     0.43639   0.58756   0.03507   0.00000  Uiso   1.00
H268   H     0.50980   0.48541   0.40205   0.00000  Uiso   1.00
H269   H     0.47323   0.55433   0.06950   0.00000  Uiso   1.00
H270   H     0.55586   0.47304   0.42721   0.00000  Uiso   1.00
H271   H     0.60905   0.43583   0.02329   0.00000  Uiso   1.00
H272   H     0.65132   0.47288   0.28385   0.00000  Uiso   1.00
H273   H     0.54148   0.33620   0.21596   0.00000  Uiso   1.00
H274   H     0.45735   0.66548   0.28413   0.00000  Uiso   1.00
H275   H     0.58966   0.44495   0.09506   0.00000  Uiso   1.00
H276   H     0.59497   0.44508   0.46238   0.00000  Uiso   1.00
H277   H     0.41875   0.59572   0.47521   0.00000  Uiso   1.00
H278   H     0.42871   0.57838   0.40479   0.00000  Uiso   1.00
O279   O     0.50000   0.50000   0.25000   0.00000  Uiso   1.00
O280   O     0.49027   0.45726   0.16625   0.00000  Uiso   1.00
O281   O     0.46020   0.53979   0.33749   0.00000  Uiso   1.00
O282   O     0.54421   0.50826   0.15877   0.00000  Uiso   1.00
O283   O     0.50532   0.49468   0.33749   0.00000  Uiso   1.00
O284   O     0.51182   0.41434   0.27821   0.00000  Uiso   1.00
O285   O     0.47914   0.59469   0.26767   0.00000  Uiso   1.00
O286   O     0.40785   0.46584   0.23607   0.00000  Uiso   1.00
O287   O     0.60119   0.52512   0.21806   0.00000  Uiso   1.00
O288   O     0.40323   0.52293   0.27820   0.00000  Uiso   1.00
O289   O     0.58773   0.48610   0.26768   0.00000  Uiso   1.00
O290   O     0.47133   0.40236   0.23607   0.00000  Uiso   1.00
O291   O     0.53771   0.58860   0.21806   0.00000  Uiso   1.00
Zn292  Zn    0.52577   0.47423   0.28278   0.00000  Uiso   1.00
Zn293  Zn    0.46792   0.45711   0.22258   0.00000  Uiso   1.00
Zn294  Zn    0.54500   0.52997   0.21188   0.00000  Uiso   1.00
Zn295  Zn    0.46131   0.53868   0.28277   0.00000  Uiso   1.00
Br296  Br    0.77803   0.49083   0.11210   0.00000  Uiso   1.00
C297   C     0.71913   0.49311   0.25895   0.00000  Uiso   1.00
C298   C     0.87768   0.47766   0.45877   0.00000  Uiso   1.00
C299   C     0.90097   0.46159   0.47893   0.00000  Uiso   1.00
C300   C     0.94778   0.50710   0.24118   0.00000  Uiso   1.00
C301   C     0.88915   0.46631   0.01979   0.00000  Uiso   1.00
C302   C     0.85278   0.48727   0.04122   0.00000  Uiso   1.00
C303   C     0.91371   0.45056   0.03944   0.00000  Uiso   1.00
C304   C     0.90243   0.45517   0.08016   0.00000  Uiso   1.00
C305   C     0.83752   0.48501   0.08240   0.00000  Uiso   1.00
C306   C     0.99391   0.51052   0.23759   0.00000  Uiso   1.00
C307   C     0.67391   0.49117   0.26174   0.00000  Uiso   1.00
C308   C     0.77823   0.56193   0.41951   0.00000  Uiso   1.00
C309   C     0.84764   0.65553   0.23803   0.00000  Uiso   1.00
C310   C     0.81824   0.34540   0.26200   0.00000  Uiso   1.00
C311   C     0.82264   0.38947   0.25883   0.00000  Uiso   1.00
C312   C     0.84355   0.61102   0.24132   0.00000  Uiso   1.00
C313   C     0.85482   0.47886   0.14407   0.00000  Uiso   1.00
C314   C     0.81215   0.52114   0.35608   0.00000  Uiso   1.00
C315   C     0.80457   0.53117   0.39870   0.00000  Uiso   1.00
C316   C     0.86414   0.47158   0.10159   0.00000  Uiso   1.00
C317   C     0.77267   0.57190   0.45964   0.00000  Uiso   1.00
C318   C     0.82502   0.51039   0.41850   0.00000  Uiso   1.00
C319   C     0.82120   0.52098   0.45869   0.00000  Uiso   1.00
C320   C     0.79386   0.55170   0.47937   0.00000  Uiso   1.00
C321   C     0.84369   0.50190   0.47888   0.00000  Uiso   1.00
C322   C     0.83370   0.50951   0.02046   0.00000  Uiso   1.00
C323   C     0.80881   0.54230   0.03943   0.00000  Uiso   1.00
C324   C     0.78889   0.56275   0.01931   0.00000  Uiso   1.00
Cl325  Cl    0.69742   0.54031   0.20160   0.00000  Uiso   1.00
H326   H     0.76973   0.58756   0.03507   0.00000  Uiso   1.00
H327   H     0.84314   0.48541   0.40205   0.00000  Uiso   1.00
H328   H     0.80656   0.55433   0.06950   0.00000  Uiso   1.00
H329   H     0.88919   0.47304   0.42721   0.00000  Uiso   1.00
H330   H     0.94238   0.43583   0.02329   0.00000  Uiso   1.00
H331   H     0.98466   0.47288   0.28385   0.00000  Uiso   1.00
H332   H     0.87482   0.33620   0.21596   0.00000  Uiso   1.00
H333   H     0.79068   0.66548   0.28413   0.00000  Uiso   1.00
H334   H     0.92299   0.44495   0.09506   0.00000  Uiso   1.00
H335   H     0.92830   0.44508   0.46238   0.00000  Uiso   1.00
H336   H     0.75209   0.59572   0.47521   0.00000  Uiso   1.00
H337   H     0.76205   0.57838   0.40479   0.00000  Uiso   1.00
O338   O     0.83333   0.50000   0.25000   0.00000  Uiso   1.00
O339   O     0.82360   0.45726   0.16625   0.00000  Uiso   1.00
O340   O     0.79354   0.53979   0.33749   0.00000  Uiso   1.00
O341   O     0.87755   0.50826   0.15877   0.00000  Uiso   1.00
O342   O     0.83865   0.49468   0.33749   0.00000  Uiso   1.00
O343   O     0.84515   0.41434   0.27821   0.00000  Uiso   1.00
O344   O     0.81247   0.59469   0.26767   0.00000  Uiso   1.00
O345   O     0.74119   0.46584   0.23607   0.00000  Uiso   1.00
O346   O     0.93452   0.52512   0.21806   0.00000  Uiso   1.00
O347   O     0.73656   0.52293   0.27820   0.00000  Uiso   1.00
O348   O     0.92106   0.48610   0.26768   0.00000  Uiso   1.00
O349   O     0.80467   0.40236   0.23607   0.00000  Uiso   1.00
O350   O     0.87104   0.58860   0.21806   0.00000  Uiso   1.00
Zn351  Zn    0.85910   0.47423   0.28278   0.00000  Uiso   1.00
Zn352  Zn    0.80125   0.45711   0.22258   0.00000  Uiso   1.00
Zn353  Zn    0.87833   0.52997   0.21188   0.00000  Uiso   1.00
Zn354  Zn    0.79465   0.53868   0.28277   0.00000  Uiso   1.00
Br355  Br    0.11136   0.82417   0.11210   0.00000  Uiso   1.00
C356   C     0.05247   0.82644   0.25895   0.00000  Uiso   1.00
C357   C     0.21102   0.81100   0.45877   0.00000  Uiso   1.00
C358   C     0.23431   0.79493   0.47893   0.00000  Uiso   1.00
C359   C     0.28111   0.84043   0.24118   0.00000  Uiso   1.00
C360   C     0.22249   0.79965   0.01979   0.00000  Uiso   1.00
C361   C     0.18611   0.82060   0.04122   0.00000  Uiso   1.00
C362   C     0.24704   0.78389   0.03944   0.00000  Uiso   1.00
C363   C     0.23576   0.78851   0.08016   0.00000  Uiso   1.00
C364   C     0.17086   0.81835   0.08240   0.00000  Uiso   1.00
C365   C     0.32724   0.84386   0.23759   0.00000  Uiso   1.00
C366   C     0.00724   0.82450   0.26174   0.00000  Uiso   1.00
C367   C     0.11157   0.89526   0.41951   0.00000  Uiso   1.00
C368   C     0.18097   0.98886   0.23803   0.00000  Uiso   1.00
C369   C     0.15157   0.67874   0.26200   0.00000  Uiso   1.00
C370   C     0.15598   0.72281   0.25883   0.00000  Uiso   1.00
C371   C     0.17688   0.94436   0.24132   0.00000  Uiso   1.00
C372   C     0.18815   0.81220   0.14407   0.00000  Uiso   1.00
C373   C     0.14548   0.85447   0.35608   0.00000  Uiso   1.00
C374   C     0.13790   0.86450   0.39870   0.00000  Uiso   1.00
C375   C     0.19748   0.80491   0.10159   0.00000  Uiso   1.00
C376   C     0.10600   0.90523   0.45964   0.00000  Uiso   1.00
C377   C     0.15835   0.84372   0.41850   0.00000  Uiso   1.00
C378   C     0.15453   0.85431   0.45869   0.00000  Uiso   1.00
C379   C     0.12719   0.88503   0.47937   0.00000  Uiso   1.00
C380   C     0.17703   0.83523   0.47888   0.00000  Uiso   1.00
C381   C     0.16703   0.84284   0.02046   0.00000  Uiso   1.00
C382   C     0.14214   0.87563   0.03943   0.00000  Uiso   1.00
C383   C     0.12222   0.89609   0.01931   0.00000  Uiso   1.00
Cl384  Cl    0.03075   0.87364   0.20160   0.00000  Uiso   1.00
H385   H     0.10306   0.92090   0.03507   0.00000  Uiso   1.00
H386   H     0.17647   0.81874   0.40205   0.00000  Uiso   1.00
H387   H     0.13989   0.88766   0.06950   0.00000  Uiso   1.00
H388   H     0.22252   0.80637   0.42721   0.00000  Uiso   1.00
H389   H     0.27572   0.76916   0.02329   0.00000  Uiso   1.00
H390   H     0.31799   0.80621   0.28385   0.00000  Uiso   1.00
H391   H     0.20815   0.66953   0.21596   0.00000  Uiso   1.00
H392   H     0.12401   0.99882   0.28413   0.00000  Uiso   1.00
H393   H     0.25633   0.77829   0.09506   0.00000  Uiso   1.00
H394   H     0.26164   0.77841   0.46238   0.00000  Uiso   1.00
H395   H     0.08542   0.92905   0.47521   0.00000  Uiso   1.00
H396   H     0.09538   0.91171   0.40479   0.00000  Uiso   1.00
O397   O     0.16667   0.83333   0.25000   0.00000  Uiso   1.00
O398   O     0.15693   0.79060   0.16625   0.00000  Uiso   1.00
O399   O     0.12687   0.87313   0.33749   0.00000  Uiso   1.00
O400   O     0.21088   0.84159   0.15877   0.00000  Uiso   1.00
O401   O     0.17198   0.82802   0.33749   0.00000  Uiso   1.00
O402   O     0.17849   0.74768   0.27821   0.00000  Uiso   1.00
O403   O     0.14581   0.92803   0.26767   0.00000  Uiso   1.00
O404   O     0.07452   0.79917   0.23607   0.00000  Uiso   1.00
O405   O     0.26785   0.85845   0.21806   0.00000  Uiso   1.00
O406   O     0.06990   0.85627   0.27820   0.00000  Uiso   1.00
O407   O     0.25440   0.81944   0.26768   0.00000  Uiso   1.00
O408   O     0.13800   0.73570   0.23607   0.00000  Uiso   1.00
O409   O     0.20437   0.92193   0.21806   0.00000  Uiso   1.00
Zn410  Zn    0.19244   0.80756   0.28278   0.00000  Uiso   1.00
Zn411  Zn    0.13459   0.79044   0.22258   0.00000  Uiso   1.00
Zn412  Zn    0.21166   0.86331   0.21188   0.00000  Uiso   1.00
Zn413  Zn    0.12798   0.87202   0.28277   0.00000  Uiso   1.00
Br414  Br    0.44470   0.82417   0.11210   0.00000  Uiso   1.00
C415   C     0.38580   0.82644   0.25895   0.00000  Uiso   1.00
C416   C     0.54435   0.81100   0.45877   0.00000  Uiso   1.00
C417   C     0.56764   0.79493   0.47893   0.00000  Uiso   1.00
C418   C     0.61444   0.84043   0.24118   0.00000  Uiso   1.00
C419   C     0.55582   0.79965   0.01979   0.00000  Uiso   1.00
C420   C     0.51945   0.82060   0.04122   0.00000  Uiso   1.00
C421   C     0.58037   0.78389   0.03944   0.00000  Uiso   1.00
C422   C     0.56910   0.78851   0.08016   0.00000  Uiso   1.00
C423   C     0.50419   0.81835   0.08240   0.00000  Uiso   1.00
C424   C     0.66057   0.84386   0.23759   0.00000  Uiso   1.00
C425   C     0.34058   0.82450   0.26174   0.00000  Uiso   1.00
C426   C     0.44490   0.89526   0.41951   0.00000  Uiso   1.00
C427   C     0.51430   0.98886   0.23803   0.00000  Uiso   1.00
C428   C     0.48491   0.67874   0.26200   0.00000  Uiso   1.00
C429   C     0.48931   0.72281   0.25883   0.00000  Uiso   1.00
C430   C     0.51022   0.94436   0.24132   0.00000  Uiso   1.00
C431   C     0.52149   0.81220   0.14407   0.00000  Uiso   1.00
C432   C     0.47882   0.85447   0.35608   0.00000  Uiso   1.00
C433   C     0.47123   0.86450   0.39870   0.00000  Uiso   1.00
C434   C     0.53081   0.80491   0.10159   0.00000  Uiso   1.00
C435   C     0.43933   0.90523   0.45964   0.00000  Uiso   1.00
C436   C     0.49168   0.84372   0.41850   0.00000  Uiso   1.00
C437   C     0.48787   0.85431   0.45869   0.00000  Uiso   1.00
C438   C     0.46053   0.88503   0.47937   0.00000  Uiso   1.00
C439   C     0.51036   0.83523   0.47888   0.00000  Uiso   1.00
C440   C     0.50036   0.84284   0.02046   0.00000  Uiso   1.00
C441   C     0.47547   0.87563   0.03943   0.00000  Uiso   1.00
C442   C     0.45556   0.89609   0.01931   0.00000  Uiso   1.00
Cl443  Cl    0.36409   0.87364   0.20160   0.00000  Uiso   1.00
H444   H     0.43639   0.92090   0.03507   0.00000  Uiso   1.00
H445   H     0.50980   0.81874   0.40205   0.00000  Uiso   1.00
H446   H     0.47323   0.88766   0.06950   0.00000  Uiso   1.00
H447   H     0.55586   0.80637   0.42721   0.00000  Uiso   1.00
H448   H     0.60905   0.76916   0.02329   0.00000  Uiso   1.00
H449   H     0.65132   0.80621   0.28385   0.00000  Uiso   1.00
H450   H     0.54148   0.66953   0.21596   0.00000  Uiso   1.00
H451   H     0.45735   0.99882   0.28413   0.00000  Uiso   1.00
H452   H     0.58966   0.77829   0.09506   0.00000  Uiso   1.00
H453   H     0.59497   0.77841   0.46238   0.00000  Uiso   1.00
H454   H     0.41875   0.92905   0.47521   0.00000  Uiso   1.00
H455   H     0.42871   0.91171   0.40479   0.00000  Uiso   1.00
O456   O     0.50000   0.83333   0.25000   0.00000  Uiso   1.00
O457   O     0.49027   0.79060   0.16625   0.00000  Uiso   1.00
O458   O     0.46020   0.87313   0.33749   0.00000  Uiso   1.00
O459   O     0.54421   0.84159   0.15877   0.00000  Uiso   1.00
O460   O     0.50532   0.82802   0.33749   0.00000  Uiso   1.00
O461   O     0.51182   0.74768   0.27821   0.00000  Uiso   1.00
O462   O     0.47914   0.92803   0.26767   0.00000  Uiso   1.00
O463   O     0.40785   0.79917   0.23607   0.00000  Uiso   1.00
O464   O     0.60119   0.85845   0.21806   0.00000  Uiso   1.00
O465   O     0.40323   0.85627   0.27820   0.00000  Uiso   1.00
O466   O     0.58773   0.81944   0.26768   0.00000  Uiso   1.00
O467   O     0.47133   0.73570   0.23607   0.00000  Uiso   1.00
O468   O     0.53771   0.92193   0.21806   0.00000  Uiso   1.00
Zn469  Zn    0.52577   0.80756   0.28278   0.00000  Uiso   1.00
Zn470  Zn    0.46792   0.79044   0.22258   0.00000  Uiso   1.00
Zn471  Zn    0.54500   0.86331   0.21188   0.00000  Uiso   1.00
Zn472  Zn    0.46131   0.87202   0.28277   0.00000  Uiso   1.00
Br473  Br    0.77803   0.82417   0.11210   0.00000  Uiso   1.00
C474   C     0.71913   0.82644   0.25895   0.00000  Uiso   1.00
C475   C     0.87768   0.81100   0.45877   0.00000  Uiso   1.00
C476   C     0.90097   0.79493   0.47893   0.00000  Uiso   1.00
C477   C     0.94778   0.84043   0.24118   0.00000  Uiso   1.00
C478   C     0.88915   0.79965   0.01979   0.00000  Uiso   1.00
C479   C     0.85278   0.82060   0.04122   0.00000  Uiso   1.00
C480   C     0.91371   0.78389   0.03944   0.00000  Uiso   1.00
C481   C     0.90243   0.78851   0.08016   0.00000  Uiso   1.00
C482   C     0.83752   0.81835   0.08240   0.00000  Uiso   1.00
C483   C     0.99391   0.84386   0.23759   0.00000  Uiso   1.00
C484   C     0.67391   0.82450   0.26174   0.00000  Uiso   1.00
C485   C     0.77823   0.89526   0.41951   0.00000  Uiso   1.00
C486   C     0.84764   0.98886   0.23803   0.00000  Uiso   1.00
C487   C     0.81824   0.67874   0.26200   0.00000  Uiso   1.00
C488   C     0.82264   0.72281   0.25883   0.00000  Uiso   1.00
C489   C     0.84355   0.94436   0.24132   0.00000  Uiso   1.00
C490   C     0.85482   0.81220   0.14407   0.00000  Uiso   1.00
C491   C     0.81215   0.85447   0.35608   0.00000  Uiso   1.00
C492   C     0.80457   0.86450   0.39870   0.00000  Uiso   1.00
C493   C     0.86414   0.80491   0.10159   0.00000  Uiso   1.00
C494   C     0.77267   0.90523   0.45964   0.00000  Uiso   1.00
C495   C     0.82502   0.84372   0.41850   0.00000  Uiso   1.00
C496   C     0.82120   0.85431   0.45869   0.00000  Uiso   1.00
C497   C     0.79386   0.88503   0.47937   0.00000  Uiso   1.00
C498   C     0.84369   0.83523   0.47888   0.00000  Uiso   1.00
C499   C     0.83370   0.84284   0.02046   0.00000  Uiso   1.00
C500   C     0.80881   0.87563   0.03943   0.00000  Uiso   1.00
C501   C     0.78889   0.89609   0.01931   0.00000  Uiso   1.00
Cl502  Cl    0.69742   0.87364   0.20160   0.00000  Uiso   1.00
H503   H     0.76973   0.92090   0.03507   0.00000  Uiso   1.00
H504   H     0.84314   0.81874   0.40205   0.00000  Uiso   1.00
H505   H     0.80656   0.88766   0.06950   0.00000  Uiso   1.00
H506   H     0.88919   0.80637   0.42721   0.00000  Uiso   1.00
H507   H     0.94238   0.76916   0.02329   0.00000  Uiso   1.00
H508   H     0.98466   0.80621   0.28385   0.00000  Uiso   1.00
H509   H     0.87482   0.66953   0.21596   0.00000  Uiso   1.00
H510   H     0.79068   0.99882   0.28413   0.00000  Uiso   1.00
H511   H     0.92299   0.77829   0.09506   0.00000  Uiso   1.00
H512   H     0.92830   0.77841   0.46238   0.00000  Uiso   1.00
H513   H     0.75209   0.92905   0.47521   0.00000  Uiso   1.00
H514   H     0.76205   0.91171   0.40479   0.00000  Uiso   1.00
O515   O     0.83333   0.83333   0.25000   0.00000  Uiso   1.00
O516   O     0.82360   0.79060   0.16625   0.00000  Uiso   1.00
O517   O     0.79354   0.87313   0.33749   0.00000  Uiso   1.00
O518   O     0.87755   0.84159   0.15877   0.00000  Uiso   1.00
O519   O     0.83865   0.82802   0.33749   0.00000  Uiso   1.00
O520   O     0.84515   0.74768   0.27821   0.00000  Uiso   1.00
O521   O     0.81247   0.92803   0.26767   0.00000  Uiso   1.00
O522   O     0.74119   0.79917   0.23607   0.00000  Uiso   1.00
O523   O     0.93452   0.85845   0.21806   0.00000  Uiso   1.00
O524   O     0.73656   0.85627   0.27820   0.00000  Uiso   1.00
O525   O     0.92106   0.81944   0.26768   0.00000  Uiso   1.00
O526   O     0.80467   0.73570   0.23607   0.00000  Uiso   1.00
O527   O     0.87104   0.92193   0.21806   0.00000  Uiso   1.00
Zn528  Zn    0.85910   0.80756   0.28278   0.00000  Uiso   1.00
Zn529  Zn    0.80125   0.79044   0.22258   0.00000  Uiso   1.00
Zn530  Zn    0.87833   0.86331   0.21188   0.00000  Uiso   1.00
Zn531  Zn    0.79465   0.87202   0.28277   0.00000  Uiso   1.00
Br532  Br    0.11136   0.15750   0.61210   0.00000  Uiso   1.00
C533   C     0.05247   0.15978   0.75895   0.00000  Uiso   1.00
C534   C     0.21102   0.14433   0.95877   0.00000  Uiso   1.00
C535   C     0.23431   0.12826   0.97893   0.00000  Uiso   1.00
C536   C     0.28111   0.17376   0.74118   0.00000  Uiso   1.00
C537   C     0.22249   0.13298   0.51979   0.00000  Uiso   1.00
C538   C     0.18611   0.15394   0.54122   0.00000  Uiso   1.00
C539   C     0.24704   0.11722   0.53944   0.00000  Uiso   1.00
C540   C     0.23576   0.12184   0.58016   0.00000  Uiso   1.00
C541   C     0.17086   0.15168   0.58240   0.00000  Uiso   1.00
C542   C     0.32724   0.17719   0.73759   0.00000  Uiso   1.00
C543   C     0.00724   0.15783   0.76174   0.00000  Uiso   1.00
C544   C     0.11157   0.22860   0.91951   0.00000  Uiso   1.00
C545   C     0.18097   0.32220   0.73803   0.00000  Uiso   1.00
C546   C     0.15157   0.01207   0.76200   0.00000  Uiso   1.00
C547   C     0.15598   0.05614   0.75883   0.00000  Uiso   1.00
C548   C     0.17688   0.27769   0.74132   0.00000  Uiso   1.00
C549   C     0.18815   0.14553   0.64407   0.00000  Uiso   1.00
C550   C     0.14548   0.18780   0.85608   0.00000  Uiso   1.00
C551   C     0.13790   0.19784   0.89870   0.00000  Uiso   1.00
C552   C     0.19748   0.13824   0.60159   0.00000  Uiso   1.00
C553   C     0.10600   0.23857   0.95964   0.00000  Uiso   1.00
C554   C     0.15835   0.17705   0.91850   0.00000  Uiso   1.00
C555   C     0.15453   0.18764   0.95869   0.00000  Uiso   1.00
C556   C     0.12719   0.21837   0.97937   0.00000  Uiso   1.00
C557   C     0.17703   0.16856   0.97888   0.00000  Uiso   1.00
C558   C     0.16703   0.17617   0.52046   0.00000  Uiso   1.00
C559   C     0.14214   0.20897   0.53943   0.00000  Uiso   1.00
C560   C     0.12222   0.22942   0.51931   0.00000  Uiso   1.00
Cl561  Cl    0.03075   0.20697   0.70160   0.00000  Uiso   1.00
H562   H     0.10306   0.25423   0.53507   0.00000  Uiso   1.00
H563   H     0.17647   0.15208   0.90205   0.00000  Uiso   1.00
H564   H     0.13989   0.22100   0.56950   0.00000  Uiso   1.00
H565   H     0.22252   0.13970   0.92721   0.00000  Uiso   1.00
H566   H     0.27572   0.10249   0.52329   0.00000  Uiso   1.00
H567   H     0.31799   0.13955   0.78385   0.00000  Uiso   1.00
H568   H     0.20815   0.00287   0.71596   0.00000  Uiso   1.00
H569   H     0.12401   0.33215   0.78413   0.00000  Uiso   1.00
H570   H     0.25633   0.11162   0.59506   0.00000  Uiso   1.00
H571   H     0.26164   0.11174   0.96238   0.00000  Uiso   1.00
H572   H     0.08542   0.26238   0.97521   0.00000  Uiso   1.00
H573   H     0.09538   0.24504   0.90479   0.00000  Uiso   1.00
O574   O     0.16667   0.16667   0.75000   0.00000  Uiso   1.00
O575   O     0.15693   0.12393   0.66625   0.00000  Uiso   1.00
O576   O     0.12687   0.20646   0.83749   0.00000  Uiso   1.00
O577   O     0.21088   0.17493   0.65877   0.00000  Uiso   1.00
O578   O     0.17198   0.16135   0.83749   0.00000  Uiso   1.00
O579   O     0.17849   0.08101   0.77821   0.00000  Uiso   1.00
O580   O     0.14581   0.26136   0.76767   0.00000  Uiso   1.00
O581   O     0.07452   0.13251   0.73607   0.00000  Uiso   1.00
O582   O     0.26785   0.19179   0.71806   0.00000  Uiso   1.00
O583   O     0.06990   0.18960   0.77820   0.00000  Uiso   1.00
O584   O     0.25440   0.15277   0.76768   0.00000  Uiso   1.00
O585   O     0.13800   0.06903   0.73607   0.00000  Uiso   1.00
O586   O     0.20437   0.25527   0.71806   0.00000  Uiso   1.00
Zn587  Zn    0.19244   0.14090   0.78278   0.00000  Uiso   1.00
Zn588  Zn    0.13459   0.12378   0.72258   0.00000  Uiso   1.00
Zn589  Zn    0.21166   0.19664   0.71188   0.00000  Uiso   1.00
Zn590  Zn    0.12798   0.20535   0.78277   0.00000  Uiso   1.00
Br591  Br    0.44470   0.15750   0.61210   0.00000  Uiso   1.00
C592   C     0.38580   0.15978   0.75895   0.00000  Uiso   1.00
C593   C     0.54435   0.14433   0.95877   0.00000  Uiso   1.00
C594   C     0.56764   0.12826   0.97893   0.00000  Uiso   1.00
C595   C     0.61444   0.17376   0.74118   0.00000  Uiso   1.00
C596   C     0.55582   0.13298   0.51979   0.00000  Uiso   1.00
C597   C     0.51945   0.15394   0.54122   0.00000  Uiso   1.00
C598   C     0.58037   0.11722   0.53944   0.00000  Uiso   1.00
C599   C     0.56910   0.12184   0.58016   0.00000  Uiso   1.00
C600   C     0.50419   0.15168   0.58240   0.00000  Uiso   1.00
C601   C     0.66057   0.17719   0.73759   0.00000  Uiso   1.00
C602   C     0.34058   0.15783   0.76174   0.00000  Uiso   1.00
C603   C     0.44490   0.22860   0.91951   0.00000  Uiso   1.00
C604   C     0.51430   0.32220   0.73803   0.00000  Uiso   1.00
C605   C     0.48491   0.01207   0.76200   0.00000  Uiso   1.00
C606   C     0.48931   0.05614   0.75883   0.00000  Uiso   1.00
C607   C     0.51022   0.27769   0.74132   0.00000  Uiso   1.00
C608   C     0.52149   0.14553   0.64407   0.00000  Uiso   1.00
C609   C     0.47882   0.18780   0.85608   0.00000  Uiso   1.00
C610   C     0.47123   0.19784   0.89870   0.00000  Uiso   1.00
C611   C     0.53081   0.13824   0.60159   0.00000  Uiso   1.00
C612   C     0.43933   0.23857   0.95964   0.00000  Uiso   1.00
C613   C     0.49168   0.17705   0.91850   0.00000  Uiso   1.00
C614   C     0.48787   0.18764   0.95869   0.00000  Uiso   1.00
C615   C     0.46053   0.21837   0.97937   0.00000  Uiso   1.00
C616   C     0.51036   0.16856   0.97888   0.00000  Uiso   1.00
C617   C     0.50036   0.17617   0.52046   0.00000  Uiso   1.00
C618   C     0.47547   0.20897   0.53943   0.00000  Uiso   1.00
C619   C     0.45556   0.22942   0.51931   0.00000  Uiso   1.00
Cl620  Cl    0.36409   0.20697   0.70160   0.00000  Uiso   1.00
H621   H     0.43639   0.25423   0.53507   0.00000  Uiso   1.00
H622   H     0.50980   0.15208   0.90205   0.00000  Uiso   1.00
H623   H     0.47323   0.22100   0.56950   0.00000  Uiso   1.00
H624   H     0.55586   0.13970   0.92721   0.00000  Uiso   1.00
H625   H     0.60905   0.10249   0.52329   0.00000  Uiso   1.00
H626   H     0.65132   0.13955   0.78385   0.00000  Uiso   1.00
H627   H     0.54148   0.00287   0.71596   0.00000  Uiso   1.00
H628   H     0.45735   0.33215   0.78413   0.00000  Uiso   1.00
H629   H     0.58966   0.11162   0.59506   0.00000  Uiso   1.00
H630   H     0.59497   0.11174   0.96238   0.00000  Uiso   1.00
H631   H     0.41875   0.26238   0.97521   0.00000  Uiso   1.00
H632   H     0.42871   0.24504   0.90479   0.00000  Uiso   1.00
O633   O     0.50000   0.16667   0.75000   0.00000  Uiso   1.00
O634   O     0.49027   0.12393   0.66625   0.00000  Uiso   1.00
O635   O     0.46020   0.20646   0.83749   0.00000  Uiso   1.00
O636   O     0.54421   0.17493   0.65877   0.00000  Uiso   1.00
O637   O     0.50532   0.16135   0.83749   0.00000  Uiso   1.00
O638   O     0.51182   0.08101   0.77821   0.00000  Uiso   1.00
O639   O     0.47914   0.26136   0.76767   0.00000  Uiso   1.00
O640   O     0.40785   0.13251   0.73607   0.00000  Uiso   1.00
O641   O     0.60119   0.19179   0.71806   0.00000  Uiso   1.00
O642   O     0.40323   0.18960   0.77820   0.00000  Uiso   1.00
O643   O     0.58773   0.15277   0.76768   0.00000  Uiso   1.00
O644   O     0.47133   0.06903   0.73607   0.00000  Uiso   1.00
O645   O     0.53771   0.25527   0.71806   0.00000  Uiso   1.00
Zn646  Zn    0.52577   0.14090   0.78278   0.00000  Uiso   1.00
Zn647  Zn    0.46792   0.12378   0.72258   0.00000  Uiso   1.00
Zn648  Zn    0.54500   0.19664   0.71188   0.00000  Uiso   1.00
Zn649  Zn    0.46131   0.20535   0.78277   0.00000  Uiso   1.00
Br650  Br    0.77803   0.15750   0.61210   0.00000  Uiso   1.00
C651   C     0.71913   0.15978   0.75895   0.00000  Uiso   1.00
C652   C     0.87768   0.14433   0.95877   0.00000  Uiso   1.00
C653   C     0.90097   0.12826   0.97893   0.00000  Uiso   1.00
C654   C     0.94778   0.17376   0.74118   0.00000  Uiso   1.00
C655   C     0.88915   0.13298   0.51979   0.00000  Uiso   1.00
C656   C     0.85278   0.15394   0.54122   0.00000  Uiso   1.00
C657   C     0.91371   0.11722   0.53944   0.00000  Uiso   1.00
C658   C     0.90243   0.12184   0.58016   0.00000  Uiso   1.00
C659   C     0.83752   0.15168   0.58240   0.00000  Uiso   1.00
C660   C     0.99391   0.17719   0.73759   0.00000  Uiso   1.00
C661   C     0.67391   0.15783   0.76174   0.00000  Uiso   1.00
C662   C     0.77823   0.22860   0.91951   0.00000  Uiso   1.00
C663   C     0.84764   0.32220   0.73803   0.00000  Uiso   1.00
C664   C     0.81824   0.01207   0.76200   0.00000  Uiso   1.00
C665   C     0.82264   0.05614   0.75883   0.00000  Uiso   1.00
C666   C     0.84355   0.27769   0.74132   0.00000  Uiso   1.00
C667   C     0.85482   0.14553   0.64407   0.00000  Uiso   1.00
C668   C     0.81215   0.18780   0.85608   0.00000  Uiso   1.00
C669   C     0.80457   0.19784   0.89870   0.00000  Uiso   1.00
C670   C     0.86414   0.13824   0.60159   0.00000  Uiso   1.00
C671   C     0.77267   0.23857   0.95964   0.00000  Uiso   1.00
C672   C     0.82502   0.17705   0.91850   0.00000  Uiso   1.00
C673   C     0.82120   0.18764   0.95869   0.00000  Uiso   1.00
C674   C     0.79386   0.21837   0.97937   0.00000  Uiso   1.00
C675   C     0.84369   0.16856   0.97888   0.00000  Uiso   1.00
C676   C     0.83370   0.17617   0.52046   0.00000  Uiso   1.00
C677   C     0.80881   0.20897   0.53943   0.00000  Uiso   1.00
C678   C     0.78889   0.22942   0.51931   0.00000  Uiso   1.00
Cl679  Cl    0.69742   0.20697   0.70160   0.00000  Uiso   1.00
H680   H     0.76973   0.25423   0.53507   0.00000  Uiso   1.00
H681   H     0.84314   0.15208   0.90205   0.00000  Uiso   1.00
H682   H     0.80656   0.22100   0.56950   0.00000  Uiso   1.00
H683   H     0.88919   0.13970   0.92721   0.00000  Uiso   1.00
H684   H     0.94238   0.10249   0.52329   0.00000  Uiso   1.00
H685   H     0.98466   0.13955   0.78385   0.00000  Uiso   1.00
H686   H     0.87482   0.00287   0.71596   0.00000  Uiso   1.00
H687   H     0.79068   0.33215   0.78413   0.00000  Uiso   1.00
H688   H     0.92299   0.11162   0.59506   0.00000  Uiso   1.00
H689   H     0.92830   0.11174   0.96238   0.00000  Uiso   1.00
H690   H     0.75209   0.26238   0.97521   0.00000  Uiso   1.00
H691   H     0.76205   0.24504   0.90479   0.00000  Uiso   1.00
O692   O     0.83333   0.16667   0.75000   0.00000  Uiso   1.00
O693   O     0.82360   0.12393   0.66625   0.00000  Uiso   1.00
O694   O     0.79354   0.20646   0.83749   0.00000  Uiso   1.00
O695   O     0.87755   0.17493   0.65877   0.00000  Uiso   1.00
O696   O     0.83865   0.16135   0.83749   0.00000  Uiso   1.00
O697   O     0.84515   0.08101   0.77821   0.00000  Uiso   1.00
O698   O     0.81247   0.26136   0.76767   0.00000  Uiso   1.00
O699   O     0.74119   0.13251   0.73607   0.00000  Uiso   1.00
O700   O     0.93452   0.19179   0.71806   0.00000  Uiso   1.00
O701   O     0.73656   0.18960   0.77820   0.00000  Uiso   1.00
O702   O     0.92106   0.15277   0.76768   0.00000  Uiso   1.00
O703   O     0.80467   0.06903   0.73607   0.00000  Uiso   1.00
O704   O     0.87104   0.25527   0.71806   0.00000  Uiso   1.00
Zn705  Zn    0.85910   0.14090   0.78278   0.00000  Uiso   1.00
Zn706  Zn    0.80125   0.12378   0.72258   0.00000  Uiso   1.00
Zn707  Zn    0.87833   0.19664   0.71188   0.00000  Uiso   1.00
Zn708  Zn    0.79465   0.20535   0.78277   0.00000  Uiso   1.00
Br709  Br    0.11136   0.49083   0.61210   0.00000  Uiso   1.00
C710   C     0.05247   0.49311   0.75895   0.00000  Uiso   1.00
C711   C     0.21102   0.47766   0.95877   0.00000  Uiso   1.00
C712   C     0.23431   0.46159   0.97893   0.00000  Uiso   1.00
C713   C     0.28111   0.50710   0.74118   0.00000  Uiso   1.00
C714   C     0.22249   0.46631   0.51979   0.00000  Uiso   1.00
C715   C     0.18611   0.48727   0.54122   0.00000  Uiso   1.00
C716   C     0.24704   0.45056   0.53944   0.00000  Uiso   1.00
C717   C     0.23576   0.45517   0.58016   0.00000  Uiso   1.00
C718   C     0.17086   0.48501   0.58240   0.00000  Uiso   1.00
C719   C     0.32724   0.51052   0.73759   0.00000  Uiso   1.00
C720   C     0.00724   0.49117   0.76174   0.00000  Uiso   1.00
C721   C     0.11157   0.56193   0.91951   0.00000  Uiso   1.00
C722   C     0.18097   0.65553   0.73803   0.00000  Uiso   1.00
C723   C     0.15157   0.34540   0.76200   0.00000  Uiso   1.00
C724   C     0.15598   0.38947   0.75883   0.00000  Uiso   1.00
C725   C     0.17688   0.61102   0.74132   0.00000  Uiso   1.00
C726   C     0.18815   0.47886   0.64407   0.00000  Uiso   1.00
C727   C     0.14548   0.52114   0.85608   0.00000  Uiso   1.00
C728   C     0.13790   0.53117   0.89870   0.00000  Uiso   1.00
C729   C     0.19748   0.47158   0.60159   0.00000  Uiso   1.00
C730   C     0.10600   0.57190   0.95964   0.00000  Uiso   1.00
C731   C     0.15835   0.51039   0.91850   0.00000  Uiso   1.00
C732   C     0.15453   0.52098   0.95869   0.00000  Uiso   1.00
C733   C     0.12719   0.55170   0.97937   0.00000  Uiso   1.00
C734   C     0.17703   0.50190   0.97888   0.00000  Uiso   1.00
C735   C     0.16703   0.50951   0.52046   0.00000  Uiso   1.00
C736   C     0.14214   0.54230   0.53943   0.00000  Uiso   1.00
C737   C     0.12222   0.56275   0.51931   0.00000  Uiso   1.00
Cl738  Cl    0.03075   0.54031   0.70160   0.00000  Uiso   1.00
H739   H     0.10306   0.58756   0.53507   0.00000  Uiso   1.00
H740   H     0.17647   0.48541   0.90205   0.00000  Uiso   1.00
H741   H     0.13989   0.55433   0.56950   0.00000  Uiso   1.00
H742   H     0.22252   0.47304   0.92721   0.00000  Uiso   1.00
H743   H     0.27572   0.43583   0.52329   0.00000  Uiso   1.00
H744   H     0.31799   0.47288   0.78385   0.00000  Uiso   1.00
H745   H     0.20815   0.33620   0.71596   0.00000  Uiso   1.00
H746   H     0.12401   0.66548   0.78413   0.00000  Uiso   1.00
H747   H     0.25633   0.44495   0.59506   0.00000  Uiso   1.00
H748   H     0.26164   0.44508   0.96238   0.00000  Uiso   1.00
H749   H     0.08542   0.59572   0.97521   0.00000  Uiso   1.00
H750   H     0.09538   0.57838   0.90479   0.00000  Uiso   1.00
O751   O     0.16667   0.50000   0.75000   0.00000  Uiso   1.00
O752   O     0.15693   0.45726   0.66625   0.00000  Uiso   1.00
O753   O     0.12687   0.53979   0.83749   0.00000  Uiso   1.00
O754   O     0.21088   0.50826   0.65877   0.00000  Uiso   1.00
O755   O     0.17198   0.49468   0.83749   0.00000  Uiso   1.00
O756   O     0.17849   0.41434   0.77821   0.00000  Uiso   1.00
O757   O     0.14581   0.59469   0.76767   0.00000  Uiso   1.00
O758   O     0.07452   0.46584   0.73607   0.00000  Uiso   1.00
O759   O     0.26785   0.52512   0.71806   0.00000  Uiso   1.00
O760   O     0.06990   0.52293   0.77820   0.00000  Uiso   1.00
O761   O     0.25440   0.48610   0.76768   0.00000  Uiso   1.00
O762   O     0.13800   0.40236   0.73607   0.00000  Uiso   1.00
O763   O     0.20437   0.58860   0.71806   0.00000  Uiso   1.00
Zn764  Zn    0.19244   0.47423   0.78278   0.00000  Uiso   1.00
Zn765  Zn    0.13459   0.45711   0.72258   0.00000  Uiso   1.00
Zn766  Zn    0.21166   0.52997   0.71188   0.00000  Uiso   1.00
Zn767  Zn    0.12798   0.53868   0.78277   0.00000  Uiso   1.00
Br768  Br    0.44470   0.49083   0.61210   0.00000  Uiso   1.00
C769   C     0.38580   0.49311   0.75895   0.00000  Uiso   1.00
C770   C     0.54435   0.47766   0.95877   0.00000  Uiso   1.00
C771   C     0.56764   0.46159   0.97893   0.00000  Uiso   1.00
C772   C     0.61444   0.50710   0.74118   0.00000  Uiso   1.00
C773   C     0.55582   0.46631   0.51979   0.00000  Uiso   1.00
C774   C     0.51945   0.48727   0.54122   0.00000  Uiso   1.00
C775   C     0.58037   0.45056   0.53944   0.00000  Uiso   1.00
C776   C     0.56910   0.45517   0.58016   0.00000  Uiso   1.00
C777   C     0.50419   0.48501   0.58240   0.00000  Uiso   1.00
C778   C     0.66057   0.51052   0.73759   0.00000  Uiso   1.00
C779   C     0.34058   0.49117   0.76174   0.00000  Uiso   1.00
C780   C     0.44490   0.56193   0.91951   0.00000  Uiso   1.00
C781   C     0.51430   0.65553   0.73803   0.00000  Uiso   1.00
C782   C     0.48491   0.34540   0.76200   0.00000  Uiso   1.00
C783   C     0.48931   0.38947   0.75883   0.00000  Uiso   1.00
C784   C     0.51022   0.61102   0.74132   0.00000  Uiso   1.00
C785   C     0.52149   0.47886   0.64407   0.00000  Uiso   1.00
C786   C     0.47882   0.52114   0.85608   0.00000  Uiso   1.00
C787   C     0.47123   0.53117   0.89870   0.00000  Uiso   1.00
C788   C     0.53081   0.47158   0.60159   0.00000  Uiso   1.00
C789   C     0.43933   0.57190   0.95964   0.00000  Uiso   1.00
C790   C     0.49168   0.51039   0.91850   0.00000  Uiso   1.00
C791   C     0.48787   0.52098   0.95869   0.00000  Uiso   1.00
C792   C     0.46053   0.55170   0.97937   0.00000  Uiso   1.00
C793   C     0.51036   0.50190   0.97888   0.00000  Uiso   1.00
C794   C     0.50036   0.50951   0.52046   0.00000  Uiso   1.00
C795   C     0.47547   0.54230   0.53943   0.00000  Uiso   1.00
C796   C     0.45556   0.56275   0.51931   0.00000  Uiso   1.00
Cl797  Cl    0.36409   0.54031   0.70160   0.00000  Uiso   1.00
H798   H     0.43639   0.58756   0.53507   0.00000  Uiso   1.00
H799   H     0.50980   0.48541   0.90205   0.00000  Uiso   1.00
H800   H     0.47323   0.55433   0.56950   0.00000  Uiso   1.00
H801   H     0.55586   0.47304   0.92721   0.00000  Uiso   1.00
H802   H     0.60905   0.43583   0.52329   0.00000  Uiso   1.00
H803   H     0.65132   0.47288   0.78385   0.00000  Uiso   1.00
H804   H     0.54148   0.33620   0.71596   0.00000  Uiso   1.00
H805   H     0.45735   0.66548   0.78413   0.00000  Uiso   1.00
H806   H     0.58966   0.44495   0.59506   0.00000  Uiso   1.00
H807   H     0.59497   0.44508   0.96238   0.00000  Uiso   1.00
H808   H     0.41875   0.59572   0.97521   0.00000  Uiso   1.00
H809   H     0.42871   0.57838   0.90479   0.00000  Uiso   1.00
O810   O     0.50000   0.50000   0.75000   0.00000  Uiso   1.00
O811   O     0.49027   0.45726   0.66625   0.00000  Uiso   1.00
O812   O     0.46020   0.53979   0.83749   0.00000  Uiso   1.00
O813   O     0.54421   0.50826   0.65877   0.00000  Uiso   1.00
O814   O     0.50532   0.49468   0.83749   0.00000  Uiso   1.00
O815   O     0.51182   0.41434   0.77821   0.00000  Uiso   1.00
O816   O     0.47914   0.59469   0.76767   0.00000  Uiso   1.00
O817   O     0.40785   0.46584   0.73607   0.00000  Uiso   1.00
O818   O     0.60119   0.52512   0.71806   0.00000  Uiso   1.00
O819   O     0.40323   0.52293   0.77820   0.00000  Uiso   1.00
O820   O     0.58773   0.48610   0.76768   0.00000  Uiso   1.00
O821   O     0.47133   0.40236   0.73607   0.00000  Uiso   1.00
O822   O     0.53771   0.58860   0.71806   0.00000  Uiso   1.00
Zn823  Zn    0.52577   0.47423   0.78278   0.00000  Uiso   1.00
Zn824  Zn    0.46792   0.45711   0.72258   0.00000  Uiso   1.00
Zn825  Zn    0.54500   0.52997   0.71188   0.00000  Uiso   1.00
Zn826  Zn    0.46131   0.53868   0.78277   0.00000  Uiso   1.00
Br827  Br    0.77803   0.49083   0.61210   0.00000  Uiso   1.00
C828   C     0.71913   0.49311   0.75895   0.00000  Uiso   1.00
C829   C     0.87768   0.47766   0.95877   0.00000  Uiso   1.00
C830   C     0.90097   0.46159   0.97893   0.00000  Uiso   1.00
C831   C     0.94778   0.50710   0.74118   0.00000  Uiso   1.00
C832   C     0.88915   0.46631   0.51979   0.00000  Uiso   1.00
C833   C     0.85278   0.48727   0.54122   0.00000  Uiso   1.00
C834   C     0.91371   0.45056   0.53944   0.00000  Uiso   1.00
C835   C     0.90243   0.45517   0.58016   0.00000  Uiso   1.00
C836   C     0.83752   0.48501   0.58240   0.00000  Uiso   1.00
C837   C     0.99391   0.51052   0.73759   0.00000  Uiso   1.00
C838   C     0.67391   0.49117   0.76174   0.00000  Uiso   1.00
C839   C     0.77823   0.56193   0.91951   0.00000  Uiso   1.00
C840   C     0.84764   0.65553   0.73803   0.00000  Uiso   1.00
C841   C     0.81824   0.34540   0.76200   0.00000  Uiso   1.00
C842   C     0.82264   0.38947   0.75883   0.00000  Uiso   1.00
C843   C     0.84355   0.61102   0.74132   0.00000  Uiso   1.00
C844   C     0.85482   0.47886   0.64407   0.00000  Uiso   1.00
C845   C     0.81215   0.52114   0.85608   0.00000  Uiso   1.00
C846   C     0.80457   0.53117   0.89870   0.00000  Uiso   1.00
C847   C     0.86414   0.47158   0.60159   0.00000  Uiso   1.00
C848   C     0.77267   0.57190   0.95964   0.00000  Uiso   1.00
C849   C     0.82502   0.51039   0.91850   0.00000  Uiso   1.00
C850   C     0.82120   0.52098   0.95869   0.00000  Uiso   1.00
C851   C     0.79386   0.55170   0.97937   0.00000  Uiso   1.00
C852   C     0.84369   0.50190   0.97888   0.00000  Uiso   1.00
C853   C     0.83370   0.50951   0.52046   0.00000  Uiso   1.00
C854   C     0.80881   0.54230   0.53943   0.00000  Uiso   1.00
C855   C     0.78889   0.56275   0.51931   0.00000  Uiso   1.00
Cl856  Cl    0.69742   0.54031   0.70160   0.00000  Uiso   1.00
H857   H     0.76973   0.58756   0.53507   0.00000  Uiso   1.00
H858   H     0.84314   0.48541   0.90205   0.00000  Uiso   1.00
H859   H     0.80656   0.55433   0.56950   0.00000  Uiso   1.00
H860   H     0.88919   0.47304   0.92721   0.00000  Uiso   1.00
H861   H     0.94238   0.43583   0.52329   0.00000  Uiso   1.00
H862   H     0.98466   0.47288   0.78385   0.00000  Uiso   1.00
H863   H     0.87482   0.33620   0.71596   0.00000  Uiso   1.00
H864   H     0.79068   0.66548   0.78413   0.00000  Uiso   1.00
H865   H     0.92299   0.44495   0.59506   0.00000  Uiso   1.00
H866   H     0.92830   0.44508   0.96238   0.00000  Uiso   1.00
H867   H     0.75209   0.59572   0.97521   0.00000  Uiso   1.00
H868   H     0.76205   0.57838   0.90479   0.00000  Uiso   1.00
O869   O     0.83333   0.50000   0.75000   0.00000  Uiso   1.00
O870   O     0.82360   0.45726   0.66625   0.00000  Uiso   1.00
O871   O     0.79354   0.53979   0.83749   0.00000  Uiso   1.00
O872   O     0.87755   0.50826   0.65877   0.00000  Uiso   1.00
O873   O     0.83865   0.49468   0.83749   0.00000  Uiso   1.00
O874   O     0.84515   0.41434   0.77821   0.00000  Uiso   1.00
O875   O     0.81247   0.59469   0.76767   0.00000  Uiso   1.00
O876   O     0.74119   0.46584   0.73607   0.00000  Uiso   1.00
O877   O     0.93452   0.52512   0.71806   0.00000  Uiso   1.00
O878   O     0.73656   0.52293   0.77820   0.00000  Uiso   1.00
O879   O     0.92106   0.48610   0.76768   0.00000  Uiso   1.00
O880   O     0.80467   0.40236   0.73607   0.00000  Uiso   1.00
O881   O     0.87104   0.58860   0.71806   0.00000  Uiso   1.00
Zn882  Zn    0.85910   0.47423   0.78278   0.00000  Uiso   1.00
Zn883  Zn    0.80125   0.45711   0.72258   0.00000  Uiso   1.00
Zn884  Zn    0.87833   0.52997   0.71188   0.00000  Uiso   1.00
Zn885  Zn    0.79465   0.53868   0.78277   0.00000  Uiso   1.00
Br886  Br    0.11136   0.82417   0.61210   0.00000  Uiso   1.00
C887   C     0.05247   0.82644   0.75895   0.00000  Uiso   1.00
C888   C     0.21102   0.81100   0.95877   0.00000  Uiso   1.00
C889   C     0.23431   0.79493   0.97893   0.00000  Uiso   1.00
C890   C     0.28111   0.84043   0.74118   0.00000  Uiso   1.00
C891   C     0.22249   0.79965   0.51979   0.00000  Uiso   1.00
C892   C     0.18611   0.82060   0.54122   0.00000  Uiso   1.00
C893   C     0.24704   0.78389   0.53944   0.00000  Uiso   1.00
C894   C     0.23576   0.78851   0.58016   0.00000  Uiso   1.00
C895   C     0.17086   0.81835   0.58240   0.00000  Uiso   1.00
C896   C     0.32724   0.84386   0.73759   0.00000  Uiso   1.00
C897   C     0.00724   0.82450   0.76174   0.00000  Uiso   1.00
C898   C     0.11157   0.89526   0.91951   0.00000  Uiso   1.00
C899   C     0.18097   0.98886   0.73803   0.00000  Uiso   1.00
C900   C     0.15157   0.67874   0.76200   0.00000  Uiso   1.00
C901   C     0.15598   0.72281   0.75883   0.00000  Uiso   1.00
C902   C     0.17688   0.94436   0.74132   0.00000  Uiso   1.00
C903   C     0.18815   0.81220   0.64407   0.00000  Uiso   1.00
C904   C     0.14548   0.85447   0.85608   0.00000  Uiso   1.00
C905   C     0.13790   0.86450   0.89870   0.00000  Uiso   1.00
C906   C     0.19748   0.80491   0.60159   0.00000  Uiso   1.00
C907   C     0.10600   0.90523   0.95964   0.00000  Uiso   1.00
C908   C     0.15835   0.84372   0.91850   0.00000  Uiso   1.00
C909   C     0.15453   0.85431   0.95869   0.00000  Uiso   1.00
C910   C     0.12719   0.88503   0.97937   0.00000  Uiso   1.00
C911   C     0.17703   0.83523   0.97888   0.00000  Uiso   1.00
C912   C     0.16703   0.84284   0.52046   0.00000  Uiso   1.00
C913   C     0.14214   0.87563   0.53943   0.00000  Uiso   1.00
C914   C     0.12222   0.89609   0.51931   0.00000  Uiso   1.00
Cl915  Cl    0.03075   0.87364   0.70160   0.00000  Uiso   1.00
H916   H     0.10306   0.92090   0.53507   0.00000  Uiso   1.00
H917   H     0.17647   0.81874   0.90205   0.00000  Uiso   1.00
H918   H     0.13989   0.88766   0.56950   0.00000  Uiso   1.00
H919   H     0.22252   0.80637   0.92721   0.00000  Uiso   1.00
H920   H     0.27572   0.76916   0.52329   0.00000  Uiso   1.00
H921   H     0.31799   0.80621   0.78385   0.00000  Uiso   1.00
H922   H     0.20815   0.66953   0.71596   0.00000  Uiso   1.00
H923   H     0.12401   0.99882   0.78413   0.00000  Uiso   1.00
H924   H     0.25633   0.77829   0.59506   0.00000  Uiso   1.00
H925   H     0.26164   0.77841   0.96238   0.00000  Uiso   1.00
H926   H     0.08542   0.92905   0.97521   0.00000  Uiso   1.00
H927   H     0.09538   0.91171   0.90479   0.00000  Uiso   1.00
O928   O     0.16667   0.83333   0.75000   0.00000  Uiso   1.00
O929   O     0.15693   0.79060   0.66625   0.00000  Uiso   1.00
O930   O     0.12687   0.87313   0.83749   0.00000  Uiso   1.00
O931   O     0.21088   0.84159   0.65877   0.00000  Uiso   1.00
O932   O     0.17198   0.82802   0.83749   0.00000  Uiso   1.00
O933   O     0.17849   0.74768   0.77821   0.00000  Uiso   1.00
O934   O     0.14581   0.92803   0.76767   0.00000  Uiso   1.00
O935   O     0.07452   0.79917   0.73607   0.00000  Uiso   1.00
O936   O     0.26785   0.85845   0.71806   0.00000  Uiso   1.00
O937   O     0.06990   0.85627   0.77820   0.00000  Uiso   1.00
O938   O     0.25440   0.81944   0.76768   0.00000  Uiso   1.00
O939   O     0.13800   0.73570   0.73607   0.00000  Uiso   1.00
O940   O     0.20437   0.92193   0.71806   0.00000  Uiso   1.00
Zn941  Zn    0.19244   0.80756   0.78278   0.00000  Uiso   1.00
Zn942  Zn    0.13459   0.79044   0.72258   0.00000  Uiso   1.00
Zn943  Zn    0.21166   0.86331   0.71188   0.00000  Uiso   1.00
Zn944  Zn    0.12798   0.87202   0.78277   0.00000  Uiso   1.00
Br945  Br    0.44470   0.82417   0.61210   0.00000  Uiso   1.00
C946   C     0.38580   0.82644   0.75895   0.00000  Uiso   1.00
C947   C     0.54435   0.81100   0.95877   0.00000  Uiso   1.00
C948   C     0.56764   0.79493   0.97893   0.00000  Uiso   1.00
C949   C     0.61444   0.84043   0.74118   0.00000  Uiso   1.00
C950   C     0.55582   0.79965   0.51979   0.00000  Uiso   1.00
C951   C     0.51945   0.82060   0.54122   0.00000  Uiso   1.00
C952   C     0.58037   0.78389   0.53944   0.00000  Uiso   1.00
C953   C     0.56910   0.78851   0.58016   0.00000  Uiso   1.00
C954   C     0.50419   0.81835   0.58240   0.00000  Uiso   1.00
C955   C     0.66057   0.84386   0.73759   0.00000  Uiso   1.00
C956   C     0.34058   0.82450   0.76174   0.00000  Uiso   1.00
C957   C     0.44490   0.89526   0.91951   0.00000  Uiso   1.00
C958   C     0.51430   0.98886   0.73803   0.00000  Uiso   1.00
C959   C     0.48491   0.67874   0.76200   0.00000  Uiso   1.00
C960   C     0.48931   0.72281   0.75883   0.00000  Uiso   1.00
C961   C     0.51022   0.94436   0.74132   0.00000  Uiso   1.00
C962   C     0.52149   0.81220   0.64407   0.00000  Uiso   1.00
C963   C     0.47882   0.85447   0.85608   0.00000  Uiso   1.00
C964   C     0.47123   0.86450   0.89870   0.00000  Uiso   1.00
C965   C     0.53081   0.80491   0.60159   0.00000  Uiso   1.00
C966   C     0.43933   0.90523   0.95964   0.00000  Uiso   1.00
C967   C     0.49168   0.84372   0.91850   0.00000  Uiso   1.00
C968   C     0.48787   0.85431   0.95869   0.00000  Uiso   1.00
C969   C     0.46053   0.88503   0.97937   0.00000  Uiso   1.00
C970   C     0.51036   0.83523   0.97888   0.00000  Uiso   1.00
C971   C     0.50036   0.84284   0.52046   0.00000  Uiso   1.00
C972   C     0.47547   0.87563   0.53943   0.00000  Uiso   1.00
C973   C     0.45556   0.89609   0.51931   0.00000  Uiso   1.00
Cl974  Cl    0.36409   0.87364   0.70160   0.00000  Uiso   1.00
H975   H     0.43639   0.92090   0.53507   0.00000  Uiso   1.00
H976   H     0.50980   0.81874   0.90205   0.00000  Uiso   1.00
H977   H     0.47323   0.88766   0.56950   0.00000  Uiso   1.00
H978   H     0.55586   0.80637   0.92721   0.00000  Uiso   1.00
H979   H     0.60905   0.76916   0.52329   0.00000  Uiso   1.00
H980   H     0.65132   0.80621   0.78385   0.00000  Uiso   1.00
H981   H     0.54148   0.66953   0.71596   0.00000  Uiso   1.00
H982   H     0.45735   0.99882   0.78413   0.00000  Uiso   1.00
H983   H     0.58966   0.77829   0.59506   0.00000  Uiso   1.00
H984   H     0.59497   0.77841   0.96238   0.00000  Uiso   1.00
H985   H     0.41875   0.92905   0.97521   0.00000  Uiso   1.00
H986   H     0.42871   0.91171   0.90479   0.00000  Uiso   1.00
O987   O     0.50000   0.83333   0.75000   0.00000  Uiso   1.00
O988   O     0.49027   0.79060   0.66625   0.00000  Uiso   1.00
O989   O     0.46020   0.87313   0.83749   0.00000  Uiso   1.00
O990   O     0.54421   0.84159   0.65877   0.00000  Uiso   1.00
O991   O     0.50532   0.82802   0.83749   0.00000  Uiso   1.00
O992   O     0.51182   0.74768   0.77821   0.00000  Uiso   1.00
O993   O     0.47914   0.92803   0.76767   0.00000  Uiso   1.00
O994   O     0.40785   0.79917   0.73607   0.00000  Uiso   1.00
O995   O     0.60119   0.85845   0.71806   0.00000  Uiso   1.00
O996   O     0.40323   0.85627   0.77820   0.00000  Uiso   1.00
O997   O     0.58773   0.81944   0.76768   0.00000  Uiso   1.00
O998   O     0.47133   0.73570   0.73607   0.00000  Uiso   1.00
O999   O     0.53771   0.92193   0.71806   0.00000  Uiso   1.00
Zn1000 Zn    0.52577   0.80756   0.78278   0.00000  Uiso   1.00
Zn1001 Zn    0.46792   0.79044   0.72258   0.00000  Uiso   1.00
Zn1002 Zn    0.54500   0.86331   0.71188   0.00000  Uiso   1.00
Zn1003 Zn    0.46131   0.87202   0.78277   0.00000  Uiso   1.00
Br1004 Br    0.77803   0.82417   0.61210   0.00000  Uiso   1.00
C1005  C     0.71913   0.82644   0.75895   0.00000  Uiso   1.00
C1006  C     0.87768   0.81100   0.95877   0.00000  Uiso   1.00
C1007  C     0.90097   0.79493   0.97893   0.00000  Uiso   1.00
C1008  C     0.94778   0.84043   0.74118   0.00000  Uiso   1.00
C1009  C     0.88915   0.79965   0.51979   0.00000  Uiso   1.00
C1010  C     0.85278   0.82060   0.54122   0.00000  Uiso   1.00
C1011  C     0.91371   0.78389   0.53944   0.00000  Uiso   1.00
C1012  C     0.90243   0.78851   0.58016   0.00000  Uiso   1.00
C1013  C     0.83752   0.81835   0.58240   0.00000  Uiso   1.00
C1014  C     0.99391   0.84386   0.73759   0.00000  Uiso   1.00
C1015  C     0.67391   0.82450   0.76174   0.00000  Uiso   1.00
C1016  C     0.77823   0.89526   0.91951   0.00000  Uiso   1.00
C1017  C     0.84764   0.98886   0.73803   0.00000  Uiso   1.00
C1018  C     0.81824   0.67874   0.76200   0.00000  Uiso   1.00
C1019  C     0.82264   0.72281   0.75883   0.00000  Uiso   1.00
C1020  C     0.84355   0.94436   0.74132   0.00000  Uiso   1.00
C1021  C     0.85482   0.81220   0.64407   0.00000  Uiso   1.00
C1022  C     0.81215   0.85447   0.85608   0.00000  Uiso   1.00
C1023  C     0.80457   0.86450   0.89870   0.00000  Uiso   1.00
C1024  C     0.86414   0.80491   0.60159   0.00000  Uiso   1.00
C1025  C     0.77267   0.90523   0.95964   0.00000  Uiso   1.00
C1026  C     0.82502   0.84372   0.91850   0.00000  Uiso   1.00
C1027  C     0.82120   0.85431   0.95869   0.00000  Uiso   1.00
C1028  C     0.79386   0.88503   0.97937   0.00000  Uiso   1.00
C1029  C     0.84369   0.83523   0.97888   0.00000  Uiso   1.00
C1030  C     0.83370   0.84284   0.52046   0.00000  Uiso   1.00
C1031  C     0.80881   0.87563   0.53943   0.00000  Uiso   1.00
C1032  C     0.78889   0.89609   0.51931   0.00000  Uiso   1.00
Cl1033 Cl    0.69742   0.87364   0.70160   0.00000  Uiso   1.00
H1034  H     0.76973   0.92090   0.53507   0.00000  Uiso   1.00
H1035  H     0.84314   0.81874   0.90205   0.00000  Uiso   1.00
H1036  H     0.80656   0.88766   0.56950   0.00000  Uiso   1.00
H1037  H     0.88919   0.80637   0.92721   0.00000  Uiso   1.00
H1038  H     0.94238   0.76916   0.52329   0.00000  Uiso   1.00
H1039  H     0.98466   0.80621   0.78385   0.00000  Uiso   1.00
H1040  H     0.87482   0.66953   0.71596   0.00000  Uiso   1.00
H1041  H     0.79068   0.99882   0.78413   0.00000  Uiso   1.00
H1042  H     0.92299   0.77829   0.59506   0.00000  Uiso   1.00
H1043  H     0.92830   0.77841   0.96238   0.00000  Uiso   1.00
H1044  H     0.75209   0.92905   0.97521   0.00000  Uiso   1.00
H1045  H     0.76205   0.91171   0.90479   0.00000  Uiso   1.00
O1046  O     0.83333   0.83333   0.75000   0.00000  Uiso   1.00
O1047  O     0.82360   0.79060   0.66625   0.00000  Uiso   1.00
O1048  O     0.79354   0.87313   0.83749   0.00000  Uiso   1.00
O1049  O     0.87755   0.84159   0.65877   0.00000  Uiso   1.00
O1050  O     0.83865   0.82802   0.83749   0.00000  Uiso   1.00
O1051  O     0.84515   0.74768   0.77821   0.00000  Uiso   1.00
O1052  O     0.81247   0.92803   0.76767   0.00000  Uiso   1.00
O1053  O     0.74119   0.79917   0.73607   0.00000  Uiso   1.00
O1054  O     0.93452   0.85845   0.71806   0.00000  Uiso   1.00
O1055  O     0.73656   0.85627   0.77820   0.00000  Uiso   1.00
O1056  O     0.92106   0.81944   0.76768   0.00000  Uiso   1.00
O1057  O     0.80467   0.73570   0.73607   0.00000  Uiso   1.00
O1058  O     0.87104   0.92193   0.71806   0.00000  Uiso   1.00
Zn1059 Zn    0.85910   0.80756   0.78278   0.00000  Uiso   1.00
Zn1060 Zn    0.80125   0.79044   0.72258   0.00000  Uiso   1.00
Zn1061 Zn    0.87833   0.86331   0.71188   0.00000  Uiso   1.00
Zn1062 Zn    0.79465   0.87202   0.78277   0.00000  Uiso   1.00
loop_
_geom_bond_atom_site_label_1
_geom_bond_atom_site_label_2
_geom_bond_distance
_geom_bond_site_symmetry_2
_ccdc_geom_bond_type
Br1    C10     1.939   .     S
C2     C12     1.440   .     S
C2     O52     1.271   .     A
C2     O50     1.270   .     A
C3     H34     1.078   .     S
C3     C4      1.387   .     A
C3     C26     1.414   .     A
C4     H40     1.084   .     S
C4     C537    1.392   .     S
C5     O53     1.281   .     A
C5     C11     1.459   .     S
C5     O51     1.282   .     A
C6     C7      1.420   .     A
C6     C8      1.399   .     A
C6     C535    1.392   1_554 S
C7     C10     1.420   .     A
C7     C27     1.423   .     A
C8     C9      1.388   .     A
C8     H35     1.084   .     S
C9     C21     1.396   .     A
C9     H39     1.084   .     S
C10    C21     1.403   .     A
C11    C71     1.339   .     S
C11    Cl89    1.769   .     S
C12    C129    1.339   1_455 S
C12    H154    1.086   1_455 S
C13    H42     1.083   .     S
C13    C22     1.393   .     A
C13    C20     1.401   .     A
C14    C17     1.452   .     S
C14    C192    1.332   .     S
C14    H214    1.088   .     S
C15    C16     1.436   .     S
C15    C368    1.332   1_545 S
C15    H392    1.086   1_545 S
C16    O48     1.280   .     A
C16    O54     1.280   .     A
C17    O55     1.270   .     A
C17    O49     1.270   .     A
C18    O44     1.274   .     A
C18    C21     1.454   .     S
C18    O46     1.271   .     A
C19    O45     1.283   .     A
C19    C20     1.470   .     S
C19    O47     1.285   .     A
C20    C23     1.399   .     A
C22    H41     1.084   .     S
C22    C25     1.402   .     A
C23    C24     1.406   .     A
C23    H32     1.077   .     S
C24    C26     1.423   .     A
C24    C25     1.418   .     A
C25    C560    1.393   .     S
C26    C558    1.422   .     S
C27    C28     1.410   .     A
C27    C557    1.422   1_554 S
C28    H33     1.079   .     S
C28    C29     1.388   .     A
C29    H31     1.084   .     S
C29    C556    1.393   1_554 S
Cl30   C129    1.769   1_455 S
H36    C71     1.086   .     S
H37    C368    1.088   1_545 S
H38    C192    1.086   .     S
O43    Zn59    1.933   .     S
O43    Zn57    1.946   .     S
O43    Zn56    1.965   .     S
O43    Zn58    1.931   .     S
O44    Zn57    1.934   .     S
O45    Zn59    1.947   .     S
O46    Zn58    1.941   .     S
O47    Zn56    1.930   .     S
O48    Zn56    1.927   .     S
O49    Zn59    1.929   .     S
O50    Zn57    1.927   .     S
O51    Zn58    1.940   .     S
O52    Zn59    1.934   .     S
O53    Zn56    1.922   .     S
O54    Zn57    1.937   .     S
O55    Zn58    1.931   .     S
Br60   C69     1.939   .     S
C61    C71     1.440   .     S
C61    O111    1.271   .     A
C61    O109    1.270   .     A
C62    H93     1.078   .     S
C62    C63     1.387   .     A
C62    C85     1.414   .     A
C63    H99     1.084   .     S
C63    C596    1.392   .     S
C64    O112    1.281   .     A
C64    C70     1.459   .     S
C64    O110    1.282   .     A
C65    C66     1.420   .     A
C65    C67     1.399   .     A
C65    C594    1.392   1_554 S
C66    C69     1.420   .     A
C66    C86     1.423   .     A
C67    C68     1.388   .     A
C67    H94     1.084   .     S
C68    C80     1.396   .     A
C68    H98     1.084   .     S
C69    C80     1.403   .     A
C70    C130    1.339   .     S
C70    Cl148   1.769   .     S
C72    H101    1.083   .     S
C72    C81     1.393   .     A
C72    C79     1.401   .     A
C73    C76     1.452   .     S
C73    C251    1.332   .     S
C73    H273    1.088   .     S
C74    C75     1.436   .     S
C74    C427    1.332   1_545 S
C74    H451    1.086   1_545 S
C75    O107    1.280   .     A
C75    O113    1.280   .     A
C76    O114    1.270   .     A
C76    O108    1.270   .     A
C77    O103    1.274   .     A
C77    C80     1.454   .     S
C77    O105    1.271   .     A
C78    O104    1.283   .     A
C78    C79     1.470   .     S
C78    O106    1.285   .     A
C79    C82     1.399   .     A
C81    H100    1.084   .     S
C81    C84     1.402   .     A
C82    C83     1.406   .     A
C82    H91     1.077   .     S
C83    C85     1.423   .     A
C83    C84     1.418   .     A
C84    C619    1.393   .     S
C85    C617    1.422   .     S
C86    C87     1.410   .     A
C86    C616    1.422   1_554 S
C87    H92     1.079   .     S
C87    C88     1.388   .     A
C88    H90     1.084   .     S
C88    C615    1.393   1_554 S
H95    C130    1.086   .     S
H96    C427    1.088   1_545 S
H97    C251    1.086   .     S
O102   Zn118   1.933   .     S
O102   Zn116   1.946   .     S
O102   Zn115   1.965   .     S
O102   Zn117   1.931   .     S
O103   Zn116   1.934   .     S
O104   Zn118   1.947   .     S
O105   Zn117   1.941   .     S
O106   Zn115   1.930   .     S
O107   Zn115   1.927   .     S
O108   Zn118   1.929   .     S
O109   Zn116   1.927   .     S
O110   Zn117   1.940   .     S
O111   Zn118   1.934   .     S
O112   Zn115   1.922   .     S
O113   Zn116   1.937   .     S
O114   Zn117   1.931   .     S
Br119  C128    1.939   .     S
C120   C130    1.440   .     S
C120   O170    1.271   .     A
C120   O168    1.270   .     A
C121   H152    1.078   .     S
C121   C122    1.387   .     A
C121   C144    1.414   .     A
C122   H158    1.084   .     S
C122   C655    1.392   .     S
C123   O171    1.281   .     A
C123   C129    1.459   .     S
C123   O169    1.282   .     A
C124   C125    1.420   .     A
C124   C126    1.399   .     A
C124   C653    1.392   1_554 S
C125   C128    1.420   .     A
C125   C145    1.423   .     A
C126   C127    1.388   .     A
C126   H153    1.084   .     S
C127   C139    1.396   .     A
C127   H157    1.084   .     S
C128   C139    1.403   .     A
C129   C12     1.339   1_655 S
C129   Cl30    1.769   1_655 S
C131   H160    1.083   .     S
C131   C140    1.393   .     A
C131   C138    1.401   .     A
C132   C135    1.452   .     S
C132   C310    1.332   .     S
C132   H332    1.088   .     S
C133   C134    1.436   .     S
C133   C486    1.332   1_545 S
C133   H510    1.086   1_545 S
C134   O166    1.280   .     A
C134   O172    1.280   .     A
C135   O173    1.270   .     A
C135   O167    1.270   .     A
C136   O162    1.274   .     A
C136   C139    1.454   .     S
C136   O164    1.271   .     A
C137   O163    1.283   .     A
C137   C138    1.470   .     S
C137   O165    1.285   .     A
C138   C141    1.399   .     A
C140   H159    1.084   .     S
C140   C143    1.402   .     A
C141   C142    1.406   .     A
C141   H150    1.077   .     S
C142   C144    1.423   .     A
C142   C143    1.418   .     A
C143   C678    1.393   .     S
C144   C676    1.422   .     S
C145   C146    1.410   .     A
C145   C675    1.422   1_554 S
C146   H151    1.079   .     S
C146   C147    1.388   .     A
C147   H149    1.084   .     S
C147   C674    1.393   1_554 S
H154   C12     1.086   1_655 S
H155   C486    1.088   1_545 S
H156   C310    1.086   .     S
O161   Zn177   1.933   .     S
O161   Zn175   1.946   .     S
O161   Zn174   1.965   .     S
O161   Zn176   1.931   .     S
O162   Zn175   1.934   .     S
O163   Zn177   1.947   .     S
O164   Zn176   1.941   .     S
O165   Zn174   1.930   .     S
O166   Zn174   1.927   .     S
O167   Zn177   1.929   .     S
O168   Zn175   1.927   .     S
O169   Zn176   1.940   .     S
O170   Zn177   1.934   .     S
O171   Zn174   1.922   .     S
O172   Zn175   1.937   .     S
O173   Zn176   1.931   .     S
Br178  C187    1.939   .     S
C179   C189    1.440   .     S
C179   O229    1.271   .     A
C179   O227    1.270   .     A
C180   H211    1.078   .     S
C180   C181    1.387   .     A
C180   C203    1.414   .     A
C181   H217    1.084   .     S
C181   C714    1.392   .     S
C182   O230    1.281   .     A
C182   C188    1.459   .     S
C182   O228    1.282   .     A
C183   C184    1.420   .     A
C183   C185    1.399   .     A
C183   C712    1.392   1_554 S
C184   C187    1.420   .     A
C184   C204    1.423   .     A
C185   C186    1.388   .     A
C185   H212    1.084   .     S
C186   C198    1.396   .     A
C186   H216    1.084   .     S
C187   C198    1.403   .     A
C188   C248    1.339   .     S
C188   Cl266   1.769   .     S
C189   C306    1.339   1_455 S
C189   H331    1.086   1_455 S
C190   H219    1.083   .     S
C190   C199    1.393   .     A
C190   C197    1.401   .     A
C191   C194    1.452   .     S
C191   C369    1.332   .     S
C191   H391    1.088   .     S
C192   C193    1.436   .     S
C193   O225    1.280   .     A
C193   O231    1.280   .     A
C194   O232    1.270   .     A
C194   O226    1.270   .     A
C195   O221    1.274   .     A
C195   C198    1.454   .     S
C195   O223    1.271   .     A
C196   O222    1.283   .     A
C196   C197    1.470   .     S
C196   O224    1.285   .     A
C197   C200    1.399   .     A
C199   H218    1.084   .     S
C199   C202    1.402   .     A
C200   C201    1.406   .     A
C200   H209    1.077   .     S
C201   C203    1.423   .     A
C201   C202    1.418   .     A
C202   C737    1.393   .     S
C203   C735    1.422   .     S
C204   C205    1.410   .     A
C204   C734    1.422   1_554 S
C205   H210    1.079   .     S
C205   C206    1.388   .     A
C206   H208    1.084   .     S
C206   C733    1.393   1_554 S
Cl207  C306    1.769   1_455 S
H213   C248    1.086   .     S
H215   C369    1.086   .     S
O220   Zn236   1.933   .     S
O220   Zn234   1.946   .     S
O220   Zn233   1.965   .     S
O220   Zn235   1.931   .     S
O221   Zn234   1.934   .     S
O222   Zn236   1.947   .     S
O223   Zn235   1.941   .     S
O224   Zn233   1.930   .     S
O225   Zn233   1.927   .     S
O226   Zn236   1.929   .     S
O227   Zn234   1.927   .     S
O228   Zn235   1.940   .     S
O229   Zn236   1.934   .     S
O230   Zn233   1.922   .     S
O231   Zn234   1.937   .     S
O232   Zn235   1.931   .     S
Br237  C246    1.939   .     S
C238   C248    1.440   .     S
C238   O288    1.271   .     A
C238   O286    1.270   .     A
C239   H270    1.078   .     S
C239   C240    1.387   .     A
C239   C262    1.414   .     A
C240   H276    1.084   .     S
C240   C773    1.392   .     S
C241   O289    1.281   .     A
C241   C247    1.459   .     S
C241   O287    1.282   .     A
C242   C243    1.420   .     A
C242   C244    1.399   .     A
C242   C771    1.392   1_554 S
C243   C246    1.420   .     A
C243   C263    1.423   .     A
C244   C245    1.388   .     A
C244   H271    1.084   .     S
C245   C257    1.396   .     A
C245   H275    1.084   .     S
C246   C257    1.403   .     A
C247   C307    1.339   .     S
C247   Cl325   1.769   .     S
C249   H278    1.083   .     S
C249   C258    1.393   .     A
C249   C256    1.401   .     A
C250   C253    1.452   .     S
C250   C428    1.332   .     S
C250   H450    1.088   .     S
C251   C252    1.436   .     S
C252   O284    1.280   .     A
C252   O290    1.280   .     A
C253   O291    1.270   .     A
C253   O285    1.270   .     A
C254   O280    1.274   .     A
C254   C257    1.454   .     S
C254   O282    1.271   .     A
C255   O281    1.283   .     A
C255   C256    1.470   .     S
C255   O283    1.285   .     A
C256   C259    1.399   .     A
C258   H277    1.084   .     S
C258   C261    1.402   .     A
C259   C260    1.406   .     A
C259   H268    1.077   .     S
C260   C262    1.423   .     A
C260   C261    1.418   .     A
C261   C796    1.393   .     S
C262   C794    1.422   .     S
C263   C264    1.410   .     A
C263   C793    1.422   1_554 S
C264   H269    1.079   .     S
C264   C265    1.388   .     A
C265   H267    1.084   .     S
C265   C792    1.393   1_554 S
H272   C307    1.086   .     S
H274   C428    1.086   .     S
O279   Zn295   1.933   .     S
O279   Zn293   1.946   .     S
O279   Zn292   1.965   .     S
O279   Zn294   1.931   .     S
O280   Zn293   1.934   .     S
O281   Zn295   1.947   .     S
O282   Zn294   1.941   .     S
O283   Zn292   1.930   .     S
O284   Zn292   1.927   .     S
O285   Zn295   1.929   .     S
O286   Zn293   1.927   .     S
O287   Zn294   1.940   .     S
O288   Zn295   1.934   .     S
O289   Zn292   1.922   .     S
O290   Zn293   1.937   .     S
O291   Zn294   1.931   .     S
Br296  C305    1.939   .     S
C297   C307    1.440   .     S
C297   O347    1.271   .     A
C297   O345    1.270   .     A
C298   H329    1.078   .     S
C298   C299    1.387   .     A
C298   C321    1.414   .     A
C299   H335    1.084   .     S
C299   C832    1.392   .     S
C300   O348    1.281   .     A
C300   C306    1.459   .     S
C300   O346    1.282   .     A
C301   C302    1.420   .     A
C301   C303    1.399   .     A
C301   C830    1.392   1_554 S
C302   C305    1.420   .     A
C302   C322    1.423   .     A
C303   C304    1.388   .     A
C303   H330    1.084   .     S
C304   C316    1.396   .     A
C304   H334    1.084   .     S
C305   C316    1.403   .     A
C306   C189    1.339   1_655 S
C306   Cl207   1.769   1_655 S
C308   H337    1.083   .     S
C308   C317    1.393   .     A
C308   C315    1.401   .     A
C309   C312    1.452   .     S
C309   C487    1.332   .     S
C309   H509    1.088   .     S
C310   C311    1.436   .     S
C311   O343    1.280   .     A
C311   O349    1.280   .     A
C312   O350    1.270   .     A
C312   O344    1.270   .     A
C313   O339    1.274   .     A
C313   C316    1.454   .     S
C313   O341    1.271   .     A
C314   O340    1.283   .     A
C314   C315    1.470   .     S
C314   O342    1.285   .     A
C315   C318    1.399   .     A
C317   H336    1.084   .     S
C317   C320    1.402   .     A
C318   C319    1.406   .     A
C318   H327    1.077   .     S
C319   C321    1.423   .     A
C319   C320    1.418   .     A
C320   C855    1.393   .     S
C321   C853    1.422   .     S
C322   C323    1.410   .     A
C322   C852    1.422   1_554 S
C323   H328    1.079   .     S
C323   C324    1.388   .     A
C324   H326    1.084   .     S
C324   C851    1.393   1_554 S
H331   C189    1.086   1_655 S
H333   C487    1.086   .     S
O338   Zn354   1.933   .     S
O338   Zn352   1.946   .     S
O338   Zn351   1.965   .     S
O338   Zn353   1.931   .     S
O339   Zn352   1.934   .     S
O340   Zn354   1.947   .     S
O341   Zn353   1.941   .     S
O342   Zn351   1.930   .     S
O343   Zn351   1.927   .     S
O344   Zn354   1.929   .     S
O345   Zn352   1.927   .     S
O346   Zn353   1.940   .     S
O347   Zn354   1.934   .     S
O348   Zn351   1.922   .     S
O349   Zn352   1.937   .     S
O350   Zn353   1.931   .     S
Br355  C364    1.939   .     S
C356   C366    1.440   .     S
C356   O406    1.271   .     A
C356   O404    1.270   .     A
C357   H388    1.078   .     S
C357   C358    1.387   .     A
C357   C380    1.414   .     A
C358   H394    1.084   .     S
C358   C891    1.392   .     S
C359   O407    1.281   .     A
C359   C365    1.459   .     S
C359   O405    1.282   .     A
C360   C361    1.420   .     A
C360   C362    1.399   .     A
C360   C889    1.392   1_554 S
C361   C364    1.420   .     A
C361   C381    1.423   .     A
C362   C363    1.388   .     A
C362   H389    1.084   .     S
C363   C375    1.396   .     A
C363   H393    1.084   .     S
C364   C375    1.403   .     A
C365   C425    1.339   .     S
C365   Cl443   1.769   .     S
C366   C483    1.339   1_455 S
C366   H508    1.086   1_455 S
C367   H396    1.083   .     S
C367   C376    1.393   .     A
C367   C374    1.401   .     A
C368   C371    1.452   .     S
C368   C15     1.332   1_565 S
C368   H37     1.088   1_565 S
C369   C370    1.436   .     S
C370   O402    1.280   .     A
C370   O408    1.280   .     A
C371   O409    1.270   .     A
C371   O403    1.270   .     A
C372   O398    1.274   .     A
C372   C375    1.454   .     S
C372   O400    1.271   .     A
C373   O399    1.283   .     A
C373   C374    1.470   .     S
C373   O401    1.285   .     A
C374   C377    1.399   .     A
C376   H395    1.084   .     S
C376   C379    1.402   .     A
C377   C378    1.406   .     A
C377   H386    1.077   .     S
C378   C380    1.423   .     A
C378   C379    1.418   .     A
C379   C914    1.393   .     S
C380   C912    1.422   .     S
C381   C382    1.410   .     A
C381   C911    1.422   1_554 S
C382   H387    1.079   .     S
C382   C383    1.388   .     A
C383   H385    1.084   .     S
C383   C910    1.393   1_554 S
Cl384  C483    1.769   1_455 S
H390   C425    1.086   .     S
H392   C15     1.086   1_565 S
O397   Zn413   1.933   .     S
O397   Zn411   1.946   .     S
O397   Zn410   1.965   .     S
O397   Zn412   1.931   .     S
O398   Zn411   1.934   .     S
O399   Zn413   1.947   .     S
O400   Zn412   1.941   .     S
O401   Zn410   1.930   .     S
O402   Zn410   1.927   .     S
O403   Zn413   1.929   .     S
O404   Zn411   1.927   .     S
O405   Zn412   1.940   .     S
O406   Zn413   1.934   .     S
O407   Zn410   1.922   .     S
O408   Zn411   1.937   .     S
O409   Zn412   1.931   .     S
Br414  C423    1.939   .     S
C415   C425    1.440   .     S
C415   O465    1.271   .     A
C415   O463    1.270   .     A
C416   H447    1.078   .     S
C416   C417    1.387   .     A
C416   C439    1.414   .     A
C417   H453    1.084   .     S
C417   C950    1.392   .     S
C418   O466    1.281   .     A
C418   C424    1.459   .     S
C418   O464    1.282   .     A
C419   C420    1.420   .     A
C419   C421    1.399   .     A
C419   C948    1.392   1_554 S
C420   C423    1.420   .     A
C420   C440    1.423   .     A
C421   C422    1.388   .     A
C421   H448    1.084   .     S
C422   C434    1.396   .     A
C422   H452    1.084   .     S
C423   C434    1.403   .     A
C424   C484    1.339   .     S
C424   Cl502   1.769   .     S
C426   H455    1.083   .     S
C426   C435    1.393   .     A
C426   C433    1.401   .     A
C427   C430    1.452   .     S
C427   C74     1.332   1_565 S
C427   H96     1.088   1_565 S
C428   C429    1.436   .     S
C429   O461    1.280   .     A
C429   O467    1.280   .     A
C430   O468    1.270   .     A
C430   O462    1.270   .     A
C431   O457    1.274   .     A
C431   C434    1.454   .     S
C431   O459    1.271   .     A
C432   O458    1.283   .     A
C432   C433    1.470   .     S
C432   O460    1.285   .     A
C433   C436    1.399   .     A
C435   H454    1.084   .     S
C435   C438    1.402   .     A
C436   C437    1.406   .     A
C436   H445    1.077   .     S
C437   C439    1.423   .     A
C437   C438    1.418   .     A
C438   C973    1.393   .     S
C439   C971    1.422   .     S
C440   C441    1.410   .     A
C440   C970    1.422   1_554 S
C441   H446    1.079   .     S
C441   C442    1.388   .     A
C442   H444    1.084   .     S
C442   C969    1.393   1_554 S
H449   C484    1.086   .     S
H451   C74     1.086   1_565 S
O456   Zn472   1.933   .     S
O456   Zn470   1.946   .     S
O456   Zn469   1.965   .     S
O456   Zn471   1.931   .     S
O457   Zn470   1.934   .     S
O458   Zn472   1.947   .     S
O459   Zn471   1.941   .     S
O460   Zn469   1.930   .     S
O461   Zn469   1.927   .     S
O462   Zn472   1.929   .     S
O463   Zn470   1.927   .     S
O464   Zn471   1.940   .     S
O465   Zn472   1.934   .     S
O466   Zn469   1.922   .     S
O467   Zn470   1.937   .     S
O468   Zn471   1.931   .     S
Br473  C482    1.939   .     S
C474   C484    1.440   .     S
C474   O524    1.271   .     A
C474   O522    1.270   .     A
C475   H506    1.078   .     S
C475   C476    1.387   .     A
C475   C498    1.414   .     A
C476   H512    1.084   .     S
C476   C1009   1.392   .     S
C477   O525    1.281   .     A
C477   C483    1.459   .     S
C477   O523    1.282   .     A
C478   C479    1.420   .     A
C478   C480    1.399   .     A
C478   C1007   1.392   1_554 S
C479   C482    1.420   .     A
C479   C499    1.423   .     A
C480   C481    1.388   .     A
C480   H507    1.084   .     S
C481   C493    1.396   .     A
C481   H511    1.084   .     S
C482   C493    1.403   .     A
C483   C366    1.339   1_655 S
C483   Cl384   1.769   1_655 S
C485   H514    1.083   .     S
C485   C494    1.393   .     A
C485   C492    1.401   .     A
C486   C489    1.452   .     S
C486   C133    1.332   1_565 S
C486   H155    1.088   1_565 S
C487   C488    1.436   .     S
C488   O520    1.280   .     A
C488   O526    1.280   .     A
C489   O527    1.270   .     A
C489   O521    1.270   .     A
C490   O516    1.274   .     A
C490   C493    1.454   .     S
C490   O518    1.271   .     A
C491   O517    1.283   .     A
C491   C492    1.470   .     S
C491   O519    1.285   .     A
C492   C495    1.399   .     A
C494   H513    1.084   .     S
C494   C497    1.402   .     A
C495   C496    1.406   .     A
C495   H504    1.077   .     S
C496   C498    1.423   .     A
C496   C497    1.418   .     A
C497   C1032   1.393   .     S
C498   C1030   1.422   .     S
C499   C500    1.410   .     A
C499   C1029   1.422   1_554 S
C500   H505    1.079   .     S
C500   C501    1.388   .     A
C501   H503    1.084   .     S
C501   C1028   1.393   1_554 S
H508   C366    1.086   1_655 S
H510   C133    1.086   1_565 S
O515   Zn531   1.933   .     S
O515   Zn529   1.946   .     S
O515   Zn528   1.965   .     S
O515   Zn530   1.931   .     S
O516   Zn529   1.934   .     S
O517   Zn531   1.947   .     S
O518   Zn530   1.941   .     S
O519   Zn528   1.930   .     S
O520   Zn528   1.927   .     S
O521   Zn531   1.929   .     S
O522   Zn529   1.927   .     S
O523   Zn530   1.940   .     S
O524   Zn531   1.934   .     S
O525   Zn528   1.922   .     S
O526   Zn529   1.937   .     S
O527   Zn530   1.931   .     S
Br532  C541    1.939   .     S
C533   C543    1.440   .     S
C533   O583    1.271   .     A
C533   O581    1.270   .     A
C534   H565    1.078   .     S
C534   C535    1.387   .     A
C534   C557    1.414   .     A
C535   H571    1.084   .     S
C535   C6      1.392   1_556 S
C536   O584    1.281   .     A
C536   C542    1.459   .     S
C536   O582    1.282   .     A
C537   C538    1.420   .     A
C537   C539    1.399   .     A
C538   C541    1.420   .     A
C538   C558    1.423   .     A
C539   C540    1.388   .     A
C539   H566    1.084   .     S
C540   C552    1.396   .     A
C540   H570    1.084   .     S
C541   C552    1.403   .     A
C542   C602    1.339   .     S
C542   Cl620   1.769   .     S
C543   C660    1.339   1_455 S
C543   H685    1.086   1_455 S
C544   H573    1.083   .     S
C544   C553    1.393   .     A
C544   C551    1.401   .     A
C545   C548    1.452   .     S
C545   C723    1.332   .     S
C545   H745    1.088   .     S
C546   C547    1.436   .     S
C546   C899    1.332   1_545 S
C546   H923    1.086   1_545 S
C547   O579    1.280   .     A
C547   O585    1.280   .     A
C548   O586    1.270   .     A
C548   O580    1.270   .     A
C549   O575    1.274   .     A
C549   C552    1.454   .     S
C549   O577    1.271   .     A
C550   O576    1.283   .     A
C550   C551    1.470   .     S
C550   O578    1.285   .     A
C551   C554    1.399   .     A
C553   H572    1.084   .     S
C553   C556    1.402   .     A
C554   C555    1.406   .     A
C554   H563    1.077   .     S
C555   C557    1.423   .     A
C555   C556    1.418   .     A
C556   C29     1.393   1_556 S
C557   C27     1.422   1_556 S
C558   C559    1.410   .     A
C559   H564    1.079   .     S
C559   C560    1.388   .     A
C560   H562    1.084   .     S
Cl561  C660    1.769   1_455 S
H567   C602    1.086   .     S
H568   C899    1.088   1_545 S
H569   C723    1.086   .     S
O574   Zn590   1.933   .     S
O574   Zn588   1.946   .     S
O574   Zn587   1.965   .     S
O574   Zn589   1.931   .     S
O575   Zn588   1.934   .     S
O576   Zn590   1.947   .     S
O577   Zn589   1.941   .     S
O578   Zn587   1.930   .     S
O579   Zn587   1.927   .     S
O580   Zn590   1.929   .     S
O581   Zn588   1.927   .     S
O582   Zn589   1.940   .     S
O583   Zn590   1.934   .     S
O584   Zn587   1.922   .     S
O585   Zn588   1.937   .     S
O586   Zn589   1.931   .     S
Br591  C600    1.939   .     S
C592   C602    1.440   .     S
C592   O642    1.271   .     A
C592   O640    1.270   .     A
C593   H624    1.078   .     S
C593   C594    1.387   .     A
C593   C616    1.414   .     A
C594   H630    1.084   .     S
C594   C65     1.392   1_556 S
C595   O643    1.281   .     A
C595   C601    1.459   .     S
C595   O641    1.282   .     A
C596   C597    1.420   .     A
C596   C598    1.399   .     A
C597   C600    1.420   .     A
C597   C617    1.423   .     A
C598   C599    1.388   .     A
C598   H625    1.084   .     S
C599   C611    1.396   .     A
C599   H629    1.084   .     S
C600   C611    1.403   .     A
C601   C661    1.339   .     S
C601   Cl679   1.769   .     S
C603   H632    1.083   .     S
C603   C612    1.393   .     A
C603   C610    1.401   .     A
C604   C607    1.452   .     S
C604   C782    1.332   .     S
C604   H804    1.088   .     S
C605   C606    1.436   .     S
C605   C958    1.332   1_545 S
C605   H982    1.086   1_545 S
C606   O638    1.280   .     A
C606   O644    1.280   .     A
C607   O645    1.270   .     A
C607   O639    1.270   .     A
C608   O634    1.274   .     A
C608   C611    1.454   .     S
C608   O636    1.271   .     A
C609   O635    1.283   .     A
C609   C610    1.470   .     S
C609   O637    1.285   .     A
C610   C613    1.399   .     A
C612   H631    1.084   .     S
C612   C615    1.402   .     A
C613   C614    1.406   .     A
C613   H622    1.077   .     S
C614   C616    1.423   .     A
C614   C615    1.418   .     A
C615   C88     1.393   1_556 S
C616   C86     1.422   1_556 S
C617   C618    1.410   .     A
C618   H623    1.079   .     S
C618   C619    1.388   .     A
C619   H621    1.084   .     S
H626   C661    1.086   .     S
H627   C958    1.088   1_545 S
H628   C782    1.086   .     S
O633   Zn649   1.933   .     S
O633   Zn647   1.946   .     S
O633   Zn646   1.965   .     S
O633   Zn648   1.931   .     S
O634   Zn647   1.934   .     S
O635   Zn649   1.947   .     S
O636   Zn648   1.941   .     S
O637   Zn646   1.930   .     S
O638   Zn646   1.927   .     S
O639   Zn649   1.929   .     S
O640   Zn647   1.927   .     S
O641   Zn648   1.940   .     S
O642   Zn649   1.934   .     S
O643   Zn646   1.922   .     S
O644   Zn647   1.937   .     S
O645   Zn648   1.931   .     S
Br650  C659    1.939   .     S
C651   C661    1.440   .     S
C651   O701    1.271   .     A
C651   O699    1.270   .     A
C652   H683    1.078   .     S
C652   C653    1.387   .     A
C652   C675    1.414   .     A
C653   H689    1.084   .     S
C653   C124    1.392   1_556 S
C654   O702    1.281   .     A
C654   C660    1.459   .     S
C654   O700    1.282   .     A
C655   C656    1.420   .     A
C655   C657    1.399   .     A
C656   C659    1.420   .     A
C656   C676    1.423   .     A
C657   C658    1.388   .     A
C657   H684    1.084   .     S
C658   C670    1.396   .     A
C658   H688    1.084   .     S
C659   C670    1.403   .     A
C660   C543    1.339   1_655 S
C660   Cl561   1.769   1_655 S
C662   H691    1.083   .     S
C662   C671    1.393   .     A
C662   C669    1.401   .     A
C663   C666    1.452   .     S
C663   C841    1.332   .     S
C663   H863    1.088   .     S
C664   C665    1.436   .     S
C664   C1017   1.332   1_545 S
C664   H1041   1.086   1_545 S
C665   O697    1.280   .     A
C665   O703    1.280   .     A
C666   O704    1.270   .     A
C666   O698    1.270   .     A
C667   O693    1.274   .     A
C667   C670    1.454   .     S
C667   O695    1.271   .     A
C668   O694    1.283   .     A
C668   C669    1.470   .     S
C668   O696    1.285   .     A
C669   C672    1.399   .     A
C671   H690    1.084   .     S
C671   C674    1.402   .     A
C672   C673    1.406   .     A
C672   H681    1.077   .     S
C673   C675    1.423   .     A
C673   C674    1.418   .     A
C674   C147    1.393   1_556 S
C675   C145    1.422   1_556 S
C676   C677    1.410   .     A
C677   H682    1.079   .     S
C677   C678    1.388   .     A
C678   H680    1.084   .     S
H685   C543    1.086   1_655 S
H686   C1017   1.088   1_545 S
H687   C841    1.086   .     S
O692   Zn708   1.933   .     S
O692   Zn706   1.946   .     S
O692   Zn705   1.965   .     S
O692   Zn707   1.931   .     S
O693   Zn706   1.934   .     S
O694   Zn708   1.947   .     S
O695   Zn707   1.941   .     S
O696   Zn705   1.930   .     S
O697   Zn705   1.927   .     S
O698   Zn708   1.929   .     S
O699   Zn706   1.927   .     S
O700   Zn707   1.940   .     S
O701   Zn708   1.934   .     S
O702   Zn705   1.922   .     S
O703   Zn706   1.937   .     S
O704   Zn707   1.931   .     S
Br709  C718    1.939   .     S
C710   C720    1.440   .     S
C710   O760    1.271   .     A
C710   O758    1.270   .     A
C711   H742    1.078   .     S
C711   C712    1.387   .     A
C711   C734    1.414   .     A
C712   H748    1.084   .     S
C712   C183    1.392   1_556 S
C713   O761    1.281   .     A
C713   C719    1.459   .     S
C713   O759    1.282   .     A
C714   C715    1.420   .     A
C714   C716    1.399   .     A
C715   C718    1.420   .     A
C715   C735    1.423   .     A
C716   C717    1.388   .     A
C716   H743    1.084   .     S
C717   C729    1.396   .     A
C717   H747    1.084   .     S
C718   C729    1.403   .     A
C719   C779    1.339   .     S
C719   Cl797   1.769   .     S
C720   C837    1.339   1_455 S
C720   H862    1.086   1_455 S
C721   H750    1.083   .     S
C721   C730    1.393   .     A
C721   C728    1.401   .     A
C722   C725    1.452   .     S
C722   C900    1.332   .     S
C722   H922    1.088   .     S
C723   C724    1.436   .     S
C724   O756    1.280   .     A
C724   O762    1.280   .     A
C725   O763    1.270   .     A
C725   O757    1.270   .     A
C726   O752    1.274   .     A
C726   C729    1.454   .     S
C726   O754    1.271   .     A
C727   O753    1.283   .     A
C727   C728    1.470   .     S
C727   O755    1.285   .     A
C728   C731    1.399   .     A
C730   H749    1.084   .     S
C730   C733    1.402   .     A
C731   C732    1.406   .     A
C731   H740    1.077   .     S
C732   C734    1.423   .     A
C732   C733    1.418   .     A
C733   C206    1.393   1_556 S
C734   C204    1.422   1_556 S
C735   C736    1.410   .     A
C736   H741    1.079   .     S
C736   C737    1.388   .     A
C737   H739    1.084   .     S
Cl738  C837    1.769   1_455 S
H744   C779    1.086   .     S
H746   C900    1.086   .     S
O751   Zn767   1.933   .     S
O751   Zn765   1.946   .     S
O751   Zn764   1.965   .     S
O751   Zn766   1.931   .     S
O752   Zn765   1.934   .     S
O753   Zn767   1.947   .     S
O754   Zn766   1.941   .     S
O755   Zn764   1.930   .     S
O756   Zn764   1.927   .     S
O757   Zn767   1.929   .     S
O758   Zn765   1.927   .     S
O759   Zn766   1.940   .     S
O760   Zn767   1.934   .     S
O761   Zn764   1.922   .     S
O762   Zn765   1.937   .     S
O763   Zn766   1.931   .     S
Br768  C777    1.939   .     S
C769   C779    1.440   .     S
C769   O819    1.271   .     A
C769   O817    1.270   .     A
C770   H801    1.078   .     S
C770   C771    1.387   .     A
C770   C793    1.414   .     A
C771   H807    1.084   .     S
C771   C242    1.392   1_556 S
C772   O820    1.281   .     A
C772   C778    1.459   .     S
C772   O818    1.282   .     A
C773   C774    1.420   .     A
C773   C775    1.399   .     A
C774   C777    1.420   .     A
C774   C794    1.423   .     A
C775   C776    1.388   .     A
C775   H802    1.084   .     S
C776   C788    1.396   .     A
C776   H806    1.084   .     S
C777   C788    1.403   .     A
C778   C838    1.339   .     S
C778   Cl856   1.769   .     S
C780   H809    1.083   .     S
C780   C789    1.393   .     A
C780   C787    1.401   .     A
C781   C784    1.452   .     S
C781   C959    1.332   .     S
C781   H981    1.088   .     S
C782   C783    1.436   .     S
C783   O815    1.280   .     A
C783   O821    1.280   .     A
C784   O822    1.270   .     A
C784   O816    1.270   .     A
C785   O811    1.274   .     A
C785   C788    1.454   .     S
C785   O813    1.271   .     A
C786   O812    1.283   .     A
C786   C787    1.470   .     S
C786   O814    1.285   .     A
C787   C790    1.399   .     A
C789   H808    1.084   .     S
C789   C792    1.402   .     A
C790   C791    1.406   .     A
C790   H799    1.077   .     S
C791   C793    1.423   .     A
C791   C792    1.418   .     A
C792   C265    1.393   1_556 S
C793   C263    1.422   1_556 S
C794   C795    1.410   .     A
C795   H800    1.079   .     S
C795   C796    1.388   .     A
C796   H798    1.084   .     S
H803   C838    1.086   .     S
H805   C959    1.086   .     S
O810   Zn826   1.933   .     S
O810   Zn824   1.946   .     S
O810   Zn823   1.965   .     S
O810   Zn825   1.931   .     S
O811   Zn824   1.934   .     S
O812   Zn826   1.947   .     S
O813   Zn825   1.941   .     S
O814   Zn823   1.930   .     S
O815   Zn823   1.927   .     S
O816   Zn826   1.929   .     S
O817   Zn824   1.927   .     S
O818   Zn825   1.940   .     S
O819   Zn826   1.934   .     S
O820   Zn823   1.922   .     S
O821   Zn824   1.937   .     S
O822   Zn825   1.931   .     S
Br827  C836    1.939   .     S
C828   C838    1.440   .     S
C828   O878    1.271   .     A
C828   O876    1.270   .     A
C829   H860    1.078   .     S
C829   C830    1.387   .     A
C829   C852    1.414   .     A
C830   H866    1.084   .     S
C830   C301    1.392   1_556 S
C831   O879    1.281   .     A
C831   C837    1.459   .     S
C831   O877    1.282   .     A
C832   C833    1.420   .     A
C832   C834    1.399   .     A
C833   C836    1.420   .     A
C833   C853    1.423   .     A
C834   C835    1.388   .     A
C834   H861    1.084   .     S
C835   C847    1.396   .     A
C835   H865    1.084   .     S
C836   C847    1.403   .     A
C837   C720    1.339   1_655 S
C837   Cl738   1.769   1_655 S
C839   H868    1.083   .     S
C839   C848    1.393   .     A
C839   C846    1.401   .     A
C840   C843    1.452   .     S
C840   C1018   1.332   .     S
C840   H1040   1.088   .     S
C841   C842    1.436   .     S
C842   O874    1.280   .     A
C842   O880    1.280   .     A
C843   O881    1.270   .     A
C843   O875    1.270   .     A
C844   O870    1.274   .     A
C844   C847    1.454   .     S
C844   O872    1.271   .     A
C845   O871    1.283   .     A
C845   C846    1.470   .     S
C845   O873    1.285   .     A
C846   C849    1.399   .     A
C848   H867    1.084   .     S
C848   C851    1.402   .     A
C849   C850    1.406   .     A
C849   H858    1.077   .     S
C850   C852    1.423   .     A
C850   C851    1.418   .     A
C851   C324    1.393   1_556 S
C852   C322    1.422   1_556 S
C853   C854    1.410   .     A
C854   H859    1.079   .     S
C854   C855    1.388   .     A
C855   H857    1.084   .     S
H862   C720    1.086   1_655 S
H864   C1018   1.086   .     S
O869   Zn885   1.933   .     S
O869   Zn883   1.946   .     S
O869   Zn882   1.965   .     S
O869   Zn884   1.931   .     S
O870   Zn883   1.934   .     S
O871   Zn885   1.947   .     S
O872   Zn884   1.941   .     S
O873   Zn882   1.930   .     S
O874   Zn882   1.927   .     S
O875   Zn885   1.929   .     S
O876   Zn883   1.927   .     S
O877   Zn884   1.940   .     S
O878   Zn885   1.934   .     S
O879   Zn882   1.922   .     S
O880   Zn883   1.937   .     S
O881   Zn884   1.931   .     S
Br886  C895    1.939   .     S
C887   C897    1.440   .     S
C887   O937    1.271   .     A
C887   O935    1.270   .     A
C888   H919    1.078   .     S
C888   C889    1.387   .     A
C888   C911    1.414   .     A
C889   H925    1.084   .     S
C889   C360    1.392   1_556 S
C890   O938    1.281   .     A
C890   C896    1.459   .     S
C890   O936    1.282   .     A
C891   C892    1.420   .     A
C891   C893    1.399   .     A
C892   C895    1.420   .     A
C892   C912    1.423   .     A
C893   C894    1.388   .     A
C893   H920    1.084   .     S
C894   C906    1.396   .     A
C894   H924    1.084   .     S
C895   C906    1.403   .     A
C896   C956    1.339   .     S
C896   Cl974   1.769   .     S
C897   C1014   1.339   1_455 S
C897   H1039   1.086   1_455 S
C898   H927    1.083   .     S
C898   C907    1.393   .     A
C898   C905    1.401   .     A
C899   C902    1.452   .     S
C899   C546    1.332   1_565 S
C899   H568    1.088   1_565 S
C900   C901    1.436   .     S
C901   O933    1.280   .     A
C901   O939    1.280   .     A
C902   O940    1.270   .     A
C902   O934    1.270   .     A
C903   O929    1.274   .     A
C903   C906    1.454   .     S
C903   O931    1.271   .     A
C904   O930    1.283   .     A
C904   C905    1.470   .     S
C904   O932    1.285   .     A
C905   C908    1.399   .     A
C907   H926    1.084   .     S
C907   C910    1.402   .     A
C908   C909    1.406   .     A
C908   H917    1.077   .     S
C909   C911    1.423   .     A
C909   C910    1.418   .     A
C910   C383    1.393   1_556 S
C911   C381    1.422   1_556 S
C912   C913    1.410   .     A
C913   H918    1.079   .     S
C913   C914    1.388   .     A
C914   H916    1.084   .     S
Cl915  C1014   1.769   1_455 S
H921   C956    1.086   .     S
H923   C546    1.086   1_565 S
O928   Zn944   1.933   .     S
O928   Zn942   1.946   .     S
O928   Zn941   1.965   .     S
O928   Zn943   1.931   .     S
O929   Zn942   1.934   .     S
O930   Zn944   1.947   .     S
O931   Zn943   1.941   .     S
O932   Zn941   1.930   .     S
O933   Zn941   1.927   .     S
O934   Zn944   1.929   .     S
O935   Zn942   1.927   .     S
O936   Zn943   1.940   .     S
O937   Zn944   1.934   .     S
O938   Zn941   1.922   .     S
O939   Zn942   1.937   .     S
O940   Zn943   1.931   .     S
Br945  C954    1.939   .     S
C946   C956    1.440   .     S
C946   O996    1.271   .     A
C946   O994    1.270   .     A
C947   H978    1.078   .     S
C947   C948    1.387   .     A
C947   C970    1.414   .     A
C948   H984    1.084   .     S
C948   C419    1.392   1_556 S
C949   O997    1.281   .     A
C949   C955    1.459   .     S
C949   O995    1.282   .     A
C950   C951    1.420   .     A
C950   C952    1.399   .     A
C951   C954    1.420   .     A
C951   C971    1.423   .     A
C952   C953    1.388   .     A
C952   H979    1.084   .     S
C953   C965    1.396   .     A
C953   H983    1.084   .     S
C954   C965    1.403   .     A
C955   C1015   1.339   .     S
C955   Cl1033  1.769   .     S
C957   H986    1.083   .     S
C957   C966    1.393   .     A
C957   C964    1.401   .     A
C958   C961    1.452   .     S
C958   C605    1.332   1_565 S
C958   H627    1.088   1_565 S
C959   C960    1.436   .     S
C960   O992    1.280   .     A
C960   O998    1.280   .     A
C961   O999    1.270   .     A
C961   O993    1.270   .     A
C962   O988    1.274   .     A
C962   C965    1.454   .     S
C962   O990    1.271   .     A
C963   O989    1.283   .     A
C963   C964    1.470   .     S
C963   O991    1.285   .     A
C964   C967    1.399   .     A
C966   H985    1.084   .     S
C966   C969    1.402   .     A
C967   C968    1.406   .     A
C967   H976    1.077   .     S
C968   C970    1.423   .     A
C968   C969    1.418   .     A
C969   C442    1.393   1_556 S
C970   C440    1.422   1_556 S
C971   C972    1.410   .     A
C972   H977    1.079   .     S
C972   C973    1.388   .     A
C973   H975    1.084   .     S
H980   C1015   1.086   .     S
H982   C605    1.086   1_565 S
O987   Zn1003  1.933   .     S
O987   Zn1001  1.946   .     S
O987   Zn1000  1.965   .     S
O987   Zn1002  1.931   .     S
O988   Zn1001  1.934   .     S
O989   Zn1003  1.947   .     S
O990   Zn1002  1.941   .     S
O991   Zn1000  1.930   .     S
O992   Zn1000  1.927   .     S
O993   Zn1003  1.929   .     S
O994   Zn1001  1.927   .     S
O995   Zn1002  1.940   .     S
O996   Zn1003  1.934   .     S
O997   Zn1000  1.922   .     S
O998   Zn1001  1.937   .     S
O999   Zn1002  1.931   .     S
Br1004 C1013   1.939   .     S
C1005  C1015   1.440   .     S
C1005  O1055   1.271   .     A
C1005  O1053   1.270   .     A
C1006  H1037   1.078   .     S
C1006  C1007   1.387   .     A
C1006  C1029   1.414   .     A
C1007  H1043   1.084   .     S
C1007  C478    1.392   1_556 S
C1008  O1056   1.281   .     A
C1008  C1014   1.459   .     S
C1008  O1054   1.282   .     A
C1009  C1010   1.420   .     A
C1009  C1011   1.399   .     A
C1010  C1013   1.420   .     A
C1010  C1030   1.423   .     A
C1011  C1012   1.388   .     A
C1011  H1038   1.084   .     S
C1012  C1024   1.396   .     A
C1012  H1042   1.084   .     S
C1013  C1024   1.403   .     A
C1014  C897    1.339   1_655 S
C1014  Cl915   1.769   1_655 S
C1016  H1045   1.083   .     S
C1016  C1025   1.393   .     A
C1016  C1023   1.401   .     A
C1017  C1020   1.452   .     S
C1017  C664    1.332   1_565 S
C1017  H686    1.088   1_565 S
C1018  C1019   1.436   .     S
C1019  O1051   1.280   .     A
C1019  O1057   1.280   .     A
C1020  O1058   1.270   .     A
C1020  O1052   1.270   .     A
C1021  O1047   1.274   .     A
C1021  C1024   1.454   .     S
C1021  O1049   1.271   .     A
C1022  O1048   1.283   .     A
C1022  C1023   1.470   .     S
C1022  O1050   1.285   .     A
C1023  C1026   1.399   .     A
C1025  H1044   1.084   .     S
C1025  C1028   1.402   .     A
C1026  C1027   1.406   .     A
C1026  H1035   1.077   .     S
C1027  C1029   1.423   .     A
C1027  C1028   1.418   .     A
C1028  C501    1.393   1_556 S
C1029  C499    1.422   1_556 S
C1030  C1031   1.410   .     A
C1031  H1036   1.079   .     S
C1031  C1032   1.388   .     A
C1032  H1034   1.084   .     S
H1039  C897    1.086   1_655 S
H1041  C664    1.086   1_565 S
O1046  Zn1062  1.933   .     S
O1046  Zn1060  1.946   .     S
O1046  Zn1059  1.965   .     S
O1046  Zn1061  1.931   .     S
O1047  Zn1060  1.934   .     S
O1048  Zn1062  1.947   .     S
O1049  Zn1061  1.941   .     S
O1050  Zn1059  1.930   .     S
O1051  Zn1059  1.927   .     S
O1052  Zn1062  1.929   .     S
O1053  Zn1060  1.927   .     S
O1054  Zn1061  1.940   .     S
O1055  Zn1062  1.934   .     S
O1056  Zn1059  1.922   .     S
O1057  Zn1060  1.937   .     S
O1058  Zn1061  1.931   .     S
