data_str_m1_o10_o16_pcu_sym.190
_audit_creation_date              2020-01-03
_audit_creation_method            'Materials Studio'
_symmetry_space_group_name_H-M    'P1'
_symmetry_Int_Tables_number       1
_symmetry_cell_setting            triclinic
loop_
_symmetry_equiv_pos_as_xyz
  x,y,z
_cell_length_a                    32.4736
_cell_length_b                    32.7816
_cell_length_c                    30.9524
_cell_angle_alpha                 97.3213
_cell_angle_beta                  74.1025
_cell_angle_gamma                 98.9216
loop_
_atom_site_label
_atom_site_type_symbol
_atom_site_fract_x
_atom_site_fract_y
_atom_site_fract_z
_atom_site_U_iso_or_equiv
_atom_site_adp_type
_atom_site_occupancy
C1     C     0.05255   0.15919   0.26057   0.00000  Uiso   1.00
C2     C     0.16265   0.15478   0.06045   0.00000  Uiso   1.00
C3     C     0.22719   0.12099   0.05262   0.00000  Uiso   1.00
C4     C     0.28088   0.17443   0.24008   0.00000  Uiso   1.00
C5     C     0.13355   0.18746   0.42215   0.00000  Uiso   1.00
C6     C     0.32720   0.17957   0.23670   0.00000  Uiso   1.00
C7     C     0.00764   0.15741   0.26247   0.00000  Uiso   1.00
C8     C     0.18081   0.32296   0.23852   0.00000  Uiso   1.00
C9     C     0.14933   0.01244   0.26376   0.00000  Uiso   1.00
C10    C     0.15573   0.05624   0.26011   0.00000  Uiso   1.00
C11    C     0.17643   0.27804   0.24046   0.00000  Uiso   1.00
C12    C     0.11672   0.23595   0.48991   0.00000  Uiso   1.00
C13    C     0.18527   0.14819   0.12903   0.00000  Uiso   1.00
C14    C     0.14621   0.18307   0.37154   0.00000  Uiso   1.00
C15    C     0.22902   0.10938   0.00615   0.00000  Uiso   1.00
C16    C     0.19218   0.14144   0.07988   0.00000  Uiso   1.00
C17    C     0.11052   0.22057   0.44681   0.00000  Uiso   1.00
C18    C     0.25978   0.10856   0.07413   0.00000  Uiso   1.00
C19    C     0.24663   0.06405   0.08793   0.00000  Uiso   1.00
C20    C     0.28254   0.04887   0.10220   0.00000  Uiso   1.00
C21    C     0.22219   0.00921   0.20722   0.00000  Uiso   1.00
C22    C     0.25933   0.01656   0.22981   0.00000  Uiso   1.00
C23    C     0.14067   0.21515   0.00916   0.00000  Uiso   1.00
C24    C     0.10611   0.32777   0.29378   0.00000  Uiso   1.00
C25    C     0.07289   0.02499   0.31305   0.00000  Uiso   1.00
C26    C     0.26378   0.08417   0.47596   0.00000  Uiso   1.00
C27    C     0.29768   0.11146   0.44310   0.00000  Uiso   1.00
C28    C     0.33326   0.08697   0.41373   0.00000  Uiso   1.00
C29    C     0.11643   0.15851   0.08885   0.00000  Uiso   1.00
C30    C     0.09020   0.11524   0.09193   0.00000  Uiso   1.00
C31    C     0.04571   0.11650   0.12464   0.00000  Uiso   1.00
C32    C     0.07625   0.23571   0.42990   0.00000  Uiso   1.00
C33    C     0.09175   0.27700   0.40907   0.00000  Uiso   1.00
C34    C     0.15305   0.17632   0.49024   0.00000  Uiso   1.00
C35    C     0.09882   0.27422   0.01704   0.00000  Uiso   1.00
C36    C     0.13417   0.31119   0.01447   0.00000  Uiso   1.00
C37    C     0.13770   0.09222   0.39984   0.00000  Uiso   1.00
C38    C     0.11170   0.05614   0.42607   0.00000  Uiso   1.00
C39    C     0.02412   0.20963   0.20487   0.00000  Uiso   1.00
C40    C     0.02050   0.25461   0.22479   0.00000  Uiso   1.00
C41    C     0.05220   0.28495   0.19427   0.00000  Uiso   1.00
C42    C     0.14936   0.16194   0.44635   0.00000  Uiso   1.00
C43    C     0.17200   0.15268   0.01309   0.00000  Uiso   1.00
C44    C     0.19900   0.12360   0.48748   0.00000  Uiso   1.00
C45    C     0.19193   0.10719   0.44548   0.00000  Uiso   1.00
C46    C     0.16166   0.12219   0.42892   0.00000  Uiso   1.00
H47    H     0.31893   0.13550   0.28419   0.00000  Uiso   1.00
H48    H     0.26296   0.12968   0.10432   0.00000  Uiso   1.00
H49    H     0.25149   0.03805   0.26085   0.00000  Uiso   1.00
H50    H     0.26573   0.32014   0.23875   0.00000  Uiso   1.00
H51    H     0.28902   0.03057   0.20632   0.00000  Uiso   1.00
H52    H     0.23112   0.32175   0.17581   0.00000  Uiso   1.00
H53    H     0.21829   0.03888   0.19601   0.00000  Uiso   1.00
H54    H     0.08624   0.05201   0.33270   0.00000  Uiso   1.00
H55    H     0.06278   0.03591   0.28545   0.00000  Uiso   1.00
H56    H     0.04385   0.00919   0.33587   0.00000  Uiso   1.00
H57    H     0.09058   0.30241   0.27397   0.00000  Uiso   1.00
H58    H     0.20547   0.07977   0.42784   0.00000  Uiso   1.00
H59    H     0.11234   0.31536   0.32277   0.00000  Uiso   1.00
H60    H     0.01670   0.07454   0.43507   0.00000  Uiso   1.00
H61    H     0.31943   0.06088   0.39325   0.00000  Uiso   1.00
H62    H     0.02396   0.10761   0.39057   0.00000  Uiso   1.00
H63    H     0.28228   0.12433   0.42078   0.00000  Uiso   1.00
H64    H     0.31252   0.13780   0.46252   0.00000  Uiso   1.00
H65    H     0.28076   0.06968   0.49521   0.00000  Uiso   1.00
H66    H     0.24905   0.05723   0.45743   0.00000  Uiso   1.00
H67    H     0.04874   0.12979   0.15853   0.00000  Uiso   1.00
H68    H     0.02625   0.13527   0.11236   0.00000  Uiso   1.00
H69    H     0.14769   0.22847   0.04067   0.00000  Uiso   1.00
H70    H     0.02894   0.08445   0.12761   0.00000  Uiso   1.00
H71    H     0.08626   0.10268   0.05798   0.00000  Uiso   1.00
H72    H     0.10734   0.09349   0.10321   0.00000  Uiso   1.00
H73    H     0.11623   0.17404   0.12293   0.00000  Uiso   1.00
H74    H     0.09892   0.17749   0.07471   0.00000  Uiso   1.00
H75    H     0.09444   0.30255   0.43545   0.00000  Uiso   1.00
H76    H     0.12369   0.27653   0.38430   0.00000  Uiso   1.00
H77    H     0.06796   0.28350   0.39183   0.00000  Uiso   1.00
H78    H     0.06483   0.21215   0.40529   0.00000  Uiso   1.00
H79    H     0.04658   0.23850   0.45775   0.00000  Uiso   1.00
H80    H     0.27385   0.01562   0.10819   0.00000  Uiso   1.00
H81    H     0.15917   0.30517   0.03036   0.00000  Uiso   1.00
H82    H     0.14970   0.31729   0.47881   0.00000  Uiso   1.00
H83    H     0.11993   0.00592   0.03265   0.00000  Uiso   1.00
H84    H     0.07190   0.28309   0.00636   0.00000  Uiso   1.00
H85    H     0.08508   0.26773   0.05293   0.00000  Uiso   1.00
H86    H     0.13356   0.03750   0.43475   0.00000  Uiso   1.00
H87    H     0.08917   0.06788   0.45757   0.00000  Uiso   1.00
H88    H     0.09255   0.03579   0.40520   0.00000  Uiso   1.00
H89    H     0.11422   0.10720   0.38909   0.00000  Uiso   1.00
H90    H     0.16107   0.07997   0.36939   0.00000  Uiso   1.00
H91    H     0.31324   0.05214   0.07527   0.00000  Uiso   1.00
H92    H     0.08591   0.27911   0.19024   0.00000  Uiso   1.00
H93    H     0.04553   0.28173   0.16058   0.00000  Uiso   1.00
H94    H     0.04875   0.31719   0.20954   0.00000  Uiso   1.00
H95    H     0.32054   0.26188   0.22917   0.00000  Uiso   1.00
H96    H     0.02737   0.25882   0.25845   0.00000  Uiso   1.00
H97    H     0.05826   0.20383   0.19752   0.00000  Uiso   1.00
H98    H     0.01579   0.20489   0.17191   0.00000  Uiso   1.00
H99    H     0.28707   0.06692   0.13379   0.00000  Uiso   1.00
H100   H     0.21708   0.06296   0.11649   0.00000  Uiso   1.00
H101   H     0.23899   0.04252   0.05964   0.00000  Uiso   1.00
H102   H     0.29267   0.11248   0.05097   0.00000  Uiso   1.00
O103   O     0.16667   0.16667   0.25000   0.00000  Uiso   1.00
O104   O     0.15451   0.12637   0.15458   0.00000  Uiso   1.00
O105   O     0.12940   0.20391   0.34968   0.00000  Uiso   1.00
O106   O     0.20824   0.17759   0.14606   0.00000  Uiso   1.00
O107   O     0.17451   0.15880   0.34968   0.00000  Uiso   1.00
O108   O     0.17930   0.08019   0.28213   0.00000  Uiso   1.00
O109   O     0.14632   0.26085   0.27013   0.00000  Uiso   1.00
O110   O     0.07412   0.13291   0.23413   0.00000  Uiso   1.00
O111   O     0.26693   0.19272   0.21360   0.00000  Uiso   1.00
O112   O     0.07071   0.18878   0.28213   0.00000  Uiso   1.00
O113   O     0.25491   0.15226   0.27013   0.00000  Uiso   1.00
O114   O     0.13760   0.06944   0.23413   0.00000  Uiso   1.00
O115   O     0.20345   0.25620   0.21360   0.00000  Uiso   1.00
Zn116  Zn    0.19338   0.13994   0.28734   0.00000  Uiso   1.00
Zn117  Zn    0.13379   0.12458   0.21875   0.00000  Uiso   1.00
Zn118  Zn    0.21056   0.19775   0.20657   0.00000  Uiso   1.00
Zn119  Zn    0.12893   0.20439   0.28733   0.00000  Uiso   1.00
C120   C     0.38589   0.15919   0.26057   0.00000  Uiso   1.00
C121   C     0.49598   0.15478   0.06045   0.00000  Uiso   1.00
C122   C     0.56052   0.12099   0.05262   0.00000  Uiso   1.00
C123   C     0.61421   0.17443   0.24008   0.00000  Uiso   1.00
C124   C     0.46689   0.18746   0.42215   0.00000  Uiso   1.00
C125   C     0.66053   0.17957   0.23670   0.00000  Uiso   1.00
C126   C     0.34097   0.15741   0.26247   0.00000  Uiso   1.00
C127   C     0.51414   0.32296   0.23852   0.00000  Uiso   1.00
C128   C     0.48267   0.01244   0.26376   0.00000  Uiso   1.00
C129   C     0.48907   0.05624   0.26011   0.00000  Uiso   1.00
C130   C     0.50977   0.27804   0.24046   0.00000  Uiso   1.00
C131   C     0.45005   0.23595   0.48991   0.00000  Uiso   1.00
C132   C     0.51861   0.14819   0.12903   0.00000  Uiso   1.00
C133   C     0.47954   0.18307   0.37154   0.00000  Uiso   1.00
C134   C     0.56236   0.10938   0.00615   0.00000  Uiso   1.00
C135   C     0.52552   0.14144   0.07988   0.00000  Uiso   1.00
C136   C     0.44386   0.22057   0.44681   0.00000  Uiso   1.00
C137   C     0.59311   0.10856   0.07413   0.00000  Uiso   1.00
C138   C     0.57996   0.06405   0.08793   0.00000  Uiso   1.00
C139   C     0.61588   0.04887   0.10220   0.00000  Uiso   1.00
C140   C     0.55553   0.00921   0.20722   0.00000  Uiso   1.00
C141   C     0.59266   0.01656   0.22981   0.00000  Uiso   1.00
C142   C     0.47400   0.21515   0.00916   0.00000  Uiso   1.00
C143   C     0.43944   0.32777   0.29378   0.00000  Uiso   1.00
C144   C     0.40622   0.02499   0.31305   0.00000  Uiso   1.00
C145   C     0.59711   0.08417   0.47596   0.00000  Uiso   1.00
C146   C     0.63101   0.11146   0.44310   0.00000  Uiso   1.00
C147   C     0.66660   0.08697   0.41373   0.00000  Uiso   1.00
C148   C     0.44977   0.15851   0.08885   0.00000  Uiso   1.00
C149   C     0.42353   0.11524   0.09193   0.00000  Uiso   1.00
C150   C     0.37904   0.11650   0.12464   0.00000  Uiso   1.00
C151   C     0.40958   0.23571   0.42990   0.00000  Uiso   1.00
C152   C     0.42508   0.27700   0.40907   0.00000  Uiso   1.00
C153   C     0.48638   0.17632   0.49024   0.00000  Uiso   1.00
C154   C     0.43215   0.27422   0.01704   0.00000  Uiso   1.00
C155   C     0.46750   0.31119   0.01447   0.00000  Uiso   1.00
C156   C     0.47103   0.09222   0.39984   0.00000  Uiso   1.00
C157   C     0.44503   0.05614   0.42607   0.00000  Uiso   1.00
C158   C     0.35745   0.20963   0.20487   0.00000  Uiso   1.00
C159   C     0.35383   0.25461   0.22479   0.00000  Uiso   1.00
C160   C     0.38554   0.28495   0.19427   0.00000  Uiso   1.00
C161   C     0.48269   0.16194   0.44635   0.00000  Uiso   1.00
C162   C     0.50533   0.15268   0.01309   0.00000  Uiso   1.00
C163   C     0.53233   0.12360   0.48748   0.00000  Uiso   1.00
C164   C     0.52526   0.10719   0.44548   0.00000  Uiso   1.00
C165   C     0.49500   0.12219   0.42892   0.00000  Uiso   1.00
H166   H     0.65227   0.13550   0.28419   0.00000  Uiso   1.00
H167   H     0.59629   0.12968   0.10432   0.00000  Uiso   1.00
H168   H     0.58483   0.03805   0.26085   0.00000  Uiso   1.00
H169   H     0.59906   0.32014   0.23875   0.00000  Uiso   1.00
H170   H     0.62236   0.03057   0.20632   0.00000  Uiso   1.00
H171   H     0.56445   0.32175   0.17581   0.00000  Uiso   1.00
H172   H     0.55162   0.03888   0.19601   0.00000  Uiso   1.00
H173   H     0.41957   0.05201   0.33270   0.00000  Uiso   1.00
H174   H     0.39612   0.03591   0.28545   0.00000  Uiso   1.00
H175   H     0.37718   0.00919   0.33587   0.00000  Uiso   1.00
H176   H     0.42392   0.30241   0.27397   0.00000  Uiso   1.00
H177   H     0.53880   0.07977   0.42784   0.00000  Uiso   1.00
H178   H     0.44568   0.31536   0.32277   0.00000  Uiso   1.00
H179   H     0.35003   0.07454   0.43507   0.00000  Uiso   1.00
H180   H     0.65277   0.06088   0.39325   0.00000  Uiso   1.00
H181   H     0.35730   0.10761   0.39057   0.00000  Uiso   1.00
H182   H     0.61561   0.12433   0.42078   0.00000  Uiso   1.00
H183   H     0.64585   0.13780   0.46252   0.00000  Uiso   1.00
H184   H     0.61410   0.06968   0.49521   0.00000  Uiso   1.00
H185   H     0.58238   0.05723   0.45743   0.00000  Uiso   1.00
H186   H     0.38207   0.12979   0.15853   0.00000  Uiso   1.00
H187   H     0.35958   0.13527   0.11236   0.00000  Uiso   1.00
H188   H     0.48102   0.22847   0.04067   0.00000  Uiso   1.00
H189   H     0.36227   0.08445   0.12761   0.00000  Uiso   1.00
H190   H     0.41959   0.10268   0.05798   0.00000  Uiso   1.00
H191   H     0.44067   0.09349   0.10321   0.00000  Uiso   1.00
H192   H     0.44957   0.17404   0.12293   0.00000  Uiso   1.00
H193   H     0.43226   0.17749   0.07471   0.00000  Uiso   1.00
H194   H     0.42778   0.30255   0.43545   0.00000  Uiso   1.00
H195   H     0.45702   0.27653   0.38430   0.00000  Uiso   1.00
H196   H     0.40130   0.28350   0.39183   0.00000  Uiso   1.00
H197   H     0.39816   0.21215   0.40529   0.00000  Uiso   1.00
H198   H     0.37992   0.23850   0.45775   0.00000  Uiso   1.00
H199   H     0.60718   0.01562   0.10819   0.00000  Uiso   1.00
H200   H     0.49251   0.30517   0.03036   0.00000  Uiso   1.00
H201   H     0.48304   0.31729   0.47881   0.00000  Uiso   1.00
H202   H     0.45327   0.00592   0.03265   0.00000  Uiso   1.00
H203   H     0.40523   0.28309   0.00636   0.00000  Uiso   1.00
H204   H     0.41841   0.26773   0.05293   0.00000  Uiso   1.00
H205   H     0.46689   0.03750   0.43475   0.00000  Uiso   1.00
H206   H     0.42251   0.06788   0.45757   0.00000  Uiso   1.00
H207   H     0.42589   0.03579   0.40520   0.00000  Uiso   1.00
H208   H     0.44756   0.10720   0.38909   0.00000  Uiso   1.00
H209   H     0.49440   0.07997   0.36939   0.00000  Uiso   1.00
H210   H     0.64657   0.05214   0.07527   0.00000  Uiso   1.00
H211   H     0.41925   0.27911   0.19024   0.00000  Uiso   1.00
H212   H     0.37886   0.28173   0.16058   0.00000  Uiso   1.00
H213   H     0.38209   0.31719   0.20954   0.00000  Uiso   1.00
H214   H     0.65388   0.26188   0.22917   0.00000  Uiso   1.00
H215   H     0.36070   0.25882   0.25845   0.00000  Uiso   1.00
H216   H     0.39159   0.20383   0.19752   0.00000  Uiso   1.00
H217   H     0.34913   0.20489   0.17191   0.00000  Uiso   1.00
H218   H     0.62040   0.06692   0.13379   0.00000  Uiso   1.00
H219   H     0.55042   0.06296   0.11649   0.00000  Uiso   1.00
H220   H     0.57233   0.04252   0.05964   0.00000  Uiso   1.00
H221   H     0.62600   0.11248   0.05097   0.00000  Uiso   1.00
O222   O     0.50000   0.16667   0.25000   0.00000  Uiso   1.00
O223   O     0.48784   0.12637   0.15458   0.00000  Uiso   1.00
O224   O     0.46274   0.20391   0.34968   0.00000  Uiso   1.00
O225   O     0.54157   0.17759   0.14606   0.00000  Uiso   1.00
O226   O     0.50785   0.15880   0.34968   0.00000  Uiso   1.00
O227   O     0.51264   0.08019   0.28213   0.00000  Uiso   1.00
O228   O     0.47965   0.26085   0.27013   0.00000  Uiso   1.00
O229   O     0.40745   0.13291   0.23413   0.00000  Uiso   1.00
O230   O     0.60026   0.19272   0.21360   0.00000  Uiso   1.00
O231   O     0.40405   0.18878   0.28213   0.00000  Uiso   1.00
O232   O     0.58824   0.15226   0.27013   0.00000  Uiso   1.00
O233   O     0.47093   0.06944   0.23413   0.00000  Uiso   1.00
O234   O     0.53678   0.25620   0.21360   0.00000  Uiso   1.00
Zn235  Zn    0.52672   0.13994   0.28734   0.00000  Uiso   1.00
Zn236  Zn    0.46713   0.12458   0.21875   0.00000  Uiso   1.00
Zn237  Zn    0.54389   0.19775   0.20657   0.00000  Uiso   1.00
Zn238  Zn    0.46226   0.20439   0.28733   0.00000  Uiso   1.00
C239   C     0.71922   0.15919   0.26057   0.00000  Uiso   1.00
C240   C     0.82932   0.15478   0.06045   0.00000  Uiso   1.00
C241   C     0.89385   0.12099   0.05262   0.00000  Uiso   1.00
C242   C     0.94755   0.17443   0.24008   0.00000  Uiso   1.00
C243   C     0.80022   0.18746   0.42215   0.00000  Uiso   1.00
C244   C     0.99386   0.17957   0.23670   0.00000  Uiso   1.00
C245   C     0.67430   0.15741   0.26247   0.00000  Uiso   1.00
C246   C     0.84748   0.32296   0.23852   0.00000  Uiso   1.00
C247   C     0.81600   0.01244   0.26376   0.00000  Uiso   1.00
C248   C     0.82240   0.05624   0.26011   0.00000  Uiso   1.00
C249   C     0.84310   0.27804   0.24046   0.00000  Uiso   1.00
C250   C     0.78339   0.23595   0.48991   0.00000  Uiso   1.00
C251   C     0.85194   0.14819   0.12903   0.00000  Uiso   1.00
C252   C     0.81288   0.18307   0.37154   0.00000  Uiso   1.00
C253   C     0.89569   0.10938   0.00615   0.00000  Uiso   1.00
C254   C     0.85885   0.14144   0.07988   0.00000  Uiso   1.00
C255   C     0.77719   0.22057   0.44681   0.00000  Uiso   1.00
C256   C     0.92644   0.10856   0.07413   0.00000  Uiso   1.00
C257   C     0.91329   0.06405   0.08793   0.00000  Uiso   1.00
C258   C     0.94921   0.04887   0.10220   0.00000  Uiso   1.00
C259   C     0.88886   0.00921   0.20722   0.00000  Uiso   1.00
C260   C     0.92599   0.01656   0.22981   0.00000  Uiso   1.00
C261   C     0.80734   0.21515   0.00916   0.00000  Uiso   1.00
C262   C     0.77277   0.32777   0.29378   0.00000  Uiso   1.00
C263   C     0.73955   0.02499   0.31305   0.00000  Uiso   1.00
C264   C     0.93045   0.08417   0.47596   0.00000  Uiso   1.00
C265   C     0.96435   0.11146   0.44310   0.00000  Uiso   1.00
C266   C     0.99993   0.08697   0.41373   0.00000  Uiso   1.00
C267   C     0.78310   0.15851   0.08885   0.00000  Uiso   1.00
C268   C     0.75686   0.11524   0.09193   0.00000  Uiso   1.00
C269   C     0.71238   0.11650   0.12464   0.00000  Uiso   1.00
C270   C     0.74291   0.23571   0.42990   0.00000  Uiso   1.00
C271   C     0.75841   0.27700   0.40907   0.00000  Uiso   1.00
C272   C     0.81971   0.17632   0.49024   0.00000  Uiso   1.00
C273   C     0.76549   0.27422   0.01704   0.00000  Uiso   1.00
C274   C     0.80083   0.31119   0.01447   0.00000  Uiso   1.00
C275   C     0.80437   0.09222   0.39984   0.00000  Uiso   1.00
C276   C     0.77836   0.05614   0.42607   0.00000  Uiso   1.00
C277   C     0.69078   0.20963   0.20487   0.00000  Uiso   1.00
C278   C     0.68717   0.25461   0.22479   0.00000  Uiso   1.00
C279   C     0.71887   0.28495   0.19427   0.00000  Uiso   1.00
C280   C     0.81603   0.16194   0.44635   0.00000  Uiso   1.00
C281   C     0.83866   0.15268   0.01309   0.00000  Uiso   1.00
C282   C     0.86566   0.12360   0.48748   0.00000  Uiso   1.00
C283   C     0.85860   0.10719   0.44548   0.00000  Uiso   1.00
C284   C     0.82833   0.12219   0.42892   0.00000  Uiso   1.00
H285   H     0.98560   0.13550   0.28419   0.00000  Uiso   1.00
H286   H     0.92962   0.12968   0.10432   0.00000  Uiso   1.00
H287   H     0.91816   0.03805   0.26085   0.00000  Uiso   1.00
H288   H     0.93239   0.32014   0.23875   0.00000  Uiso   1.00
H289   H     0.95569   0.03057   0.20632   0.00000  Uiso   1.00
H290   H     0.89778   0.32175   0.17581   0.00000  Uiso   1.00
H291   H     0.88496   0.03888   0.19601   0.00000  Uiso   1.00
H292   H     0.75290   0.05201   0.33270   0.00000  Uiso   1.00
H293   H     0.72945   0.03591   0.28545   0.00000  Uiso   1.00
H294   H     0.71052   0.00919   0.33587   0.00000  Uiso   1.00
H295   H     0.75725   0.30241   0.27397   0.00000  Uiso   1.00
H296   H     0.87213   0.07977   0.42784   0.00000  Uiso   1.00
H297   H     0.77901   0.31536   0.32277   0.00000  Uiso   1.00
H298   H     0.68336   0.07454   0.43507   0.00000  Uiso   1.00
H299   H     0.98610   0.06088   0.39325   0.00000  Uiso   1.00
H300   H     0.69063   0.10761   0.39057   0.00000  Uiso   1.00
H301   H     0.94895   0.12433   0.42078   0.00000  Uiso   1.00
H302   H     0.97918   0.13780   0.46252   0.00000  Uiso   1.00
H303   H     0.94743   0.06968   0.49521   0.00000  Uiso   1.00
H304   H     0.91571   0.05723   0.45743   0.00000  Uiso   1.00
H305   H     0.71541   0.12979   0.15853   0.00000  Uiso   1.00
H306   H     0.69291   0.13527   0.11236   0.00000  Uiso   1.00
H307   H     0.81435   0.22847   0.04067   0.00000  Uiso   1.00
H308   H     0.69560   0.08445   0.12761   0.00000  Uiso   1.00
H309   H     0.75292   0.10268   0.05798   0.00000  Uiso   1.00
H310   H     0.77400   0.09349   0.10321   0.00000  Uiso   1.00
H311   H     0.78290   0.17404   0.12293   0.00000  Uiso   1.00
H312   H     0.76559   0.17749   0.07471   0.00000  Uiso   1.00
H313   H     0.76111   0.30255   0.43545   0.00000  Uiso   1.00
H314   H     0.79035   0.27653   0.38430   0.00000  Uiso   1.00
H315   H     0.73463   0.28350   0.39183   0.00000  Uiso   1.00
H316   H     0.73150   0.21215   0.40529   0.00000  Uiso   1.00
H317   H     0.71325   0.23850   0.45775   0.00000  Uiso   1.00
H318   H     0.94051   0.01562   0.10819   0.00000  Uiso   1.00
H319   H     0.82584   0.30517   0.03036   0.00000  Uiso   1.00
H320   H     0.81637   0.31729   0.47881   0.00000  Uiso   1.00
H321   H     0.78660   0.00592   0.03265   0.00000  Uiso   1.00
H322   H     0.73856   0.28309   0.00636   0.00000  Uiso   1.00
H323   H     0.75174   0.26773   0.05293   0.00000  Uiso   1.00
H324   H     0.80023   0.03750   0.43475   0.00000  Uiso   1.00
H325   H     0.75584   0.06788   0.45757   0.00000  Uiso   1.00
H326   H     0.75922   0.03579   0.40520   0.00000  Uiso   1.00
H327   H     0.78089   0.10720   0.38909   0.00000  Uiso   1.00
H328   H     0.82774   0.07997   0.36939   0.00000  Uiso   1.00
H329   H     0.97991   0.05214   0.07527   0.00000  Uiso   1.00
H330   H     0.75258   0.27911   0.19024   0.00000  Uiso   1.00
H331   H     0.71220   0.28173   0.16058   0.00000  Uiso   1.00
H332   H     0.71542   0.31719   0.20954   0.00000  Uiso   1.00
H333   H     0.98721   0.26188   0.22917   0.00000  Uiso   1.00
H334   H     0.69403   0.25882   0.25845   0.00000  Uiso   1.00
H335   H     0.72492   0.20383   0.19752   0.00000  Uiso   1.00
H336   H     0.68246   0.20489   0.17191   0.00000  Uiso   1.00
H337   H     0.95373   0.06692   0.13379   0.00000  Uiso   1.00
H338   H     0.88375   0.06296   0.11649   0.00000  Uiso   1.00
H339   H     0.90566   0.04252   0.05964   0.00000  Uiso   1.00
H340   H     0.95934   0.11248   0.05097   0.00000  Uiso   1.00
O341   O     0.83333   0.16667   0.25000   0.00000  Uiso   1.00
O342   O     0.82118   0.12637   0.15458   0.00000  Uiso   1.00
O343   O     0.79607   0.20391   0.34968   0.00000  Uiso   1.00
O344   O     0.87491   0.17759   0.14606   0.00000  Uiso   1.00
O345   O     0.84118   0.15880   0.34968   0.00000  Uiso   1.00
O346   O     0.84597   0.08019   0.28213   0.00000  Uiso   1.00
O347   O     0.81298   0.26085   0.27013   0.00000  Uiso   1.00
O348   O     0.74078   0.13291   0.23413   0.00000  Uiso   1.00
O349   O     0.93360   0.19272   0.21360   0.00000  Uiso   1.00
O350   O     0.73738   0.18878   0.28213   0.00000  Uiso   1.00
O351   O     0.92158   0.15226   0.27013   0.00000  Uiso   1.00
O352   O     0.80426   0.06944   0.23413   0.00000  Uiso   1.00
O353   O     0.87012   0.25620   0.21360   0.00000  Uiso   1.00
Zn354  Zn    0.86005   0.13994   0.28734   0.00000  Uiso   1.00
Zn355  Zn    0.80046   0.12458   0.21875   0.00000  Uiso   1.00
Zn356  Zn    0.87723   0.19775   0.20657   0.00000  Uiso   1.00
Zn357  Zn    0.79560   0.20439   0.28733   0.00000  Uiso   1.00
C358   C     0.05255   0.49252   0.26057   0.00000  Uiso   1.00
C359   C     0.16265   0.48811   0.06045   0.00000  Uiso   1.00
C360   C     0.22719   0.45432   0.05262   0.00000  Uiso   1.00
C361   C     0.28088   0.50776   0.24008   0.00000  Uiso   1.00
C362   C     0.13355   0.52079   0.42215   0.00000  Uiso   1.00
C363   C     0.32720   0.51291   0.23670   0.00000  Uiso   1.00
C364   C     0.00764   0.49075   0.26247   0.00000  Uiso   1.00
C365   C     0.18081   0.65629   0.23852   0.00000  Uiso   1.00
C366   C     0.14933   0.34577   0.26376   0.00000  Uiso   1.00
C367   C     0.15573   0.38958   0.26011   0.00000  Uiso   1.00
C368   C     0.17643   0.61137   0.24046   0.00000  Uiso   1.00
C369   C     0.11672   0.56928   0.48991   0.00000  Uiso   1.00
C370   C     0.18527   0.48152   0.12903   0.00000  Uiso   1.00
C371   C     0.14621   0.51640   0.37154   0.00000  Uiso   1.00
C372   C     0.22902   0.44271   0.00615   0.00000  Uiso   1.00
C373   C     0.19218   0.47477   0.07988   0.00000  Uiso   1.00
C374   C     0.11052   0.55390   0.44681   0.00000  Uiso   1.00
C375   C     0.25978   0.44189   0.07413   0.00000  Uiso   1.00
C376   C     0.24663   0.39738   0.08793   0.00000  Uiso   1.00
C377   C     0.28254   0.38221   0.10220   0.00000  Uiso   1.00
C378   C     0.22219   0.34254   0.20722   0.00000  Uiso   1.00
C379   C     0.25933   0.34989   0.22981   0.00000  Uiso   1.00
C380   C     0.14067   0.54848   0.00916   0.00000  Uiso   1.00
C381   C     0.10611   0.66110   0.29378   0.00000  Uiso   1.00
C382   C     0.07289   0.35832   0.31305   0.00000  Uiso   1.00
C383   C     0.26378   0.41751   0.47596   0.00000  Uiso   1.00
C384   C     0.29768   0.44479   0.44310   0.00000  Uiso   1.00
C385   C     0.33326   0.42031   0.41373   0.00000  Uiso   1.00
C386   C     0.11643   0.49185   0.08885   0.00000  Uiso   1.00
C387   C     0.09020   0.44857   0.09193   0.00000  Uiso   1.00
C388   C     0.04571   0.44983   0.12464   0.00000  Uiso   1.00
C389   C     0.07625   0.56904   0.42990   0.00000  Uiso   1.00
C390   C     0.09175   0.61033   0.40907   0.00000  Uiso   1.00
C391   C     0.15305   0.50966   0.49024   0.00000  Uiso   1.00
C392   C     0.09882   0.60756   0.01704   0.00000  Uiso   1.00
C393   C     0.13417   0.64453   0.01447   0.00000  Uiso   1.00
C394   C     0.13770   0.42555   0.39984   0.00000  Uiso   1.00
C395   C     0.11170   0.38947   0.42607   0.00000  Uiso   1.00
C396   C     0.02412   0.54296   0.20487   0.00000  Uiso   1.00
C397   C     0.02050   0.58794   0.22479   0.00000  Uiso   1.00
C398   C     0.05220   0.61828   0.19427   0.00000  Uiso   1.00
C399   C     0.14936   0.49528   0.44635   0.00000  Uiso   1.00
C400   C     0.17200   0.48601   0.01309   0.00000  Uiso   1.00
C401   C     0.19900   0.45694   0.48748   0.00000  Uiso   1.00
C402   C     0.19193   0.44052   0.44548   0.00000  Uiso   1.00
C403   C     0.16166   0.45552   0.42892   0.00000  Uiso   1.00
H404   H     0.31893   0.46883   0.28419   0.00000  Uiso   1.00
H405   H     0.26296   0.46301   0.10432   0.00000  Uiso   1.00
H406   H     0.25149   0.37139   0.26085   0.00000  Uiso   1.00
H407   H     0.26573   0.65348   0.23875   0.00000  Uiso   1.00
H408   H     0.28902   0.36390   0.20632   0.00000  Uiso   1.00
H409   H     0.23112   0.65508   0.17581   0.00000  Uiso   1.00
H410   H     0.21829   0.37221   0.19601   0.00000  Uiso   1.00
H411   H     0.08624   0.38535   0.33270   0.00000  Uiso   1.00
H412   H     0.06278   0.36924   0.28545   0.00000  Uiso   1.00
H413   H     0.04385   0.34253   0.33587   0.00000  Uiso   1.00
H414   H     0.09058   0.63575   0.27397   0.00000  Uiso   1.00
H415   H     0.20547   0.41311   0.42784   0.00000  Uiso   1.00
H416   H     0.11234   0.64869   0.32277   0.00000  Uiso   1.00
H417   H     0.01670   0.40788   0.43507   0.00000  Uiso   1.00
H418   H     0.31943   0.39421   0.39325   0.00000  Uiso   1.00
H419   H     0.02396   0.44094   0.39057   0.00000  Uiso   1.00
H420   H     0.28228   0.45766   0.42078   0.00000  Uiso   1.00
H421   H     0.31252   0.47114   0.46252   0.00000  Uiso   1.00
H422   H     0.28076   0.40301   0.49521   0.00000  Uiso   1.00
H423   H     0.24905   0.39056   0.45743   0.00000  Uiso   1.00
H424   H     0.04874   0.46312   0.15853   0.00000  Uiso   1.00
H425   H     0.02625   0.46861   0.11236   0.00000  Uiso   1.00
H426   H     0.14769   0.56181   0.04067   0.00000  Uiso   1.00
H427   H     0.02894   0.41779   0.12761   0.00000  Uiso   1.00
H428   H     0.08626   0.43601   0.05798   0.00000  Uiso   1.00
H429   H     0.10734   0.42682   0.10321   0.00000  Uiso   1.00
H430   H     0.11623   0.50737   0.12293   0.00000  Uiso   1.00
H431   H     0.09892   0.51083   0.07471   0.00000  Uiso   1.00
H432   H     0.09444   0.63588   0.43545   0.00000  Uiso   1.00
H433   H     0.12369   0.60987   0.38430   0.00000  Uiso   1.00
H434   H     0.06796   0.61683   0.39183   0.00000  Uiso   1.00
H435   H     0.06483   0.54548   0.40529   0.00000  Uiso   1.00
H436   H     0.04658   0.57183   0.45775   0.00000  Uiso   1.00
H437   H     0.27385   0.34896   0.10819   0.00000  Uiso   1.00
H438   H     0.15917   0.63850   0.03036   0.00000  Uiso   1.00
H439   H     0.14970   0.65063   0.47881   0.00000  Uiso   1.00
H440   H     0.11993   0.33925   0.03265   0.00000  Uiso   1.00
H441   H     0.07190   0.61642   0.00636   0.00000  Uiso   1.00
H442   H     0.08508   0.60106   0.05293   0.00000  Uiso   1.00
H443   H     0.13356   0.37083   0.43475   0.00000  Uiso   1.00
H444   H     0.08917   0.40122   0.45757   0.00000  Uiso   1.00
H445   H     0.09255   0.36913   0.40520   0.00000  Uiso   1.00
H446   H     0.11422   0.44053   0.38909   0.00000  Uiso   1.00
H447   H     0.16107   0.41330   0.36939   0.00000  Uiso   1.00
H448   H     0.31324   0.38547   0.07527   0.00000  Uiso   1.00
H449   H     0.08591   0.61244   0.19024   0.00000  Uiso   1.00
H450   H     0.04553   0.61507   0.16058   0.00000  Uiso   1.00
H451   H     0.04875   0.65053   0.20954   0.00000  Uiso   1.00
H452   H     0.32054   0.59521   0.22917   0.00000  Uiso   1.00
H453   H     0.02737   0.59216   0.25845   0.00000  Uiso   1.00
H454   H     0.05826   0.53717   0.19752   0.00000  Uiso   1.00
H455   H     0.01579   0.53822   0.17191   0.00000  Uiso   1.00
H456   H     0.28707   0.40025   0.13379   0.00000  Uiso   1.00
H457   H     0.21708   0.39630   0.11649   0.00000  Uiso   1.00
H458   H     0.23899   0.37585   0.05964   0.00000  Uiso   1.00
H459   H     0.29267   0.44581   0.05097   0.00000  Uiso   1.00
O460   O     0.16667   0.50000   0.25000   0.00000  Uiso   1.00
O461   O     0.15451   0.45970   0.15458   0.00000  Uiso   1.00
O462   O     0.12940   0.53724   0.34968   0.00000  Uiso   1.00
O463   O     0.20824   0.51092   0.14606   0.00000  Uiso   1.00
O464   O     0.17451   0.49213   0.34968   0.00000  Uiso   1.00
O465   O     0.17930   0.41352   0.28213   0.00000  Uiso   1.00
O466   O     0.14632   0.59418   0.27013   0.00000  Uiso   1.00
O467   O     0.07412   0.46625   0.23413   0.00000  Uiso   1.00
O468   O     0.26693   0.52605   0.21360   0.00000  Uiso   1.00
O469   O     0.07071   0.52211   0.28213   0.00000  Uiso   1.00
O470   O     0.25491   0.48559   0.27013   0.00000  Uiso   1.00
O471   O     0.13760   0.40277   0.23413   0.00000  Uiso   1.00
O472   O     0.20345   0.58953   0.21360   0.00000  Uiso   1.00
Zn473  Zn    0.19338   0.47327   0.28734   0.00000  Uiso   1.00
Zn474  Zn    0.13379   0.45791   0.21875   0.00000  Uiso   1.00
Zn475  Zn    0.21056   0.53109   0.20657   0.00000  Uiso   1.00
Zn476  Zn    0.12893   0.53773   0.28733   0.00000  Uiso   1.00
C477   C     0.38589   0.49252   0.26057   0.00000  Uiso   1.00
C478   C     0.49598   0.48811   0.06045   0.00000  Uiso   1.00
C479   C     0.56052   0.45432   0.05262   0.00000  Uiso   1.00
C480   C     0.61421   0.50776   0.24008   0.00000  Uiso   1.00
C481   C     0.46689   0.52079   0.42215   0.00000  Uiso   1.00
C482   C     0.66053   0.51291   0.23670   0.00000  Uiso   1.00
C483   C     0.34097   0.49075   0.26247   0.00000  Uiso   1.00
C484   C     0.51414   0.65629   0.23852   0.00000  Uiso   1.00
C485   C     0.48267   0.34577   0.26376   0.00000  Uiso   1.00
C486   C     0.48907   0.38958   0.26011   0.00000  Uiso   1.00
C487   C     0.50977   0.61137   0.24046   0.00000  Uiso   1.00
C488   C     0.45005   0.56928   0.48991   0.00000  Uiso   1.00
C489   C     0.51861   0.48152   0.12903   0.00000  Uiso   1.00
C490   C     0.47954   0.51640   0.37154   0.00000  Uiso   1.00
C491   C     0.56236   0.44271   0.00615   0.00000  Uiso   1.00
C492   C     0.52552   0.47477   0.07988   0.00000  Uiso   1.00
C493   C     0.44386   0.55390   0.44681   0.00000  Uiso   1.00
C494   C     0.59311   0.44189   0.07413   0.00000  Uiso   1.00
C495   C     0.57996   0.39738   0.08793   0.00000  Uiso   1.00
C496   C     0.61588   0.38221   0.10220   0.00000  Uiso   1.00
C497   C     0.55553   0.34254   0.20722   0.00000  Uiso   1.00
C498   C     0.59266   0.34989   0.22981   0.00000  Uiso   1.00
C499   C     0.47400   0.54848   0.00916   0.00000  Uiso   1.00
C500   C     0.43944   0.66110   0.29378   0.00000  Uiso   1.00
C501   C     0.40622   0.35832   0.31305   0.00000  Uiso   1.00
C502   C     0.59711   0.41751   0.47596   0.00000  Uiso   1.00
C503   C     0.63101   0.44479   0.44310   0.00000  Uiso   1.00
C504   C     0.66660   0.42031   0.41373   0.00000  Uiso   1.00
C505   C     0.44977   0.49185   0.08885   0.00000  Uiso   1.00
C506   C     0.42353   0.44857   0.09193   0.00000  Uiso   1.00
C507   C     0.37904   0.44983   0.12464   0.00000  Uiso   1.00
C508   C     0.40958   0.56904   0.42990   0.00000  Uiso   1.00
C509   C     0.42508   0.61033   0.40907   0.00000  Uiso   1.00
C510   C     0.48638   0.50966   0.49024   0.00000  Uiso   1.00
C511   C     0.43215   0.60756   0.01704   0.00000  Uiso   1.00
C512   C     0.46750   0.64453   0.01447   0.00000  Uiso   1.00
C513   C     0.47103   0.42555   0.39984   0.00000  Uiso   1.00
C514   C     0.44503   0.38947   0.42607   0.00000  Uiso   1.00
C515   C     0.35745   0.54296   0.20487   0.00000  Uiso   1.00
C516   C     0.35383   0.58794   0.22479   0.00000  Uiso   1.00
C517   C     0.38554   0.61828   0.19427   0.00000  Uiso   1.00
C518   C     0.48269   0.49528   0.44635   0.00000  Uiso   1.00
C519   C     0.50533   0.48601   0.01309   0.00000  Uiso   1.00
C520   C     0.53233   0.45694   0.48748   0.00000  Uiso   1.00
C521   C     0.52526   0.44052   0.44548   0.00000  Uiso   1.00
C522   C     0.49500   0.45552   0.42892   0.00000  Uiso   1.00
H523   H     0.65227   0.46883   0.28419   0.00000  Uiso   1.00
H524   H     0.59629   0.46301   0.10432   0.00000  Uiso   1.00
H525   H     0.58483   0.37139   0.26085   0.00000  Uiso   1.00
H526   H     0.59906   0.65348   0.23875   0.00000  Uiso   1.00
H527   H     0.62236   0.36390   0.20632   0.00000  Uiso   1.00
H528   H     0.56445   0.65508   0.17581   0.00000  Uiso   1.00
H529   H     0.55162   0.37221   0.19601   0.00000  Uiso   1.00
H530   H     0.41957   0.38535   0.33270   0.00000  Uiso   1.00
H531   H     0.39612   0.36924   0.28545   0.00000  Uiso   1.00
H532   H     0.37718   0.34253   0.33587   0.00000  Uiso   1.00
H533   H     0.42392   0.63575   0.27397   0.00000  Uiso   1.00
H534   H     0.53880   0.41311   0.42784   0.00000  Uiso   1.00
H535   H     0.44568   0.64869   0.32277   0.00000  Uiso   1.00
H536   H     0.35003   0.40788   0.43507   0.00000  Uiso   1.00
H537   H     0.65277   0.39421   0.39325   0.00000  Uiso   1.00
H538   H     0.35730   0.44094   0.39057   0.00000  Uiso   1.00
H539   H     0.61561   0.45766   0.42078   0.00000  Uiso   1.00
H540   H     0.64585   0.47114   0.46252   0.00000  Uiso   1.00
H541   H     0.61410   0.40301   0.49521   0.00000  Uiso   1.00
H542   H     0.58238   0.39056   0.45743   0.00000  Uiso   1.00
H543   H     0.38207   0.46312   0.15853   0.00000  Uiso   1.00
H544   H     0.35958   0.46861   0.11236   0.00000  Uiso   1.00
H545   H     0.48102   0.56181   0.04067   0.00000  Uiso   1.00
H546   H     0.36227   0.41779   0.12761   0.00000  Uiso   1.00
H547   H     0.41959   0.43601   0.05798   0.00000  Uiso   1.00
H548   H     0.44067   0.42682   0.10321   0.00000  Uiso   1.00
H549   H     0.44957   0.50737   0.12293   0.00000  Uiso   1.00
H550   H     0.43226   0.51083   0.07471   0.00000  Uiso   1.00
H551   H     0.42778   0.63588   0.43545   0.00000  Uiso   1.00
H552   H     0.45702   0.60987   0.38430   0.00000  Uiso   1.00
H553   H     0.40130   0.61683   0.39183   0.00000  Uiso   1.00
H554   H     0.39816   0.54548   0.40529   0.00000  Uiso   1.00
H555   H     0.37992   0.57183   0.45775   0.00000  Uiso   1.00
H556   H     0.60718   0.34896   0.10819   0.00000  Uiso   1.00
H557   H     0.49251   0.63850   0.03036   0.00000  Uiso   1.00
H558   H     0.48304   0.65063   0.47881   0.00000  Uiso   1.00
H559   H     0.45327   0.33925   0.03265   0.00000  Uiso   1.00
H560   H     0.40523   0.61642   0.00636   0.00000  Uiso   1.00
H561   H     0.41841   0.60106   0.05293   0.00000  Uiso   1.00
H562   H     0.46689   0.37083   0.43475   0.00000  Uiso   1.00
H563   H     0.42251   0.40122   0.45757   0.00000  Uiso   1.00
H564   H     0.42589   0.36913   0.40520   0.00000  Uiso   1.00
H565   H     0.44756   0.44053   0.38909   0.00000  Uiso   1.00
H566   H     0.49440   0.41330   0.36939   0.00000  Uiso   1.00
H567   H     0.64657   0.38547   0.07527   0.00000  Uiso   1.00
H568   H     0.41925   0.61244   0.19024   0.00000  Uiso   1.00
H569   H     0.37886   0.61507   0.16058   0.00000  Uiso   1.00
H570   H     0.38209   0.65053   0.20954   0.00000  Uiso   1.00
H571   H     0.65388   0.59521   0.22917   0.00000  Uiso   1.00
H572   H     0.36070   0.59216   0.25845   0.00000  Uiso   1.00
H573   H     0.39159   0.53717   0.19752   0.00000  Uiso   1.00
H574   H     0.34913   0.53822   0.17191   0.00000  Uiso   1.00
H575   H     0.62040   0.40025   0.13379   0.00000  Uiso   1.00
H576   H     0.55042   0.39630   0.11649   0.00000  Uiso   1.00
H577   H     0.57233   0.37585   0.05964   0.00000  Uiso   1.00
H578   H     0.62600   0.44581   0.05097   0.00000  Uiso   1.00
O579   O     0.50000   0.50000   0.25000   0.00000  Uiso   1.00
O580   O     0.48784   0.45970   0.15458   0.00000  Uiso   1.00
O581   O     0.46274   0.53724   0.34968   0.00000  Uiso   1.00
O582   O     0.54157   0.51092   0.14606   0.00000  Uiso   1.00
O583   O     0.50785   0.49213   0.34968   0.00000  Uiso   1.00
O584   O     0.51264   0.41352   0.28213   0.00000  Uiso   1.00
O585   O     0.47965   0.59418   0.27013   0.00000  Uiso   1.00
O586   O     0.40745   0.46625   0.23413   0.00000  Uiso   1.00
O587   O     0.60026   0.52605   0.21360   0.00000  Uiso   1.00
O588   O     0.40405   0.52211   0.28213   0.00000  Uiso   1.00
O589   O     0.58824   0.48559   0.27013   0.00000  Uiso   1.00
O590   O     0.47093   0.40277   0.23413   0.00000  Uiso   1.00
O591   O     0.53678   0.58953   0.21360   0.00000  Uiso   1.00
Zn592  Zn    0.52672   0.47327   0.28734   0.00000  Uiso   1.00
Zn593  Zn    0.46713   0.45791   0.21875   0.00000  Uiso   1.00
Zn594  Zn    0.54389   0.53109   0.20657   0.00000  Uiso   1.00
Zn595  Zn    0.46226   0.53773   0.28733   0.00000  Uiso   1.00
C596   C     0.71922   0.49252   0.26057   0.00000  Uiso   1.00
C597   C     0.82932   0.48811   0.06045   0.00000  Uiso   1.00
C598   C     0.89385   0.45432   0.05262   0.00000  Uiso   1.00
C599   C     0.94755   0.50776   0.24008   0.00000  Uiso   1.00
C600   C     0.80022   0.52079   0.42215   0.00000  Uiso   1.00
C601   C     0.99386   0.51291   0.23670   0.00000  Uiso   1.00
C602   C     0.67430   0.49075   0.26247   0.00000  Uiso   1.00
C603   C     0.84748   0.65629   0.23852   0.00000  Uiso   1.00
C604   C     0.81600   0.34577   0.26376   0.00000  Uiso   1.00
C605   C     0.82240   0.38958   0.26011   0.00000  Uiso   1.00
C606   C     0.84310   0.61137   0.24046   0.00000  Uiso   1.00
C607   C     0.78339   0.56928   0.48991   0.00000  Uiso   1.00
C608   C     0.85194   0.48152   0.12903   0.00000  Uiso   1.00
C609   C     0.81288   0.51640   0.37154   0.00000  Uiso   1.00
C610   C     0.89569   0.44271   0.00615   0.00000  Uiso   1.00
C611   C     0.85885   0.47477   0.07988   0.00000  Uiso   1.00
C612   C     0.77719   0.55390   0.44681   0.00000  Uiso   1.00
C613   C     0.92644   0.44189   0.07413   0.00000  Uiso   1.00
C614   C     0.91329   0.39738   0.08793   0.00000  Uiso   1.00
C615   C     0.94921   0.38221   0.10220   0.00000  Uiso   1.00
C616   C     0.88886   0.34254   0.20722   0.00000  Uiso   1.00
C617   C     0.92599   0.34989   0.22981   0.00000  Uiso   1.00
C618   C     0.80734   0.54848   0.00916   0.00000  Uiso   1.00
C619   C     0.77277   0.66110   0.29378   0.00000  Uiso   1.00
C620   C     0.73955   0.35832   0.31305   0.00000  Uiso   1.00
C621   C     0.93045   0.41751   0.47596   0.00000  Uiso   1.00
C622   C     0.96435   0.44479   0.44310   0.00000  Uiso   1.00
C623   C     0.99993   0.42031   0.41373   0.00000  Uiso   1.00
C624   C     0.78310   0.49185   0.08885   0.00000  Uiso   1.00
C625   C     0.75686   0.44857   0.09193   0.00000  Uiso   1.00
C626   C     0.71238   0.44983   0.12464   0.00000  Uiso   1.00
C627   C     0.74291   0.56904   0.42990   0.00000  Uiso   1.00
C628   C     0.75841   0.61033   0.40907   0.00000  Uiso   1.00
C629   C     0.81971   0.50966   0.49024   0.00000  Uiso   1.00
C630   C     0.76549   0.60756   0.01704   0.00000  Uiso   1.00
C631   C     0.80083   0.64453   0.01447   0.00000  Uiso   1.00
C632   C     0.80437   0.42555   0.39984   0.00000  Uiso   1.00
C633   C     0.77836   0.38947   0.42607   0.00000  Uiso   1.00
C634   C     0.69078   0.54296   0.20487   0.00000  Uiso   1.00
C635   C     0.68717   0.58794   0.22479   0.00000  Uiso   1.00
C636   C     0.71887   0.61828   0.19427   0.00000  Uiso   1.00
C637   C     0.81603   0.49528   0.44635   0.00000  Uiso   1.00
C638   C     0.83866   0.48601   0.01309   0.00000  Uiso   1.00
C639   C     0.86566   0.45694   0.48748   0.00000  Uiso   1.00
C640   C     0.85860   0.44052   0.44548   0.00000  Uiso   1.00
C641   C     0.82833   0.45552   0.42892   0.00000  Uiso   1.00
H642   H     0.98560   0.46883   0.28419   0.00000  Uiso   1.00
H643   H     0.92962   0.46301   0.10432   0.00000  Uiso   1.00
H644   H     0.91816   0.37139   0.26085   0.00000  Uiso   1.00
H645   H     0.93239   0.65348   0.23875   0.00000  Uiso   1.00
H646   H     0.95569   0.36390   0.20632   0.00000  Uiso   1.00
H647   H     0.89778   0.65508   0.17581   0.00000  Uiso   1.00
H648   H     0.88496   0.37221   0.19601   0.00000  Uiso   1.00
H649   H     0.75290   0.38535   0.33270   0.00000  Uiso   1.00
H650   H     0.72945   0.36924   0.28545   0.00000  Uiso   1.00
H651   H     0.71052   0.34253   0.33587   0.00000  Uiso   1.00
H652   H     0.75725   0.63575   0.27397   0.00000  Uiso   1.00
H653   H     0.87213   0.41311   0.42784   0.00000  Uiso   1.00
H654   H     0.77901   0.64869   0.32277   0.00000  Uiso   1.00
H655   H     0.68336   0.40788   0.43507   0.00000  Uiso   1.00
H656   H     0.98610   0.39421   0.39325   0.00000  Uiso   1.00
H657   H     0.69063   0.44094   0.39057   0.00000  Uiso   1.00
H658   H     0.94895   0.45766   0.42078   0.00000  Uiso   1.00
H659   H     0.97918   0.47114   0.46252   0.00000  Uiso   1.00
H660   H     0.94743   0.40301   0.49521   0.00000  Uiso   1.00
H661   H     0.91571   0.39056   0.45743   0.00000  Uiso   1.00
H662   H     0.71541   0.46312   0.15853   0.00000  Uiso   1.00
H663   H     0.69291   0.46861   0.11236   0.00000  Uiso   1.00
H664   H     0.81435   0.56181   0.04067   0.00000  Uiso   1.00
H665   H     0.69560   0.41779   0.12761   0.00000  Uiso   1.00
H666   H     0.75292   0.43601   0.05798   0.00000  Uiso   1.00
H667   H     0.77400   0.42682   0.10321   0.00000  Uiso   1.00
H668   H     0.78290   0.50737   0.12293   0.00000  Uiso   1.00
H669   H     0.76559   0.51083   0.07471   0.00000  Uiso   1.00
H670   H     0.76111   0.63588   0.43545   0.00000  Uiso   1.00
H671   H     0.79035   0.60987   0.38430   0.00000  Uiso   1.00
H672   H     0.73463   0.61683   0.39183   0.00000  Uiso   1.00
H673   H     0.73150   0.54548   0.40529   0.00000  Uiso   1.00
H674   H     0.71325   0.57183   0.45775   0.00000  Uiso   1.00
H675   H     0.94051   0.34896   0.10819   0.00000  Uiso   1.00
H676   H     0.82584   0.63850   0.03036   0.00000  Uiso   1.00
H677   H     0.81637   0.65063   0.47881   0.00000  Uiso   1.00
H678   H     0.78660   0.33925   0.03265   0.00000  Uiso   1.00
H679   H     0.73856   0.61642   0.00636   0.00000  Uiso   1.00
H680   H     0.75174   0.60106   0.05293   0.00000  Uiso   1.00
H681   H     0.80023   0.37083   0.43475   0.00000  Uiso   1.00
H682   H     0.75584   0.40122   0.45757   0.00000  Uiso   1.00
H683   H     0.75922   0.36913   0.40520   0.00000  Uiso   1.00
H684   H     0.78089   0.44053   0.38909   0.00000  Uiso   1.00
H685   H     0.82774   0.41330   0.36939   0.00000  Uiso   1.00
H686   H     0.97991   0.38547   0.07527   0.00000  Uiso   1.00
H687   H     0.75258   0.61244   0.19024   0.00000  Uiso   1.00
H688   H     0.71220   0.61507   0.16058   0.00000  Uiso   1.00
H689   H     0.71542   0.65053   0.20954   0.00000  Uiso   1.00
H690   H     0.98721   0.59521   0.22917   0.00000  Uiso   1.00
H691   H     0.69403   0.59216   0.25845   0.00000  Uiso   1.00
H692   H     0.72492   0.53717   0.19752   0.00000  Uiso   1.00
H693   H     0.68246   0.53822   0.17191   0.00000  Uiso   1.00
H694   H     0.95373   0.40025   0.13379   0.00000  Uiso   1.00
H695   H     0.88375   0.39630   0.11649   0.00000  Uiso   1.00
H696   H     0.90566   0.37585   0.05964   0.00000  Uiso   1.00
H697   H     0.95934   0.44581   0.05097   0.00000  Uiso   1.00
O698   O     0.83333   0.50000   0.25000   0.00000  Uiso   1.00
O699   O     0.82118   0.45970   0.15458   0.00000  Uiso   1.00
O700   O     0.79607   0.53724   0.34968   0.00000  Uiso   1.00
O701   O     0.87491   0.51092   0.14606   0.00000  Uiso   1.00
O702   O     0.84118   0.49213   0.34968   0.00000  Uiso   1.00
O703   O     0.84597   0.41352   0.28213   0.00000  Uiso   1.00
O704   O     0.81298   0.59418   0.27013   0.00000  Uiso   1.00
O705   O     0.74078   0.46625   0.23413   0.00000  Uiso   1.00
O706   O     0.93360   0.52605   0.21360   0.00000  Uiso   1.00
O707   O     0.73738   0.52211   0.28213   0.00000  Uiso   1.00
O708   O     0.92158   0.48559   0.27013   0.00000  Uiso   1.00
O709   O     0.80426   0.40277   0.23413   0.00000  Uiso   1.00
O710   O     0.87012   0.58953   0.21360   0.00000  Uiso   1.00
Zn711  Zn    0.86005   0.47327   0.28734   0.00000  Uiso   1.00
Zn712  Zn    0.80046   0.45791   0.21875   0.00000  Uiso   1.00
Zn713  Zn    0.87723   0.53109   0.20657   0.00000  Uiso   1.00
Zn714  Zn    0.79560   0.53773   0.28733   0.00000  Uiso   1.00
C715   C     0.05255   0.82586   0.26057   0.00000  Uiso   1.00
C716   C     0.16265   0.82144   0.06045   0.00000  Uiso   1.00
C717   C     0.22719   0.78766   0.05262   0.00000  Uiso   1.00
C718   C     0.28088   0.84110   0.24008   0.00000  Uiso   1.00
C719   C     0.13355   0.85413   0.42215   0.00000  Uiso   1.00
C720   C     0.32720   0.84624   0.23670   0.00000  Uiso   1.00
C721   C     0.00764   0.82408   0.26247   0.00000  Uiso   1.00
C722   C     0.18081   0.98963   0.23852   0.00000  Uiso   1.00
C723   C     0.14933   0.67910   0.26376   0.00000  Uiso   1.00
C724   C     0.15573   0.72291   0.26011   0.00000  Uiso   1.00
C725   C     0.17643   0.94471   0.24046   0.00000  Uiso   1.00
C726   C     0.11672   0.90262   0.48991   0.00000  Uiso   1.00
C727   C     0.18527   0.81486   0.12903   0.00000  Uiso   1.00
C728   C     0.14621   0.84973   0.37154   0.00000  Uiso   1.00
C729   C     0.22902   0.77605   0.00615   0.00000  Uiso   1.00
C730   C     0.19218   0.80810   0.07988   0.00000  Uiso   1.00
C731   C     0.11052   0.88723   0.44681   0.00000  Uiso   1.00
C732   C     0.25978   0.77523   0.07413   0.00000  Uiso   1.00
C733   C     0.24663   0.73072   0.08793   0.00000  Uiso   1.00
C734   C     0.28254   0.71554   0.10220   0.00000  Uiso   1.00
C735   C     0.22219   0.67587   0.20722   0.00000  Uiso   1.00
C736   C     0.25933   0.68323   0.22981   0.00000  Uiso   1.00
C737   C     0.14067   0.88181   0.00916   0.00000  Uiso   1.00
C738   C     0.10611   0.99443   0.29378   0.00000  Uiso   1.00
C739   C     0.07289   0.69166   0.31305   0.00000  Uiso   1.00
C740   C     0.26378   0.75084   0.47596   0.00000  Uiso   1.00
C741   C     0.29768   0.77813   0.44310   0.00000  Uiso   1.00
C742   C     0.33326   0.75364   0.41373   0.00000  Uiso   1.00
C743   C     0.11643   0.82518   0.08885   0.00000  Uiso   1.00
C744   C     0.09020   0.78190   0.09193   0.00000  Uiso   1.00
C745   C     0.04571   0.78317   0.12464   0.00000  Uiso   1.00
C746   C     0.07625   0.90238   0.42990   0.00000  Uiso   1.00
C747   C     0.09175   0.94366   0.40907   0.00000  Uiso   1.00
C748   C     0.15305   0.84299   0.49024   0.00000  Uiso   1.00
C749   C     0.09882   0.94089   0.01704   0.00000  Uiso   1.00
C750   C     0.13417   0.97786   0.01447   0.00000  Uiso   1.00
C751   C     0.13770   0.75888   0.39984   0.00000  Uiso   1.00
C752   C     0.11170   0.72281   0.42607   0.00000  Uiso   1.00
C753   C     0.02412   0.87629   0.20487   0.00000  Uiso   1.00
C754   C     0.02050   0.92128   0.22479   0.00000  Uiso   1.00
C755   C     0.05220   0.95162   0.19427   0.00000  Uiso   1.00
C756   C     0.14936   0.82861   0.44635   0.00000  Uiso   1.00
C757   C     0.17200   0.81934   0.01309   0.00000  Uiso   1.00
C758   C     0.19900   0.79027   0.48748   0.00000  Uiso   1.00
C759   C     0.19193   0.77386   0.44548   0.00000  Uiso   1.00
C760   C     0.16166   0.78886   0.42892   0.00000  Uiso   1.00
H761   H     0.31893   0.80217   0.28419   0.00000  Uiso   1.00
H762   H     0.26296   0.79635   0.10432   0.00000  Uiso   1.00
H763   H     0.25149   0.70472   0.26085   0.00000  Uiso   1.00
H764   H     0.26573   0.98681   0.23875   0.00000  Uiso   1.00
H765   H     0.28902   0.69724   0.20632   0.00000  Uiso   1.00
H766   H     0.23112   0.98842   0.17581   0.00000  Uiso   1.00
H767   H     0.21829   0.70554   0.19601   0.00000  Uiso   1.00
H768   H     0.08624   0.71868   0.33270   0.00000  Uiso   1.00
H769   H     0.06278   0.70258   0.28545   0.00000  Uiso   1.00
H770   H     0.04385   0.67586   0.33587   0.00000  Uiso   1.00
H771   H     0.09058   0.96908   0.27397   0.00000  Uiso   1.00
H772   H     0.20547   0.74644   0.42784   0.00000  Uiso   1.00
H773   H     0.11234   0.98202   0.32277   0.00000  Uiso   1.00
H774   H     0.01670   0.74121   0.43507   0.00000  Uiso   1.00
H775   H     0.31943   0.72755   0.39325   0.00000  Uiso   1.00
H776   H     0.02396   0.77427   0.39057   0.00000  Uiso   1.00
H777   H     0.28228   0.79100   0.42078   0.00000  Uiso   1.00
H778   H     0.31252   0.80447   0.46252   0.00000  Uiso   1.00
H779   H     0.28076   0.73634   0.49521   0.00000  Uiso   1.00
H780   H     0.24905   0.72390   0.45743   0.00000  Uiso   1.00
H781   H     0.04874   0.79646   0.15853   0.00000  Uiso   1.00
H782   H     0.02625   0.80194   0.11236   0.00000  Uiso   1.00
H783   H     0.14769   0.89514   0.04067   0.00000  Uiso   1.00
H784   H     0.02894   0.75112   0.12761   0.00000  Uiso   1.00
H785   H     0.08626   0.76934   0.05798   0.00000  Uiso   1.00
H786   H     0.10734   0.76015   0.10321   0.00000  Uiso   1.00
H787   H     0.11623   0.84070   0.12293   0.00000  Uiso   1.00
H788   H     0.09892   0.84416   0.07471   0.00000  Uiso   1.00
H789   H     0.09444   0.96922   0.43545   0.00000  Uiso   1.00
H790   H     0.12369   0.94320   0.38430   0.00000  Uiso   1.00
H791   H     0.06796   0.95017   0.39183   0.00000  Uiso   1.00
H792   H     0.06483   0.87881   0.40529   0.00000  Uiso   1.00
H793   H     0.04658   0.90517   0.45775   0.00000  Uiso   1.00
H794   H     0.27385   0.68229   0.10819   0.00000  Uiso   1.00
H795   H     0.15917   0.97184   0.03036   0.00000  Uiso   1.00
H796   H     0.14970   0.98396   0.47881   0.00000  Uiso   1.00
H797   H     0.11993   0.67259   0.03265   0.00000  Uiso   1.00
H798   H     0.07190   0.94976   0.00636   0.00000  Uiso   1.00
H799   H     0.08508   0.93439   0.05293   0.00000  Uiso   1.00
H800   H     0.13356   0.70417   0.43475   0.00000  Uiso   1.00
H801   H     0.08917   0.73455   0.45757   0.00000  Uiso   1.00
H802   H     0.09255   0.70246   0.40520   0.00000  Uiso   1.00
H803   H     0.11422   0.77387   0.38909   0.00000  Uiso   1.00
H804   H     0.16107   0.74664   0.36939   0.00000  Uiso   1.00
H805   H     0.31324   0.71880   0.07527   0.00000  Uiso   1.00
H806   H     0.08591   0.94578   0.19024   0.00000  Uiso   1.00
H807   H     0.04553   0.94840   0.16058   0.00000  Uiso   1.00
H808   H     0.04875   0.98386   0.20954   0.00000  Uiso   1.00
H809   H     0.32054   0.92855   0.22917   0.00000  Uiso   1.00
H810   H     0.02737   0.92549   0.25845   0.00000  Uiso   1.00
H811   H     0.05826   0.87050   0.19752   0.00000  Uiso   1.00
H812   H     0.01579   0.87155   0.17191   0.00000  Uiso   1.00
H813   H     0.28707   0.73358   0.13379   0.00000  Uiso   1.00
H814   H     0.21708   0.72963   0.11649   0.00000  Uiso   1.00
H815   H     0.23899   0.70919   0.05964   0.00000  Uiso   1.00
H816   H     0.29267   0.77915   0.05097   0.00000  Uiso   1.00
O817   O     0.16667   0.83333   0.25000   0.00000  Uiso   1.00
O818   O     0.15451   0.79304   0.15458   0.00000  Uiso   1.00
O819   O     0.12940   0.87058   0.34968   0.00000  Uiso   1.00
O820   O     0.20824   0.84425   0.14606   0.00000  Uiso   1.00
O821   O     0.17451   0.82546   0.34968   0.00000  Uiso   1.00
O822   O     0.17930   0.74686   0.28213   0.00000  Uiso   1.00
O823   O     0.14632   0.92751   0.27013   0.00000  Uiso   1.00
O824   O     0.07412   0.79958   0.23413   0.00000  Uiso   1.00
O825   O     0.26693   0.85939   0.21360   0.00000  Uiso   1.00
O826   O     0.07071   0.85544   0.28213   0.00000  Uiso   1.00
O827   O     0.25491   0.81892   0.27013   0.00000  Uiso   1.00
O828   O     0.13760   0.73610   0.23413   0.00000  Uiso   1.00
O829   O     0.20345   0.92286   0.21360   0.00000  Uiso   1.00
Zn830  Zn    0.19338   0.80661   0.28734   0.00000  Uiso   1.00
Zn831  Zn    0.13379   0.79124   0.21875   0.00000  Uiso   1.00
Zn832  Zn    0.21056   0.86442   0.20657   0.00000  Uiso   1.00
Zn833  Zn    0.12893   0.87106   0.28733   0.00000  Uiso   1.00
C834   C     0.38589   0.82586   0.26057   0.00000  Uiso   1.00
C835   C     0.49598   0.82144   0.06045   0.00000  Uiso   1.00
C836   C     0.56052   0.78766   0.05262   0.00000  Uiso   1.00
C837   C     0.61421   0.84110   0.24008   0.00000  Uiso   1.00
C838   C     0.46689   0.85413   0.42215   0.00000  Uiso   1.00
C839   C     0.66053   0.84624   0.23670   0.00000  Uiso   1.00
C840   C     0.34097   0.82408   0.26247   0.00000  Uiso   1.00
C841   C     0.51414   0.98963   0.23852   0.00000  Uiso   1.00
C842   C     0.48267   0.67910   0.26376   0.00000  Uiso   1.00
C843   C     0.48907   0.72291   0.26011   0.00000  Uiso   1.00
C844   C     0.50977   0.94471   0.24046   0.00000  Uiso   1.00
C845   C     0.45005   0.90262   0.48991   0.00000  Uiso   1.00
C846   C     0.51861   0.81486   0.12903   0.00000  Uiso   1.00
C847   C     0.47954   0.84973   0.37154   0.00000  Uiso   1.00
C848   C     0.56236   0.77605   0.00615   0.00000  Uiso   1.00
C849   C     0.52552   0.80810   0.07988   0.00000  Uiso   1.00
C850   C     0.44386   0.88723   0.44681   0.00000  Uiso   1.00
C851   C     0.59311   0.77523   0.07413   0.00000  Uiso   1.00
C852   C     0.57996   0.73072   0.08793   0.00000  Uiso   1.00
C853   C     0.61588   0.71554   0.10220   0.00000  Uiso   1.00
C854   C     0.55553   0.67587   0.20722   0.00000  Uiso   1.00
C855   C     0.59266   0.68323   0.22981   0.00000  Uiso   1.00
C856   C     0.47400   0.88181   0.00916   0.00000  Uiso   1.00
C857   C     0.43944   0.99443   0.29378   0.00000  Uiso   1.00
C858   C     0.40622   0.69166   0.31305   0.00000  Uiso   1.00
C859   C     0.59711   0.75084   0.47596   0.00000  Uiso   1.00
C860   C     0.63101   0.77813   0.44310   0.00000  Uiso   1.00
C861   C     0.66660   0.75364   0.41373   0.00000  Uiso   1.00
C862   C     0.44977   0.82518   0.08885   0.00000  Uiso   1.00
C863   C     0.42353   0.78190   0.09193   0.00000  Uiso   1.00
C864   C     0.37904   0.78317   0.12464   0.00000  Uiso   1.00
C865   C     0.40958   0.90238   0.42990   0.00000  Uiso   1.00
C866   C     0.42508   0.94366   0.40907   0.00000  Uiso   1.00
C867   C     0.48638   0.84299   0.49024   0.00000  Uiso   1.00
C868   C     0.43215   0.94089   0.01704   0.00000  Uiso   1.00
C869   C     0.46750   0.97786   0.01447   0.00000  Uiso   1.00
C870   C     0.47103   0.75888   0.39984   0.00000  Uiso   1.00
C871   C     0.44503   0.72281   0.42607   0.00000  Uiso   1.00
C872   C     0.35745   0.87629   0.20487   0.00000  Uiso   1.00
C873   C     0.35383   0.92128   0.22479   0.00000  Uiso   1.00
C874   C     0.38554   0.95162   0.19427   0.00000  Uiso   1.00
C875   C     0.48269   0.82861   0.44635   0.00000  Uiso   1.00
C876   C     0.50533   0.81934   0.01309   0.00000  Uiso   1.00
C877   C     0.53233   0.79027   0.48748   0.00000  Uiso   1.00
C878   C     0.52526   0.77386   0.44548   0.00000  Uiso   1.00
C879   C     0.49500   0.78886   0.42892   0.00000  Uiso   1.00
H880   H     0.65227   0.80217   0.28419   0.00000  Uiso   1.00
H881   H     0.59629   0.79635   0.10432   0.00000  Uiso   1.00
H882   H     0.58483   0.70472   0.26085   0.00000  Uiso   1.00
H883   H     0.59906   0.98681   0.23875   0.00000  Uiso   1.00
H884   H     0.62236   0.69724   0.20632   0.00000  Uiso   1.00
H885   H     0.56445   0.98842   0.17581   0.00000  Uiso   1.00
H886   H     0.55162   0.70554   0.19601   0.00000  Uiso   1.00
H887   H     0.41957   0.71868   0.33270   0.00000  Uiso   1.00
H888   H     0.39612   0.70258   0.28545   0.00000  Uiso   1.00
H889   H     0.37718   0.67586   0.33587   0.00000  Uiso   1.00
H890   H     0.42392   0.96908   0.27397   0.00000  Uiso   1.00
H891   H     0.53880   0.74644   0.42784   0.00000  Uiso   1.00
H892   H     0.44568   0.98202   0.32277   0.00000  Uiso   1.00
H893   H     0.35003   0.74121   0.43507   0.00000  Uiso   1.00
H894   H     0.65277   0.72755   0.39325   0.00000  Uiso   1.00
H895   H     0.35730   0.77427   0.39057   0.00000  Uiso   1.00
H896   H     0.61561   0.79100   0.42078   0.00000  Uiso   1.00
H897   H     0.64585   0.80447   0.46252   0.00000  Uiso   1.00
H898   H     0.61410   0.73634   0.49521   0.00000  Uiso   1.00
H899   H     0.58238   0.72390   0.45743   0.00000  Uiso   1.00
H900   H     0.38207   0.79646   0.15853   0.00000  Uiso   1.00
H901   H     0.35958   0.80194   0.11236   0.00000  Uiso   1.00
H902   H     0.48102   0.89514   0.04067   0.00000  Uiso   1.00
H903   H     0.36227   0.75112   0.12761   0.00000  Uiso   1.00
H904   H     0.41959   0.76934   0.05798   0.00000  Uiso   1.00
H905   H     0.44067   0.76015   0.10321   0.00000  Uiso   1.00
H906   H     0.44957   0.84070   0.12293   0.00000  Uiso   1.00
H907   H     0.43226   0.84416   0.07471   0.00000  Uiso   1.00
H908   H     0.42778   0.96922   0.43545   0.00000  Uiso   1.00
H909   H     0.45702   0.94320   0.38430   0.00000  Uiso   1.00
H910   H     0.40130   0.95017   0.39183   0.00000  Uiso   1.00
H911   H     0.39816   0.87881   0.40529   0.00000  Uiso   1.00
H912   H     0.37992   0.90517   0.45775   0.00000  Uiso   1.00
H913   H     0.60718   0.68229   0.10819   0.00000  Uiso   1.00
H914   H     0.49251   0.97184   0.03036   0.00000  Uiso   1.00
H915   H     0.48304   0.98396   0.47881   0.00000  Uiso   1.00
H916   H     0.45327   0.67259   0.03265   0.00000  Uiso   1.00
H917   H     0.40523   0.94976   0.00636   0.00000  Uiso   1.00
H918   H     0.41841   0.93439   0.05293   0.00000  Uiso   1.00
H919   H     0.46689   0.70417   0.43475   0.00000  Uiso   1.00
H920   H     0.42251   0.73455   0.45757   0.00000  Uiso   1.00
H921   H     0.42589   0.70246   0.40520   0.00000  Uiso   1.00
H922   H     0.44756   0.77387   0.38909   0.00000  Uiso   1.00
H923   H     0.49440   0.74664   0.36939   0.00000  Uiso   1.00
H924   H     0.64657   0.71880   0.07527   0.00000  Uiso   1.00
H925   H     0.41925   0.94578   0.19024   0.00000  Uiso   1.00
H926   H     0.37886   0.94840   0.16058   0.00000  Uiso   1.00
H927   H     0.38209   0.98386   0.20954   0.00000  Uiso   1.00
H928   H     0.65388   0.92855   0.22917   0.00000  Uiso   1.00
H929   H     0.36070   0.92549   0.25845   0.00000  Uiso   1.00
H930   H     0.39159   0.87050   0.19752   0.00000  Uiso   1.00
H931   H     0.34913   0.87155   0.17191   0.00000  Uiso   1.00
H932   H     0.62040   0.73358   0.13379   0.00000  Uiso   1.00
H933   H     0.55042   0.72963   0.11649   0.00000  Uiso   1.00
H934   H     0.57233   0.70919   0.05964   0.00000  Uiso   1.00
H935   H     0.62600   0.77915   0.05097   0.00000  Uiso   1.00
O936   O     0.50000   0.83333   0.25000   0.00000  Uiso   1.00
O937   O     0.48784   0.79304   0.15458   0.00000  Uiso   1.00
O938   O     0.46274   0.87058   0.34968   0.00000  Uiso   1.00
O939   O     0.54157   0.84425   0.14606   0.00000  Uiso   1.00
O940   O     0.50785   0.82546   0.34968   0.00000  Uiso   1.00
O941   O     0.51264   0.74686   0.28213   0.00000  Uiso   1.00
O942   O     0.47965   0.92751   0.27013   0.00000  Uiso   1.00
O943   O     0.40745   0.79958   0.23413   0.00000  Uiso   1.00
O944   O     0.60026   0.85939   0.21360   0.00000  Uiso   1.00
O945   O     0.40405   0.85544   0.28213   0.00000  Uiso   1.00
O946   O     0.58824   0.81892   0.27013   0.00000  Uiso   1.00
O947   O     0.47093   0.73610   0.23413   0.00000  Uiso   1.00
O948   O     0.53678   0.92286   0.21360   0.00000  Uiso   1.00
Zn949  Zn    0.52672   0.80661   0.28734   0.00000  Uiso   1.00
Zn950  Zn    0.46713   0.79124   0.21875   0.00000  Uiso   1.00
Zn951  Zn    0.54389   0.86442   0.20657   0.00000  Uiso   1.00
Zn952  Zn    0.46226   0.87106   0.28733   0.00000  Uiso   1.00
C953   C     0.71922   0.82586   0.26057   0.00000  Uiso   1.00
C954   C     0.82932   0.82144   0.06045   0.00000  Uiso   1.00
C955   C     0.89385   0.78766   0.05262   0.00000  Uiso   1.00
C956   C     0.94755   0.84110   0.24008   0.00000  Uiso   1.00
C957   C     0.80022   0.85413   0.42215   0.00000  Uiso   1.00
C958   C     0.99386   0.84624   0.23670   0.00000  Uiso   1.00
C959   C     0.67430   0.82408   0.26247   0.00000  Uiso   1.00
C960   C     0.84748   0.98963   0.23852   0.00000  Uiso   1.00
C961   C     0.81600   0.67910   0.26376   0.00000  Uiso   1.00
C962   C     0.82240   0.72291   0.26011   0.00000  Uiso   1.00
C963   C     0.84310   0.94471   0.24046   0.00000  Uiso   1.00
C964   C     0.78339   0.90262   0.48991   0.00000  Uiso   1.00
C965   C     0.85194   0.81486   0.12903   0.00000  Uiso   1.00
C966   C     0.81288   0.84973   0.37154   0.00000  Uiso   1.00
C967   C     0.89569   0.77605   0.00615   0.00000  Uiso   1.00
C968   C     0.85885   0.80810   0.07988   0.00000  Uiso   1.00
C969   C     0.77719   0.88723   0.44681   0.00000  Uiso   1.00
C970   C     0.92644   0.77523   0.07413   0.00000  Uiso   1.00
C971   C     0.91329   0.73072   0.08793   0.00000  Uiso   1.00
C972   C     0.94921   0.71554   0.10220   0.00000  Uiso   1.00
C973   C     0.88886   0.67587   0.20722   0.00000  Uiso   1.00
C974   C     0.92599   0.68323   0.22981   0.00000  Uiso   1.00
C975   C     0.80734   0.88181   0.00916   0.00000  Uiso   1.00
C976   C     0.77277   0.99443   0.29378   0.00000  Uiso   1.00
C977   C     0.73955   0.69166   0.31305   0.00000  Uiso   1.00
C978   C     0.93045   0.75084   0.47596   0.00000  Uiso   1.00
C979   C     0.96435   0.77813   0.44310   0.00000  Uiso   1.00
C980   C     0.99993   0.75364   0.41373   0.00000  Uiso   1.00
C981   C     0.78310   0.82518   0.08885   0.00000  Uiso   1.00
C982   C     0.75686   0.78190   0.09193   0.00000  Uiso   1.00
C983   C     0.71238   0.78317   0.12464   0.00000  Uiso   1.00
C984   C     0.74291   0.90238   0.42990   0.00000  Uiso   1.00
C985   C     0.75841   0.94366   0.40907   0.00000  Uiso   1.00
C986   C     0.81971   0.84299   0.49024   0.00000  Uiso   1.00
C987   C     0.76549   0.94089   0.01704   0.00000  Uiso   1.00
C988   C     0.80083   0.97786   0.01447   0.00000  Uiso   1.00
C989   C     0.80437   0.75888   0.39984   0.00000  Uiso   1.00
C990   C     0.77836   0.72281   0.42607   0.00000  Uiso   1.00
C991   C     0.69078   0.87629   0.20487   0.00000  Uiso   1.00
C992   C     0.68717   0.92128   0.22479   0.00000  Uiso   1.00
C993   C     0.71887   0.95162   0.19427   0.00000  Uiso   1.00
C994   C     0.81603   0.82861   0.44635   0.00000  Uiso   1.00
C995   C     0.83866   0.81934   0.01309   0.00000  Uiso   1.00
C996   C     0.86566   0.79027   0.48748   0.00000  Uiso   1.00
C997   C     0.85860   0.77386   0.44548   0.00000  Uiso   1.00
C998   C     0.82833   0.78886   0.42892   0.00000  Uiso   1.00
H999   H     0.98560   0.80217   0.28419   0.00000  Uiso   1.00
H1000  H     0.92962   0.79635   0.10432   0.00000  Uiso   1.00
H1001  H     0.91816   0.70472   0.26085   0.00000  Uiso   1.00
H1002  H     0.93239   0.98681   0.23875   0.00000  Uiso   1.00
H1003  H     0.95569   0.69724   0.20632   0.00000  Uiso   1.00
H1004  H     0.89778   0.98842   0.17581   0.00000  Uiso   1.00
H1005  H     0.88496   0.70554   0.19601   0.00000  Uiso   1.00
H1006  H     0.75290   0.71868   0.33270   0.00000  Uiso   1.00
H1007  H     0.72945   0.70258   0.28545   0.00000  Uiso   1.00
H1008  H     0.71052   0.67586   0.33587   0.00000  Uiso   1.00
H1009  H     0.75725   0.96908   0.27397   0.00000  Uiso   1.00
H1010  H     0.87213   0.74644   0.42784   0.00000  Uiso   1.00
H1011  H     0.77901   0.98202   0.32277   0.00000  Uiso   1.00
H1012  H     0.68336   0.74121   0.43507   0.00000  Uiso   1.00
H1013  H     0.98610   0.72755   0.39325   0.00000  Uiso   1.00
H1014  H     0.69063   0.77427   0.39057   0.00000  Uiso   1.00
H1015  H     0.94895   0.79100   0.42078   0.00000  Uiso   1.00
H1016  H     0.97918   0.80447   0.46252   0.00000  Uiso   1.00
H1017  H     0.94743   0.73634   0.49521   0.00000  Uiso   1.00
H1018  H     0.91571   0.72390   0.45743   0.00000  Uiso   1.00
H1019  H     0.71541   0.79646   0.15853   0.00000  Uiso   1.00
H1020  H     0.69291   0.80194   0.11236   0.00000  Uiso   1.00
H1021  H     0.81435   0.89514   0.04067   0.00000  Uiso   1.00
H1022  H     0.69560   0.75112   0.12761   0.00000  Uiso   1.00
H1023  H     0.75292   0.76934   0.05798   0.00000  Uiso   1.00
H1024  H     0.77400   0.76015   0.10321   0.00000  Uiso   1.00
H1025  H     0.78290   0.84070   0.12293   0.00000  Uiso   1.00
H1026  H     0.76559   0.84416   0.07471   0.00000  Uiso   1.00
H1027  H     0.76111   0.96922   0.43545   0.00000  Uiso   1.00
H1028  H     0.79035   0.94320   0.38430   0.00000  Uiso   1.00
H1029  H     0.73463   0.95017   0.39183   0.00000  Uiso   1.00
H1030  H     0.73150   0.87881   0.40529   0.00000  Uiso   1.00
H1031  H     0.71325   0.90517   0.45775   0.00000  Uiso   1.00
H1032  H     0.94051   0.68229   0.10819   0.00000  Uiso   1.00
H1033  H     0.82584   0.97184   0.03036   0.00000  Uiso   1.00
H1034  H     0.81637   0.98396   0.47881   0.00000  Uiso   1.00
H1035  H     0.78660   0.67259   0.03265   0.00000  Uiso   1.00
H1036  H     0.73856   0.94976   0.00636   0.00000  Uiso   1.00
H1037  H     0.75174   0.93439   0.05293   0.00000  Uiso   1.00
H1038  H     0.80023   0.70417   0.43475   0.00000  Uiso   1.00
H1039  H     0.75584   0.73455   0.45757   0.00000  Uiso   1.00
H1040  H     0.75922   0.70246   0.40520   0.00000  Uiso   1.00
H1041  H     0.78089   0.77387   0.38909   0.00000  Uiso   1.00
H1042  H     0.82774   0.74664   0.36939   0.00000  Uiso   1.00
H1043  H     0.97991   0.71880   0.07527   0.00000  Uiso   1.00
H1044  H     0.75258   0.94578   0.19024   0.00000  Uiso   1.00
H1045  H     0.71220   0.94840   0.16058   0.00000  Uiso   1.00
H1046  H     0.71542   0.98386   0.20954   0.00000  Uiso   1.00
H1047  H     0.98721   0.92855   0.22917   0.00000  Uiso   1.00
H1048  H     0.69403   0.92549   0.25845   0.00000  Uiso   1.00
H1049  H     0.72492   0.87050   0.19752   0.00000  Uiso   1.00
H1050  H     0.68246   0.87155   0.17191   0.00000  Uiso   1.00
H1051  H     0.95373   0.73358   0.13379   0.00000  Uiso   1.00
H1052  H     0.88375   0.72963   0.11649   0.00000  Uiso   1.00
H1053  H     0.90566   0.70919   0.05964   0.00000  Uiso   1.00
H1054  H     0.95934   0.77915   0.05097   0.00000  Uiso   1.00
O1055  O     0.83333   0.83333   0.25000   0.00000  Uiso   1.00
O1056  O     0.82118   0.79304   0.15458   0.00000  Uiso   1.00
O1057  O     0.79607   0.87058   0.34968   0.00000  Uiso   1.00
O1058  O     0.87491   0.84425   0.14606   0.00000  Uiso   1.00
O1059  O     0.84118   0.82546   0.34968   0.00000  Uiso   1.00
O1060  O     0.84597   0.74686   0.28213   0.00000  Uiso   1.00
O1061  O     0.81298   0.92751   0.27013   0.00000  Uiso   1.00
O1062  O     0.74078   0.79958   0.23413   0.00000  Uiso   1.00
O1063  O     0.93360   0.85939   0.21360   0.00000  Uiso   1.00
O1064  O     0.73738   0.85544   0.28213   0.00000  Uiso   1.00
O1065  O     0.92158   0.81892   0.27013   0.00000  Uiso   1.00
O1066  O     0.80426   0.73610   0.23413   0.00000  Uiso   1.00
O1067  O     0.87012   0.92286   0.21360   0.00000  Uiso   1.00
Zn1068 Zn    0.86005   0.80661   0.28734   0.00000  Uiso   1.00
Zn1069 Zn    0.80046   0.79124   0.21875   0.00000  Uiso   1.00
Zn1070 Zn    0.87723   0.86442   0.20657   0.00000  Uiso   1.00
Zn1071 Zn    0.79560   0.87106   0.28733   0.00000  Uiso   1.00
C1072  C     0.05255   0.15919   0.76057   0.00000  Uiso   1.00
C1073  C     0.16265   0.15478   0.56045   0.00000  Uiso   1.00
C1074  C     0.22719   0.12099   0.55262   0.00000  Uiso   1.00
C1075  C     0.28088   0.17443   0.74008   0.00000  Uiso   1.00
C1076  C     0.13355   0.18746   0.92215   0.00000  Uiso   1.00
C1077  C     0.32720   0.17957   0.73670   0.00000  Uiso   1.00
C1078  C     0.00764   0.15741   0.76247   0.00000  Uiso   1.00
C1079  C     0.18081   0.32296   0.73852   0.00000  Uiso   1.00
C1080  C     0.14933   0.01244   0.76376   0.00000  Uiso   1.00
C1081  C     0.15573   0.05624   0.76011   0.00000  Uiso   1.00
C1082  C     0.17643   0.27804   0.74046   0.00000  Uiso   1.00
C1083  C     0.11672   0.23595   0.98991   0.00000  Uiso   1.00
C1084  C     0.18527   0.14819   0.62903   0.00000  Uiso   1.00
C1085  C     0.14621   0.18307   0.87154   0.00000  Uiso   1.00
C1086  C     0.22902   0.10938   0.50615   0.00000  Uiso   1.00
C1087  C     0.19218   0.14144   0.57988   0.00000  Uiso   1.00
C1088  C     0.11052   0.22057   0.94681   0.00000  Uiso   1.00
C1089  C     0.25978   0.10856   0.57413   0.00000  Uiso   1.00
C1090  C     0.24663   0.06405   0.58793   0.00000  Uiso   1.00
C1091  C     0.28254   0.04887   0.60220   0.00000  Uiso   1.00
C1092  C     0.22219   0.00921   0.70722   0.00000  Uiso   1.00
C1093  C     0.25933   0.01656   0.72981   0.00000  Uiso   1.00
C1094  C     0.14067   0.21515   0.50916   0.00000  Uiso   1.00
C1095  C     0.10611   0.32777   0.79378   0.00000  Uiso   1.00
C1096  C     0.07289   0.02499   0.81305   0.00000  Uiso   1.00
C1097  C     0.26378   0.08417   0.97596   0.00000  Uiso   1.00
C1098  C     0.29768   0.11146   0.94310   0.00000  Uiso   1.00
C1099  C     0.33326   0.08697   0.91373   0.00000  Uiso   1.00
C1100  C     0.11643   0.15851   0.58885   0.00000  Uiso   1.00
C1101  C     0.09020   0.11524   0.59193   0.00000  Uiso   1.00
C1102  C     0.04571   0.11650   0.62464   0.00000  Uiso   1.00
C1103  C     0.07625   0.23571   0.92990   0.00000  Uiso   1.00
C1104  C     0.09175   0.27700   0.90907   0.00000  Uiso   1.00
C1105  C     0.15305   0.17632   0.99024   0.00000  Uiso   1.00
C1106  C     0.09882   0.27422   0.51704   0.00000  Uiso   1.00
C1107  C     0.13417   0.31119   0.51447   0.00000  Uiso   1.00
C1108  C     0.13770   0.09222   0.89984   0.00000  Uiso   1.00
C1109  C     0.11170   0.05614   0.92607   0.00000  Uiso   1.00
C1110  C     0.02412   0.20963   0.70487   0.00000  Uiso   1.00
C1111  C     0.02050   0.25461   0.72479   0.00000  Uiso   1.00
C1112  C     0.05220   0.28495   0.69427   0.00000  Uiso   1.00
C1113  C     0.14936   0.16194   0.94635   0.00000  Uiso   1.00
C1114  C     0.17200   0.15268   0.51309   0.00000  Uiso   1.00
C1115  C     0.19900   0.12360   0.98748   0.00000  Uiso   1.00
C1116  C     0.19193   0.10719   0.94548   0.00000  Uiso   1.00
C1117  C     0.16166   0.12219   0.92892   0.00000  Uiso   1.00
H1118  H     0.31893   0.13550   0.78419   0.00000  Uiso   1.00
H1119  H     0.26296   0.12968   0.60432   0.00000  Uiso   1.00
H1120  H     0.25149   0.03805   0.76085   0.00000  Uiso   1.00
H1121  H     0.26573   0.32014   0.73875   0.00000  Uiso   1.00
H1122  H     0.28902   0.03057   0.70632   0.00000  Uiso   1.00
H1123  H     0.23112   0.32175   0.67581   0.00000  Uiso   1.00
H1124  H     0.21829   0.03888   0.69601   0.00000  Uiso   1.00
H1125  H     0.08624   0.05201   0.83270   0.00000  Uiso   1.00
H1126  H     0.06278   0.03591   0.78545   0.00000  Uiso   1.00
H1127  H     0.04385   0.00919   0.83587   0.00000  Uiso   1.00
H1128  H     0.09058   0.30241   0.77397   0.00000  Uiso   1.00
H1129  H     0.20547   0.07977   0.92784   0.00000  Uiso   1.00
H1130  H     0.11234   0.31536   0.82277   0.00000  Uiso   1.00
H1131  H     0.01670   0.07454   0.93507   0.00000  Uiso   1.00
H1132  H     0.31943   0.06088   0.89325   0.00000  Uiso   1.00
H1133  H     0.02396   0.10761   0.89057   0.00000  Uiso   1.00
H1134  H     0.28228   0.12433   0.92078   0.00000  Uiso   1.00
H1135  H     0.31252   0.13780   0.96252   0.00000  Uiso   1.00
H1136  H     0.28076   0.06968   0.99521   0.00000  Uiso   1.00
H1137  H     0.24905   0.05723   0.95743   0.00000  Uiso   1.00
H1138  H     0.04874   0.12979   0.65853   0.00000  Uiso   1.00
H1139  H     0.02625   0.13527   0.61236   0.00000  Uiso   1.00
H1140  H     0.14769   0.22847   0.54067   0.00000  Uiso   1.00
H1141  H     0.02894   0.08445   0.62761   0.00000  Uiso   1.00
H1142  H     0.08626   0.10268   0.55798   0.00000  Uiso   1.00
H1143  H     0.10734   0.09349   0.60321   0.00000  Uiso   1.00
H1144  H     0.11623   0.17404   0.62293   0.00000  Uiso   1.00
H1145  H     0.09892   0.17749   0.57471   0.00000  Uiso   1.00
H1146  H     0.09444   0.30255   0.93545   0.00000  Uiso   1.00
H1147  H     0.12369   0.27653   0.88430   0.00000  Uiso   1.00
H1148  H     0.06796   0.28350   0.89183   0.00000  Uiso   1.00
H1149  H     0.06483   0.21215   0.90529   0.00000  Uiso   1.00
H1150  H     0.04658   0.23850   0.95775   0.00000  Uiso   1.00
H1151  H     0.27385   0.01562   0.60819   0.00000  Uiso   1.00
H1152  H     0.15917   0.30517   0.53036   0.00000  Uiso   1.00
H1153  H     0.14970   0.31729   0.97881   0.00000  Uiso   1.00
H1154  H     0.11993   0.00592   0.53265   0.00000  Uiso   1.00
H1155  H     0.07190   0.28309   0.50636   0.00000  Uiso   1.00
H1156  H     0.08508   0.26773   0.55293   0.00000  Uiso   1.00
H1157  H     0.13356   0.03750   0.93475   0.00000  Uiso   1.00
H1158  H     0.08917   0.06788   0.95757   0.00000  Uiso   1.00
H1159  H     0.09255   0.03579   0.90520   0.00000  Uiso   1.00
H1160  H     0.11422   0.10720   0.88909   0.00000  Uiso   1.00
H1161  H     0.16107   0.07997   0.86939   0.00000  Uiso   1.00
H1162  H     0.31324   0.05214   0.57527   0.00000  Uiso   1.00
H1163  H     0.08591   0.27911   0.69024   0.00000  Uiso   1.00
H1164  H     0.04553   0.28173   0.66058   0.00000  Uiso   1.00
H1165  H     0.04875   0.31719   0.70954   0.00000  Uiso   1.00
H1166  H     0.32054   0.26188   0.72917   0.00000  Uiso   1.00
H1167  H     0.02737   0.25882   0.75845   0.00000  Uiso   1.00
H1168  H     0.05826   0.20383   0.69752   0.00000  Uiso   1.00
H1169  H     0.01579   0.20489   0.67191   0.00000  Uiso   1.00
H1170  H     0.28707   0.06692   0.63379   0.00000  Uiso   1.00
H1171  H     0.21708   0.06296   0.61649   0.00000  Uiso   1.00
H1172  H     0.23899   0.04252   0.55964   0.00000  Uiso   1.00
H1173  H     0.29267   0.11248   0.55097   0.00000  Uiso   1.00
O1174  O     0.16667   0.16667   0.75000   0.00000  Uiso   1.00
O1175  O     0.15451   0.12637   0.65458   0.00000  Uiso   1.00
O1176  O     0.12940   0.20391   0.84968   0.00000  Uiso   1.00
O1177  O     0.20824   0.17759   0.64606   0.00000  Uiso   1.00
O1178  O     0.17451   0.15880   0.84968   0.00000  Uiso   1.00
O1179  O     0.17930   0.08019   0.78213   0.00000  Uiso   1.00
O1180  O     0.14632   0.26085   0.77013   0.00000  Uiso   1.00
O1181  O     0.07412   0.13291   0.73413   0.00000  Uiso   1.00
O1182  O     0.26693   0.19272   0.71360   0.00000  Uiso   1.00
O1183  O     0.07071   0.18878   0.78213   0.00000  Uiso   1.00
O1184  O     0.25491   0.15226   0.77013   0.00000  Uiso   1.00
O1185  O     0.13760   0.06944   0.73413   0.00000  Uiso   1.00
O1186  O     0.20345   0.25620   0.71360   0.00000  Uiso   1.00
Zn1187 Zn    0.19338   0.13994   0.78734   0.00000  Uiso   1.00
Zn1188 Zn    0.13379   0.12458   0.71875   0.00000  Uiso   1.00
Zn1189 Zn    0.21056   0.19775   0.70657   0.00000  Uiso   1.00
Zn1190 Zn    0.12893   0.20439   0.78733   0.00000  Uiso   1.00
C1191  C     0.38589   0.15919   0.76057   0.00000  Uiso   1.00
C1192  C     0.49598   0.15478   0.56045   0.00000  Uiso   1.00
C1193  C     0.56052   0.12099   0.55262   0.00000  Uiso   1.00
C1194  C     0.61421   0.17443   0.74008   0.00000  Uiso   1.00
C1195  C     0.46689   0.18746   0.92215   0.00000  Uiso   1.00
C1196  C     0.66053   0.17957   0.73670   0.00000  Uiso   1.00
C1197  C     0.34097   0.15741   0.76247   0.00000  Uiso   1.00
C1198  C     0.51414   0.32296   0.73852   0.00000  Uiso   1.00
C1199  C     0.48267   0.01244   0.76376   0.00000  Uiso   1.00
C1200  C     0.48907   0.05624   0.76011   0.00000  Uiso   1.00
C1201  C     0.50977   0.27804   0.74046   0.00000  Uiso   1.00
C1202  C     0.45005   0.23595   0.98991   0.00000  Uiso   1.00
C1203  C     0.51861   0.14819   0.62903   0.00000  Uiso   1.00
C1204  C     0.47954   0.18307   0.87154   0.00000  Uiso   1.00
C1205  C     0.56236   0.10938   0.50615   0.00000  Uiso   1.00
C1206  C     0.52552   0.14144   0.57988   0.00000  Uiso   1.00
C1207  C     0.44386   0.22057   0.94681   0.00000  Uiso   1.00
C1208  C     0.59311   0.10856   0.57413   0.00000  Uiso   1.00
C1209  C     0.57996   0.06405   0.58793   0.00000  Uiso   1.00
C1210  C     0.61588   0.04887   0.60220   0.00000  Uiso   1.00
C1211  C     0.55553   0.00921   0.70722   0.00000  Uiso   1.00
C1212  C     0.59266   0.01656   0.72981   0.00000  Uiso   1.00
C1213  C     0.47400   0.21515   0.50916   0.00000  Uiso   1.00
C1214  C     0.43944   0.32777   0.79378   0.00000  Uiso   1.00
C1215  C     0.40622   0.02499   0.81305   0.00000  Uiso   1.00
C1216  C     0.59711   0.08417   0.97596   0.00000  Uiso   1.00
C1217  C     0.63101   0.11146   0.94310   0.00000  Uiso   1.00
C1218  C     0.66660   0.08697   0.91373   0.00000  Uiso   1.00
C1219  C     0.44977   0.15851   0.58885   0.00000  Uiso   1.00
C1220  C     0.42353   0.11524   0.59193   0.00000  Uiso   1.00
C1221  C     0.37904   0.11650   0.62464   0.00000  Uiso   1.00
C1222  C     0.40958   0.23571   0.92990   0.00000  Uiso   1.00
C1223  C     0.42508   0.27700   0.90907   0.00000  Uiso   1.00
C1224  C     0.48638   0.17632   0.99024   0.00000  Uiso   1.00
C1225  C     0.43215   0.27422   0.51704   0.00000  Uiso   1.00
C1226  C     0.46750   0.31119   0.51447   0.00000  Uiso   1.00
C1227  C     0.47103   0.09222   0.89984   0.00000  Uiso   1.00
C1228  C     0.44503   0.05614   0.92607   0.00000  Uiso   1.00
C1229  C     0.35745   0.20963   0.70487   0.00000  Uiso   1.00
C1230  C     0.35383   0.25461   0.72479   0.00000  Uiso   1.00
C1231  C     0.38554   0.28495   0.69427   0.00000  Uiso   1.00
C1232  C     0.48269   0.16194   0.94635   0.00000  Uiso   1.00
C1233  C     0.50533   0.15268   0.51309   0.00000  Uiso   1.00
C1234  C     0.53233   0.12360   0.98748   0.00000  Uiso   1.00
C1235  C     0.52526   0.10719   0.94548   0.00000  Uiso   1.00
C1236  C     0.49500   0.12219   0.92892   0.00000  Uiso   1.00
H1237  H     0.65227   0.13550   0.78419   0.00000  Uiso   1.00
H1238  H     0.59629   0.12968   0.60432   0.00000  Uiso   1.00
H1239  H     0.58483   0.03805   0.76085   0.00000  Uiso   1.00
H1240  H     0.59906   0.32014   0.73875   0.00000  Uiso   1.00
H1241  H     0.62236   0.03057   0.70632   0.00000  Uiso   1.00
H1242  H     0.56445   0.32175   0.67581   0.00000  Uiso   1.00
H1243  H     0.55162   0.03888   0.69601   0.00000  Uiso   1.00
H1244  H     0.41957   0.05201   0.83270   0.00000  Uiso   1.00
H1245  H     0.39612   0.03591   0.78545   0.00000  Uiso   1.00
H1246  H     0.37718   0.00919   0.83587   0.00000  Uiso   1.00
H1247  H     0.42392   0.30241   0.77397   0.00000  Uiso   1.00
H1248  H     0.53880   0.07977   0.92784   0.00000  Uiso   1.00
H1249  H     0.44568   0.31536   0.82277   0.00000  Uiso   1.00
H1250  H     0.35003   0.07454   0.93507   0.00000  Uiso   1.00
H1251  H     0.65277   0.06088   0.89325   0.00000  Uiso   1.00
H1252  H     0.35730   0.10761   0.89057   0.00000  Uiso   1.00
H1253  H     0.61561   0.12433   0.92078   0.00000  Uiso   1.00
H1254  H     0.64585   0.13780   0.96252   0.00000  Uiso   1.00
H1255  H     0.61410   0.06968   0.99521   0.00000  Uiso   1.00
H1256  H     0.58238   0.05723   0.95743   0.00000  Uiso   1.00
H1257  H     0.38207   0.12979   0.65853   0.00000  Uiso   1.00
H1258  H     0.35958   0.13527   0.61236   0.00000  Uiso   1.00
H1259  H     0.48102   0.22847   0.54067   0.00000  Uiso   1.00
H1260  H     0.36227   0.08445   0.62761   0.00000  Uiso   1.00
H1261  H     0.41959   0.10268   0.55798   0.00000  Uiso   1.00
H1262  H     0.44067   0.09349   0.60321   0.00000  Uiso   1.00
H1263  H     0.44957   0.17404   0.62293   0.00000  Uiso   1.00
H1264  H     0.43226   0.17749   0.57471   0.00000  Uiso   1.00
H1265  H     0.42778   0.30255   0.93545   0.00000  Uiso   1.00
H1266  H     0.45702   0.27653   0.88430   0.00000  Uiso   1.00
H1267  H     0.40130   0.28350   0.89183   0.00000  Uiso   1.00
H1268  H     0.39816   0.21215   0.90529   0.00000  Uiso   1.00
H1269  H     0.37992   0.23850   0.95775   0.00000  Uiso   1.00
H1270  H     0.60718   0.01562   0.60819   0.00000  Uiso   1.00
H1271  H     0.49251   0.30517   0.53036   0.00000  Uiso   1.00
H1272  H     0.48304   0.31729   0.97881   0.00000  Uiso   1.00
H1273  H     0.45327   0.00592   0.53265   0.00000  Uiso   1.00
H1274  H     0.40523   0.28309   0.50636   0.00000  Uiso   1.00
H1275  H     0.41841   0.26773   0.55293   0.00000  Uiso   1.00
H1276  H     0.46689   0.03750   0.93475   0.00000  Uiso   1.00
H1277  H     0.42251   0.06788   0.95757   0.00000  Uiso   1.00
H1278  H     0.42589   0.03579   0.90520   0.00000  Uiso   1.00
H1279  H     0.44756   0.10720   0.88909   0.00000  Uiso   1.00
H1280  H     0.49440   0.07997   0.86939   0.00000  Uiso   1.00
H1281  H     0.64657   0.05214   0.57527   0.00000  Uiso   1.00
H1282  H     0.41925   0.27911   0.69024   0.00000  Uiso   1.00
H1283  H     0.37886   0.28173   0.66058   0.00000  Uiso   1.00
H1284  H     0.38209   0.31719   0.70954   0.00000  Uiso   1.00
H1285  H     0.65388   0.26188   0.72917   0.00000  Uiso   1.00
H1286  H     0.36070   0.25882   0.75845   0.00000  Uiso   1.00
H1287  H     0.39159   0.20383   0.69752   0.00000  Uiso   1.00
H1288  H     0.34913   0.20489   0.67191   0.00000  Uiso   1.00
H1289  H     0.62040   0.06692   0.63379   0.00000  Uiso   1.00
H1290  H     0.55042   0.06296   0.61649   0.00000  Uiso   1.00
H1291  H     0.57233   0.04252   0.55964   0.00000  Uiso   1.00
H1292  H     0.62600   0.11248   0.55097   0.00000  Uiso   1.00
O1293  O     0.50000   0.16667   0.75000   0.00000  Uiso   1.00
O1294  O     0.48784   0.12637   0.65458   0.00000  Uiso   1.00
O1295  O     0.46274   0.20391   0.84968   0.00000  Uiso   1.00
O1296  O     0.54157   0.17759   0.64606   0.00000  Uiso   1.00
O1297  O     0.50785   0.15880   0.84968   0.00000  Uiso   1.00
O1298  O     0.51264   0.08019   0.78213   0.00000  Uiso   1.00
O1299  O     0.47965   0.26085   0.77013   0.00000  Uiso   1.00
O1300  O     0.40745   0.13291   0.73413   0.00000  Uiso   1.00
O1301  O     0.60026   0.19272   0.71360   0.00000  Uiso   1.00
O1302  O     0.40405   0.18878   0.78213   0.00000  Uiso   1.00
O1303  O     0.58824   0.15226   0.77013   0.00000  Uiso   1.00
O1304  O     0.47093   0.06944   0.73413   0.00000  Uiso   1.00
O1305  O     0.53678   0.25620   0.71360   0.00000  Uiso   1.00
Zn1306 Zn    0.52672   0.13994   0.78734   0.00000  Uiso   1.00
Zn1307 Zn    0.46713   0.12458   0.71875   0.00000  Uiso   1.00
Zn1308 Zn    0.54389   0.19775   0.70657   0.00000  Uiso   1.00
Zn1309 Zn    0.46226   0.20439   0.78733   0.00000  Uiso   1.00
C1310  C     0.71922   0.15919   0.76057   0.00000  Uiso   1.00
C1311  C     0.82932   0.15478   0.56045   0.00000  Uiso   1.00
C1312  C     0.89385   0.12099   0.55262   0.00000  Uiso   1.00
C1313  C     0.94755   0.17443   0.74008   0.00000  Uiso   1.00
C1314  C     0.80022   0.18746   0.92215   0.00000  Uiso   1.00
C1315  C     0.99386   0.17957   0.73670   0.00000  Uiso   1.00
C1316  C     0.67430   0.15741   0.76247   0.00000  Uiso   1.00
C1317  C     0.84748   0.32296   0.73852   0.00000  Uiso   1.00
C1318  C     0.81600   0.01244   0.76376   0.00000  Uiso   1.00
C1319  C     0.82240   0.05624   0.76011   0.00000  Uiso   1.00
C1320  C     0.84310   0.27804   0.74046   0.00000  Uiso   1.00
C1321  C     0.78339   0.23595   0.98991   0.00000  Uiso   1.00
C1322  C     0.85194   0.14819   0.62903   0.00000  Uiso   1.00
C1323  C     0.81288   0.18307   0.87154   0.00000  Uiso   1.00
C1324  C     0.89569   0.10938   0.50615   0.00000  Uiso   1.00
C1325  C     0.85885   0.14144   0.57988   0.00000  Uiso   1.00
C1326  C     0.77719   0.22057   0.94681   0.00000  Uiso   1.00
C1327  C     0.92644   0.10856   0.57413   0.00000  Uiso   1.00
C1328  C     0.91329   0.06405   0.58793   0.00000  Uiso   1.00
C1329  C     0.94921   0.04887   0.60220   0.00000  Uiso   1.00
C1330  C     0.88886   0.00921   0.70722   0.00000  Uiso   1.00
C1331  C     0.92599   0.01656   0.72981   0.00000  Uiso   1.00
C1332  C     0.80734   0.21515   0.50916   0.00000  Uiso   1.00
C1333  C     0.77277   0.32777   0.79378   0.00000  Uiso   1.00
C1334  C     0.73955   0.02499   0.81305   0.00000  Uiso   1.00
C1335  C     0.93045   0.08417   0.97596   0.00000  Uiso   1.00
C1336  C     0.96435   0.11146   0.94310   0.00000  Uiso   1.00
C1337  C     0.99993   0.08697   0.91373   0.00000  Uiso   1.00
C1338  C     0.78310   0.15851   0.58885   0.00000  Uiso   1.00
C1339  C     0.75686   0.11524   0.59193   0.00000  Uiso   1.00
C1340  C     0.71238   0.11650   0.62464   0.00000  Uiso   1.00
C1341  C     0.74291   0.23571   0.92990   0.00000  Uiso   1.00
C1342  C     0.75841   0.27700   0.90907   0.00000  Uiso   1.00
C1343  C     0.81971   0.17632   0.99024   0.00000  Uiso   1.00
C1344  C     0.76549   0.27422   0.51704   0.00000  Uiso   1.00
C1345  C     0.80083   0.31119   0.51447   0.00000  Uiso   1.00
C1346  C     0.80437   0.09222   0.89984   0.00000  Uiso   1.00
C1347  C     0.77836   0.05614   0.92607   0.00000  Uiso   1.00
C1348  C     0.69078   0.20963   0.70487   0.00000  Uiso   1.00
C1349  C     0.68717   0.25461   0.72479   0.00000  Uiso   1.00
C1350  C     0.71887   0.28495   0.69427   0.00000  Uiso   1.00
C1351  C     0.81603   0.16194   0.94635   0.00000  Uiso   1.00
C1352  C     0.83866   0.15268   0.51309   0.00000  Uiso   1.00
C1353  C     0.86566   0.12360   0.98748   0.00000  Uiso   1.00
C1354  C     0.85860   0.10719   0.94548   0.00000  Uiso   1.00
C1355  C     0.82833   0.12219   0.92892   0.00000  Uiso   1.00
H1356  H     0.98560   0.13550   0.78419   0.00000  Uiso   1.00
H1357  H     0.92962   0.12968   0.60432   0.00000  Uiso   1.00
H1358  H     0.91816   0.03805   0.76085   0.00000  Uiso   1.00
H1359  H     0.93239   0.32014   0.73875   0.00000  Uiso   1.00
H1360  H     0.95569   0.03057   0.70632   0.00000  Uiso   1.00
H1361  H     0.89778   0.32175   0.67581   0.00000  Uiso   1.00
H1362  H     0.88496   0.03888   0.69601   0.00000  Uiso   1.00
H1363  H     0.75290   0.05201   0.83270   0.00000  Uiso   1.00
H1364  H     0.72945   0.03591   0.78545   0.00000  Uiso   1.00
H1365  H     0.71052   0.00919   0.83587   0.00000  Uiso   1.00
H1366  H     0.75725   0.30241   0.77397   0.00000  Uiso   1.00
H1367  H     0.87213   0.07977   0.92784   0.00000  Uiso   1.00
H1368  H     0.77901   0.31536   0.82277   0.00000  Uiso   1.00
H1369  H     0.68336   0.07454   0.93507   0.00000  Uiso   1.00
H1370  H     0.98610   0.06088   0.89325   0.00000  Uiso   1.00
H1371  H     0.69063   0.10761   0.89057   0.00000  Uiso   1.00
H1372  H     0.94895   0.12433   0.92078   0.00000  Uiso   1.00
H1373  H     0.97918   0.13780   0.96252   0.00000  Uiso   1.00
H1374  H     0.94743   0.06968   0.99521   0.00000  Uiso   1.00
H1375  H     0.91571   0.05723   0.95743   0.00000  Uiso   1.00
H1376  H     0.71541   0.12979   0.65853   0.00000  Uiso   1.00
H1377  H     0.69291   0.13527   0.61236   0.00000  Uiso   1.00
H1378  H     0.81435   0.22847   0.54067   0.00000  Uiso   1.00
H1379  H     0.69560   0.08445   0.62761   0.00000  Uiso   1.00
H1380  H     0.75292   0.10268   0.55798   0.00000  Uiso   1.00
H1381  H     0.77400   0.09349   0.60321   0.00000  Uiso   1.00
H1382  H     0.78290   0.17404   0.62293   0.00000  Uiso   1.00
H1383  H     0.76559   0.17749   0.57471   0.00000  Uiso   1.00
H1384  H     0.76111   0.30255   0.93545   0.00000  Uiso   1.00
H1385  H     0.79035   0.27653   0.88430   0.00000  Uiso   1.00
H1386  H     0.73463   0.28350   0.89183   0.00000  Uiso   1.00
H1387  H     0.73150   0.21215   0.90529   0.00000  Uiso   1.00
H1388  H     0.71325   0.23850   0.95775   0.00000  Uiso   1.00
H1389  H     0.94051   0.01562   0.60819   0.00000  Uiso   1.00
H1390  H     0.82584   0.30517   0.53036   0.00000  Uiso   1.00
H1391  H     0.81637   0.31729   0.97881   0.00000  Uiso   1.00
H1392  H     0.78660   0.00592   0.53265   0.00000  Uiso   1.00
H1393  H     0.73856   0.28309   0.50636   0.00000  Uiso   1.00
H1394  H     0.75174   0.26773   0.55293   0.00000  Uiso   1.00
H1395  H     0.80023   0.03750   0.93475   0.00000  Uiso   1.00
H1396  H     0.75584   0.06788   0.95757   0.00000  Uiso   1.00
H1397  H     0.75922   0.03579   0.90520   0.00000  Uiso   1.00
H1398  H     0.78089   0.10720   0.88909   0.00000  Uiso   1.00
H1399  H     0.82774   0.07997   0.86939   0.00000  Uiso   1.00
H1400  H     0.97991   0.05214   0.57527   0.00000  Uiso   1.00
H1401  H     0.75258   0.27911   0.69024   0.00000  Uiso   1.00
H1402  H     0.71220   0.28173   0.66058   0.00000  Uiso   1.00
H1403  H     0.71542   0.31719   0.70954   0.00000  Uiso   1.00
H1404  H     0.98721   0.26188   0.72917   0.00000  Uiso   1.00
H1405  H     0.69403   0.25882   0.75845   0.00000  Uiso   1.00
H1406  H     0.72492   0.20383   0.69752   0.00000  Uiso   1.00
H1407  H     0.68246   0.20489   0.67191   0.00000  Uiso   1.00
H1408  H     0.95373   0.06692   0.63379   0.00000  Uiso   1.00
H1409  H     0.88375   0.06296   0.61649   0.00000  Uiso   1.00
H1410  H     0.90566   0.04252   0.55964   0.00000  Uiso   1.00
H1411  H     0.95934   0.11248   0.55097   0.00000  Uiso   1.00
O1412  O     0.83333   0.16667   0.75000   0.00000  Uiso   1.00
O1413  O     0.82118   0.12637   0.65458   0.00000  Uiso   1.00
O1414  O     0.79607   0.20391   0.84968   0.00000  Uiso   1.00
O1415  O     0.87491   0.17759   0.64606   0.00000  Uiso   1.00
O1416  O     0.84118   0.15880   0.84968   0.00000  Uiso   1.00
O1417  O     0.84597   0.08019   0.78213   0.00000  Uiso   1.00
O1418  O     0.81298   0.26085   0.77013   0.00000  Uiso   1.00
O1419  O     0.74078   0.13291   0.73413   0.00000  Uiso   1.00
O1420  O     0.93360   0.19272   0.71360   0.00000  Uiso   1.00
O1421  O     0.73738   0.18878   0.78213   0.00000  Uiso   1.00
O1422  O     0.92158   0.15226   0.77013   0.00000  Uiso   1.00
O1423  O     0.80426   0.06944   0.73413   0.00000  Uiso   1.00
O1424  O     0.87012   0.25620   0.71360   0.00000  Uiso   1.00
Zn1425 Zn    0.86005   0.13994   0.78734   0.00000  Uiso   1.00
Zn1426 Zn    0.80046   0.12458   0.71875   0.00000  Uiso   1.00
Zn1427 Zn    0.87723   0.19775   0.70657   0.00000  Uiso   1.00
Zn1428 Zn    0.79560   0.20439   0.78733   0.00000  Uiso   1.00
C1429  C     0.05255   0.49252   0.76057   0.00000  Uiso   1.00
C1430  C     0.16265   0.48811   0.56045   0.00000  Uiso   1.00
C1431  C     0.22719   0.45432   0.55262   0.00000  Uiso   1.00
C1432  C     0.28088   0.50776   0.74008   0.00000  Uiso   1.00
C1433  C     0.13355   0.52079   0.92215   0.00000  Uiso   1.00
C1434  C     0.32720   0.51291   0.73670   0.00000  Uiso   1.00
C1435  C     0.00764   0.49075   0.76247   0.00000  Uiso   1.00
C1436  C     0.18081   0.65629   0.73852   0.00000  Uiso   1.00
C1437  C     0.14933   0.34577   0.76376   0.00000  Uiso   1.00
C1438  C     0.15573   0.38958   0.76011   0.00000  Uiso   1.00
C1439  C     0.17643   0.61137   0.74046   0.00000  Uiso   1.00
C1440  C     0.11672   0.56928   0.98991   0.00000  Uiso   1.00
C1441  C     0.18527   0.48152   0.62903   0.00000  Uiso   1.00
C1442  C     0.14621   0.51640   0.87154   0.00000  Uiso   1.00
C1443  C     0.22902   0.44271   0.50615   0.00000  Uiso   1.00
C1444  C     0.19218   0.47477   0.57988   0.00000  Uiso   1.00
C1445  C     0.11052   0.55390   0.94681   0.00000  Uiso   1.00
C1446  C     0.25978   0.44189   0.57413   0.00000  Uiso   1.00
C1447  C     0.24663   0.39738   0.58793   0.00000  Uiso   1.00
C1448  C     0.28254   0.38221   0.60220   0.00000  Uiso   1.00
C1449  C     0.22219   0.34254   0.70722   0.00000  Uiso   1.00
C1450  C     0.25933   0.34989   0.72981   0.00000  Uiso   1.00
C1451  C     0.14067   0.54848   0.50916   0.00000  Uiso   1.00
C1452  C     0.10611   0.66110   0.79378   0.00000  Uiso   1.00
C1453  C     0.07289   0.35832   0.81305   0.00000  Uiso   1.00
C1454  C     0.26378   0.41751   0.97596   0.00000  Uiso   1.00
C1455  C     0.29768   0.44479   0.94310   0.00000  Uiso   1.00
C1456  C     0.33326   0.42031   0.91373   0.00000  Uiso   1.00
C1457  C     0.11643   0.49185   0.58885   0.00000  Uiso   1.00
C1458  C     0.09020   0.44857   0.59193   0.00000  Uiso   1.00
C1459  C     0.04571   0.44983   0.62464   0.00000  Uiso   1.00
C1460  C     0.07625   0.56904   0.92990   0.00000  Uiso   1.00
C1461  C     0.09175   0.61033   0.90907   0.00000  Uiso   1.00
C1462  C     0.15305   0.50966   0.99024   0.00000  Uiso   1.00
C1463  C     0.09882   0.60756   0.51704   0.00000  Uiso   1.00
C1464  C     0.13417   0.64453   0.51447   0.00000  Uiso   1.00
C1465  C     0.13770   0.42555   0.89984   0.00000  Uiso   1.00
C1466  C     0.11170   0.38947   0.92607   0.00000  Uiso   1.00
C1467  C     0.02412   0.54296   0.70487   0.00000  Uiso   1.00
C1468  C     0.02050   0.58794   0.72479   0.00000  Uiso   1.00
C1469  C     0.05220   0.61828   0.69427   0.00000  Uiso   1.00
C1470  C     0.14936   0.49528   0.94635   0.00000  Uiso   1.00
C1471  C     0.17200   0.48601   0.51309   0.00000  Uiso   1.00
C1472  C     0.19900   0.45694   0.98748   0.00000  Uiso   1.00
C1473  C     0.19193   0.44052   0.94548   0.00000  Uiso   1.00
C1474  C     0.16166   0.45552   0.92892   0.00000  Uiso   1.00
H1475  H     0.31893   0.46883   0.78419   0.00000  Uiso   1.00
H1476  H     0.26296   0.46301   0.60432   0.00000  Uiso   1.00
H1477  H     0.25149   0.37139   0.76085   0.00000  Uiso   1.00
H1478  H     0.26573   0.65348   0.73875   0.00000  Uiso   1.00
H1479  H     0.28902   0.36390   0.70632   0.00000  Uiso   1.00
H1480  H     0.23112   0.65508   0.67581   0.00000  Uiso   1.00
H1481  H     0.21829   0.37221   0.69601   0.00000  Uiso   1.00
H1482  H     0.08624   0.38535   0.83270   0.00000  Uiso   1.00
H1483  H     0.06278   0.36924   0.78545   0.00000  Uiso   1.00
H1484  H     0.04385   0.34253   0.83587   0.00000  Uiso   1.00
H1485  H     0.09058   0.63575   0.77397   0.00000  Uiso   1.00
H1486  H     0.20547   0.41311   0.92784   0.00000  Uiso   1.00
H1487  H     0.11234   0.64869   0.82277   0.00000  Uiso   1.00
H1488  H     0.01670   0.40788   0.93507   0.00000  Uiso   1.00
H1489  H     0.31943   0.39421   0.89325   0.00000  Uiso   1.00
H1490  H     0.02396   0.44094   0.89057   0.00000  Uiso   1.00
H1491  H     0.28228   0.45766   0.92078   0.00000  Uiso   1.00
H1492  H     0.31252   0.47114   0.96252   0.00000  Uiso   1.00
H1493  H     0.28076   0.40301   0.99521   0.00000  Uiso   1.00
H1494  H     0.24905   0.39056   0.95743   0.00000  Uiso   1.00
H1495  H     0.04874   0.46312   0.65853   0.00000  Uiso   1.00
H1496  H     0.02625   0.46861   0.61236   0.00000  Uiso   1.00
H1497  H     0.14769   0.56181   0.54067   0.00000  Uiso   1.00
H1498  H     0.02894   0.41779   0.62761   0.00000  Uiso   1.00
H1499  H     0.08626   0.43601   0.55798   0.00000  Uiso   1.00
H1500  H     0.10734   0.42682   0.60321   0.00000  Uiso   1.00
H1501  H     0.11623   0.50737   0.62293   0.00000  Uiso   1.00
H1502  H     0.09892   0.51083   0.57471   0.00000  Uiso   1.00
H1503  H     0.09444   0.63588   0.93545   0.00000  Uiso   1.00
H1504  H     0.12369   0.60987   0.88430   0.00000  Uiso   1.00
H1505  H     0.06796   0.61683   0.89183   0.00000  Uiso   1.00
H1506  H     0.06483   0.54548   0.90529   0.00000  Uiso   1.00
H1507  H     0.04658   0.57183   0.95775   0.00000  Uiso   1.00
H1508  H     0.27385   0.34896   0.60819   0.00000  Uiso   1.00
H1509  H     0.15917   0.63850   0.53036   0.00000  Uiso   1.00
H1510  H     0.14970   0.65063   0.97881   0.00000  Uiso   1.00
H1511  H     0.11993   0.33925   0.53265   0.00000  Uiso   1.00
H1512  H     0.07190   0.61642   0.50636   0.00000  Uiso   1.00
H1513  H     0.08508   0.60106   0.55293   0.00000  Uiso   1.00
H1514  H     0.13356   0.37083   0.93475   0.00000  Uiso   1.00
H1515  H     0.08917   0.40122   0.95757   0.00000  Uiso   1.00
H1516  H     0.09255   0.36913   0.90520   0.00000  Uiso   1.00
H1517  H     0.11422   0.44053   0.88909   0.00000  Uiso   1.00
H1518  H     0.16107   0.41330   0.86939   0.00000  Uiso   1.00
H1519  H     0.31324   0.38547   0.57527   0.00000  Uiso   1.00
H1520  H     0.08591   0.61244   0.69024   0.00000  Uiso   1.00
H1521  H     0.04553   0.61507   0.66058   0.00000  Uiso   1.00
H1522  H     0.04875   0.65053   0.70954   0.00000  Uiso   1.00
H1523  H     0.32054   0.59521   0.72917   0.00000  Uiso   1.00
H1524  H     0.02737   0.59216   0.75845   0.00000  Uiso   1.00
H1525  H     0.05826   0.53717   0.69752   0.00000  Uiso   1.00
H1526  H     0.01579   0.53822   0.67191   0.00000  Uiso   1.00
H1527  H     0.28707   0.40025   0.63379   0.00000  Uiso   1.00
H1528  H     0.21708   0.39630   0.61649   0.00000  Uiso   1.00
H1529  H     0.23899   0.37585   0.55964   0.00000  Uiso   1.00
H1530  H     0.29267   0.44581   0.55097   0.00000  Uiso   1.00
O1531  O     0.16667   0.50000   0.75000   0.00000  Uiso   1.00
O1532  O     0.15451   0.45970   0.65458   0.00000  Uiso   1.00
O1533  O     0.12940   0.53724   0.84968   0.00000  Uiso   1.00
O1534  O     0.20824   0.51092   0.64606   0.00000  Uiso   1.00
O1535  O     0.17451   0.49213   0.84968   0.00000  Uiso   1.00
O1536  O     0.17930   0.41352   0.78213   0.00000  Uiso   1.00
O1537  O     0.14632   0.59418   0.77013   0.00000  Uiso   1.00
O1538  O     0.07412   0.46625   0.73413   0.00000  Uiso   1.00
O1539  O     0.26693   0.52605   0.71360   0.00000  Uiso   1.00
O1540  O     0.07071   0.52211   0.78213   0.00000  Uiso   1.00
O1541  O     0.25491   0.48559   0.77013   0.00000  Uiso   1.00
O1542  O     0.13760   0.40277   0.73413   0.00000  Uiso   1.00
O1543  O     0.20345   0.58953   0.71360   0.00000  Uiso   1.00
Zn1544 Zn    0.19338   0.47327   0.78734   0.00000  Uiso   1.00
Zn1545 Zn    0.13379   0.45791   0.71875   0.00000  Uiso   1.00
Zn1546 Zn    0.21056   0.53109   0.70657   0.00000  Uiso   1.00
Zn1547 Zn    0.12893   0.53773   0.78733   0.00000  Uiso   1.00
C1548  C     0.38589   0.49252   0.76057   0.00000  Uiso   1.00
C1549  C     0.49598   0.48811   0.56045   0.00000  Uiso   1.00
C1550  C     0.56052   0.45432   0.55262   0.00000  Uiso   1.00
C1551  C     0.61421   0.50776   0.74008   0.00000  Uiso   1.00
C1552  C     0.46689   0.52079   0.92215   0.00000  Uiso   1.00
C1553  C     0.66053   0.51291   0.73670   0.00000  Uiso   1.00
C1554  C     0.34097   0.49075   0.76247   0.00000  Uiso   1.00
C1555  C     0.51414   0.65629   0.73852   0.00000  Uiso   1.00
C1556  C     0.48267   0.34577   0.76376   0.00000  Uiso   1.00
C1557  C     0.48907   0.38958   0.76011   0.00000  Uiso   1.00
C1558  C     0.50977   0.61137   0.74046   0.00000  Uiso   1.00
C1559  C     0.45005   0.56928   0.98991   0.00000  Uiso   1.00
C1560  C     0.51861   0.48152   0.62903   0.00000  Uiso   1.00
C1561  C     0.47954   0.51640   0.87154   0.00000  Uiso   1.00
C1562  C     0.56236   0.44271   0.50615   0.00000  Uiso   1.00
C1563  C     0.52552   0.47477   0.57988   0.00000  Uiso   1.00
C1564  C     0.44386   0.55390   0.94681   0.00000  Uiso   1.00
C1565  C     0.59311   0.44189   0.57413   0.00000  Uiso   1.00
C1566  C     0.57996   0.39738   0.58793   0.00000  Uiso   1.00
C1567  C     0.61588   0.38221   0.60220   0.00000  Uiso   1.00
C1568  C     0.55553   0.34254   0.70722   0.00000  Uiso   1.00
C1569  C     0.59266   0.34989   0.72981   0.00000  Uiso   1.00
C1570  C     0.47400   0.54848   0.50916   0.00000  Uiso   1.00
C1571  C     0.43944   0.66110   0.79378   0.00000  Uiso   1.00
C1572  C     0.40622   0.35832   0.81305   0.00000  Uiso   1.00
C1573  C     0.59711   0.41751   0.97596   0.00000  Uiso   1.00
C1574  C     0.63101   0.44479   0.94310   0.00000  Uiso   1.00
C1575  C     0.66660   0.42031   0.91373   0.00000  Uiso   1.00
C1576  C     0.44977   0.49185   0.58885   0.00000  Uiso   1.00
C1577  C     0.42353   0.44857   0.59193   0.00000  Uiso   1.00
C1578  C     0.37904   0.44983   0.62464   0.00000  Uiso   1.00
C1579  C     0.40958   0.56904   0.92990   0.00000  Uiso   1.00
C1580  C     0.42508   0.61033   0.90907   0.00000  Uiso   1.00
C1581  C     0.48638   0.50966   0.99024   0.00000  Uiso   1.00
C1582  C     0.43215   0.60756   0.51704   0.00000  Uiso   1.00
C1583  C     0.46750   0.64453   0.51447   0.00000  Uiso   1.00
C1584  C     0.47103   0.42555   0.89984   0.00000  Uiso   1.00
C1585  C     0.44503   0.38947   0.92607   0.00000  Uiso   1.00
C1586  C     0.35745   0.54296   0.70487   0.00000  Uiso   1.00
C1587  C     0.35383   0.58794   0.72479   0.00000  Uiso   1.00
C1588  C     0.38554   0.61828   0.69427   0.00000  Uiso   1.00
C1589  C     0.48269   0.49528   0.94635   0.00000  Uiso   1.00
C1590  C     0.50533   0.48601   0.51309   0.00000  Uiso   1.00
C1591  C     0.53233   0.45694   0.98748   0.00000  Uiso   1.00
C1592  C     0.52526   0.44052   0.94548   0.00000  Uiso   1.00
C1593  C     0.49500   0.45552   0.92892   0.00000  Uiso   1.00
H1594  H     0.65227   0.46883   0.78419   0.00000  Uiso   1.00
H1595  H     0.59629   0.46301   0.60432   0.00000  Uiso   1.00
H1596  H     0.58483   0.37139   0.76085   0.00000  Uiso   1.00
H1597  H     0.59906   0.65348   0.73875   0.00000  Uiso   1.00
H1598  H     0.62236   0.36390   0.70632   0.00000  Uiso   1.00
H1599  H     0.56445   0.65508   0.67581   0.00000  Uiso   1.00
H1600  H     0.55162   0.37221   0.69601   0.00000  Uiso   1.00
H1601  H     0.41957   0.38535   0.83270   0.00000  Uiso   1.00
H1602  H     0.39612   0.36924   0.78545   0.00000  Uiso   1.00
H1603  H     0.37718   0.34253   0.83587   0.00000  Uiso   1.00
H1604  H     0.42392   0.63575   0.77397   0.00000  Uiso   1.00
H1605  H     0.53880   0.41311   0.92784   0.00000  Uiso   1.00
H1606  H     0.44568   0.64869   0.82277   0.00000  Uiso   1.00
H1607  H     0.35003   0.40788   0.93507   0.00000  Uiso   1.00
H1608  H     0.65277   0.39421   0.89325   0.00000  Uiso   1.00
H1609  H     0.35730   0.44094   0.89057   0.00000  Uiso   1.00
H1610  H     0.61561   0.45766   0.92078   0.00000  Uiso   1.00
H1611  H     0.64585   0.47114   0.96252   0.00000  Uiso   1.00
H1612  H     0.61410   0.40301   0.99521   0.00000  Uiso   1.00
H1613  H     0.58238   0.39056   0.95743   0.00000  Uiso   1.00
H1614  H     0.38207   0.46312   0.65853   0.00000  Uiso   1.00
H1615  H     0.35958   0.46861   0.61236   0.00000  Uiso   1.00
H1616  H     0.48102   0.56181   0.54067   0.00000  Uiso   1.00
H1617  H     0.36227   0.41779   0.62761   0.00000  Uiso   1.00
H1618  H     0.41959   0.43601   0.55798   0.00000  Uiso   1.00
H1619  H     0.44067   0.42682   0.60321   0.00000  Uiso   1.00
H1620  H     0.44957   0.50737   0.62293   0.00000  Uiso   1.00
H1621  H     0.43226   0.51083   0.57471   0.00000  Uiso   1.00
H1622  H     0.42778   0.63588   0.93545   0.00000  Uiso   1.00
H1623  H     0.45702   0.60987   0.88430   0.00000  Uiso   1.00
H1624  H     0.40130   0.61683   0.89183   0.00000  Uiso   1.00
H1625  H     0.39816   0.54548   0.90529   0.00000  Uiso   1.00
H1626  H     0.37992   0.57183   0.95775   0.00000  Uiso   1.00
H1627  H     0.60718   0.34896   0.60819   0.00000  Uiso   1.00
H1628  H     0.49251   0.63850   0.53036   0.00000  Uiso   1.00
H1629  H     0.48304   0.65063   0.97881   0.00000  Uiso   1.00
H1630  H     0.45327   0.33925   0.53265   0.00000  Uiso   1.00
H1631  H     0.40523   0.61642   0.50636   0.00000  Uiso   1.00
H1632  H     0.41841   0.60106   0.55293   0.00000  Uiso   1.00
H1633  H     0.46689   0.37083   0.93475   0.00000  Uiso   1.00
H1634  H     0.42251   0.40122   0.95757   0.00000  Uiso   1.00
H1635  H     0.42589   0.36913   0.90520   0.00000  Uiso   1.00
H1636  H     0.44756   0.44053   0.88909   0.00000  Uiso   1.00
H1637  H     0.49440   0.41330   0.86939   0.00000  Uiso   1.00
H1638  H     0.64657   0.38547   0.57527   0.00000  Uiso   1.00
H1639  H     0.41925   0.61244   0.69024   0.00000  Uiso   1.00
H1640  H     0.37886   0.61507   0.66058   0.00000  Uiso   1.00
H1641  H     0.38209   0.65053   0.70954   0.00000  Uiso   1.00
H1642  H     0.65388   0.59521   0.72917   0.00000  Uiso   1.00
H1643  H     0.36070   0.59216   0.75845   0.00000  Uiso   1.00
H1644  H     0.39159   0.53717   0.69752   0.00000  Uiso   1.00
H1645  H     0.34913   0.53822   0.67191   0.00000  Uiso   1.00
H1646  H     0.62040   0.40025   0.63379   0.00000  Uiso   1.00
H1647  H     0.55042   0.39630   0.61649   0.00000  Uiso   1.00
H1648  H     0.57233   0.37585   0.55964   0.00000  Uiso   1.00
H1649  H     0.62600   0.44581   0.55097   0.00000  Uiso   1.00
O1650  O     0.50000   0.50000   0.75000   0.00000  Uiso   1.00
O1651  O     0.48784   0.45970   0.65458   0.00000  Uiso   1.00
O1652  O     0.46274   0.53724   0.84968   0.00000  Uiso   1.00
O1653  O     0.54157   0.51092   0.64606   0.00000  Uiso   1.00
O1654  O     0.50785   0.49213   0.84968   0.00000  Uiso   1.00
O1655  O     0.51264   0.41352   0.78213   0.00000  Uiso   1.00
O1656  O     0.47965   0.59418   0.77013   0.00000  Uiso   1.00
O1657  O     0.40745   0.46625   0.73413   0.00000  Uiso   1.00
O1658  O     0.60026   0.52605   0.71360   0.00000  Uiso   1.00
O1659  O     0.40405   0.52211   0.78213   0.00000  Uiso   1.00
O1660  O     0.58824   0.48559   0.77013   0.00000  Uiso   1.00
O1661  O     0.47093   0.40277   0.73413   0.00000  Uiso   1.00
O1662  O     0.53678   0.58953   0.71360   0.00000  Uiso   1.00
Zn1663 Zn    0.52672   0.47327   0.78734   0.00000  Uiso   1.00
Zn1664 Zn    0.46713   0.45791   0.71875   0.00000  Uiso   1.00
Zn1665 Zn    0.54389   0.53109   0.70657   0.00000  Uiso   1.00
Zn1666 Zn    0.46226   0.53773   0.78733   0.00000  Uiso   1.00
C1667  C     0.71922   0.49252   0.76057   0.00000  Uiso   1.00
C1668  C     0.82932   0.48811   0.56045   0.00000  Uiso   1.00
C1669  C     0.89385   0.45432   0.55262   0.00000  Uiso   1.00
C1670  C     0.94755   0.50776   0.74008   0.00000  Uiso   1.00
C1671  C     0.80022   0.52079   0.92215   0.00000  Uiso   1.00
C1672  C     0.99386   0.51291   0.73670   0.00000  Uiso   1.00
C1673  C     0.67430   0.49075   0.76247   0.00000  Uiso   1.00
C1674  C     0.84748   0.65629   0.73852   0.00000  Uiso   1.00
C1675  C     0.81600   0.34577   0.76376   0.00000  Uiso   1.00
C1676  C     0.82240   0.38958   0.76011   0.00000  Uiso   1.00
C1677  C     0.84310   0.61137   0.74046   0.00000  Uiso   1.00
C1678  C     0.78339   0.56928   0.98991   0.00000  Uiso   1.00
C1679  C     0.85194   0.48152   0.62903   0.00000  Uiso   1.00
C1680  C     0.81288   0.51640   0.87154   0.00000  Uiso   1.00
C1681  C     0.89569   0.44271   0.50615   0.00000  Uiso   1.00
C1682  C     0.85885   0.47477   0.57988   0.00000  Uiso   1.00
C1683  C     0.77719   0.55390   0.94681   0.00000  Uiso   1.00
C1684  C     0.92644   0.44189   0.57413   0.00000  Uiso   1.00
C1685  C     0.91329   0.39738   0.58793   0.00000  Uiso   1.00
C1686  C     0.94921   0.38221   0.60220   0.00000  Uiso   1.00
C1687  C     0.88886   0.34254   0.70722   0.00000  Uiso   1.00
C1688  C     0.92599   0.34989   0.72981   0.00000  Uiso   1.00
C1689  C     0.80734   0.54848   0.50916   0.00000  Uiso   1.00
C1690  C     0.77277   0.66110   0.79378   0.00000  Uiso   1.00
C1691  C     0.73955   0.35832   0.81305   0.00000  Uiso   1.00
C1692  C     0.93045   0.41751   0.97596   0.00000  Uiso   1.00
C1693  C     0.96435   0.44479   0.94310   0.00000  Uiso   1.00
C1694  C     0.99993   0.42031   0.91373   0.00000  Uiso   1.00
C1695  C     0.78310   0.49185   0.58885   0.00000  Uiso   1.00
C1696  C     0.75686   0.44857   0.59193   0.00000  Uiso   1.00
C1697  C     0.71238   0.44983   0.62464   0.00000  Uiso   1.00
C1698  C     0.74291   0.56904   0.92990   0.00000  Uiso   1.00
C1699  C     0.75841   0.61033   0.90907   0.00000  Uiso   1.00
C1700  C     0.81971   0.50966   0.99024   0.00000  Uiso   1.00
C1701  C     0.76549   0.60756   0.51704   0.00000  Uiso   1.00
C1702  C     0.80083   0.64453   0.51447   0.00000  Uiso   1.00
C1703  C     0.80437   0.42555   0.89984   0.00000  Uiso   1.00
C1704  C     0.77836   0.38947   0.92607   0.00000  Uiso   1.00
C1705  C     0.69078   0.54296   0.70487   0.00000  Uiso   1.00
C1706  C     0.68717   0.58794   0.72479   0.00000  Uiso   1.00
C1707  C     0.71887   0.61828   0.69427   0.00000  Uiso   1.00
C1708  C     0.81603   0.49528   0.94635   0.00000  Uiso   1.00
C1709  C     0.83866   0.48601   0.51309   0.00000  Uiso   1.00
C1710  C     0.86566   0.45694   0.98748   0.00000  Uiso   1.00
C1711  C     0.85860   0.44052   0.94548   0.00000  Uiso   1.00
C1712  C     0.82833   0.45552   0.92892   0.00000  Uiso   1.00
H1713  H     0.98560   0.46883   0.78419   0.00000  Uiso   1.00
H1714  H     0.92962   0.46301   0.60432   0.00000  Uiso   1.00
H1715  H     0.91816   0.37139   0.76085   0.00000  Uiso   1.00
H1716  H     0.93239   0.65348   0.73875   0.00000  Uiso   1.00
H1717  H     0.95569   0.36390   0.70632   0.00000  Uiso   1.00
H1718  H     0.89778   0.65508   0.67581   0.00000  Uiso   1.00
H1719  H     0.88496   0.37221   0.69601   0.00000  Uiso   1.00
H1720  H     0.75290   0.38535   0.83270   0.00000  Uiso   1.00
H1721  H     0.72945   0.36924   0.78545   0.00000  Uiso   1.00
H1722  H     0.71052   0.34253   0.83587   0.00000  Uiso   1.00
H1723  H     0.75725   0.63575   0.77397   0.00000  Uiso   1.00
H1724  H     0.87213   0.41311   0.92784   0.00000  Uiso   1.00
H1725  H     0.77901   0.64869   0.82277   0.00000  Uiso   1.00
H1726  H     0.68336   0.40788   0.93507   0.00000  Uiso   1.00
H1727  H     0.98610   0.39421   0.89325   0.00000  Uiso   1.00
H1728  H     0.69063   0.44094   0.89057   0.00000  Uiso   1.00
H1729  H     0.94895   0.45766   0.92078   0.00000  Uiso   1.00
H1730  H     0.97918   0.47114   0.96252   0.00000  Uiso   1.00
H1731  H     0.94743   0.40301   0.99521   0.00000  Uiso   1.00
H1732  H     0.91571   0.39056   0.95743   0.00000  Uiso   1.00
H1733  H     0.71541   0.46312   0.65853   0.00000  Uiso   1.00
H1734  H     0.69291   0.46861   0.61236   0.00000  Uiso   1.00
H1735  H     0.81435   0.56181   0.54067   0.00000  Uiso   1.00
H1736  H     0.69560   0.41779   0.62761   0.00000  Uiso   1.00
H1737  H     0.75292   0.43601   0.55798   0.00000  Uiso   1.00
H1738  H     0.77400   0.42682   0.60321   0.00000  Uiso   1.00
H1739  H     0.78290   0.50737   0.62293   0.00000  Uiso   1.00
H1740  H     0.76559   0.51083   0.57471   0.00000  Uiso   1.00
H1741  H     0.76111   0.63588   0.93545   0.00000  Uiso   1.00
H1742  H     0.79035   0.60987   0.88430   0.00000  Uiso   1.00
H1743  H     0.73463   0.61683   0.89183   0.00000  Uiso   1.00
H1744  H     0.73150   0.54548   0.90529   0.00000  Uiso   1.00
H1745  H     0.71325   0.57183   0.95775   0.00000  Uiso   1.00
H1746  H     0.94051   0.34896   0.60819   0.00000  Uiso   1.00
H1747  H     0.82584   0.63850   0.53036   0.00000  Uiso   1.00
H1748  H     0.81637   0.65063   0.97881   0.00000  Uiso   1.00
H1749  H     0.78660   0.33925   0.53265   0.00000  Uiso   1.00
H1750  H     0.73856   0.61642   0.50636   0.00000  Uiso   1.00
H1751  H     0.75174   0.60106   0.55293   0.00000  Uiso   1.00
H1752  H     0.80023   0.37083   0.93475   0.00000  Uiso   1.00
H1753  H     0.75584   0.40122   0.95757   0.00000  Uiso   1.00
H1754  H     0.75922   0.36913   0.90520   0.00000  Uiso   1.00
H1755  H     0.78089   0.44053   0.88909   0.00000  Uiso   1.00
H1756  H     0.82774   0.41330   0.86939   0.00000  Uiso   1.00
H1757  H     0.97991   0.38547   0.57527   0.00000  Uiso   1.00
H1758  H     0.75258   0.61244   0.69024   0.00000  Uiso   1.00
H1759  H     0.71220   0.61507   0.66058   0.00000  Uiso   1.00
H1760  H     0.71542   0.65053   0.70954   0.00000  Uiso   1.00
H1761  H     0.98721   0.59521   0.72917   0.00000  Uiso   1.00
H1762  H     0.69403   0.59216   0.75845   0.00000  Uiso   1.00
H1763  H     0.72492   0.53717   0.69752   0.00000  Uiso   1.00
H1764  H     0.68246   0.53822   0.67191   0.00000  Uiso   1.00
H1765  H     0.95373   0.40025   0.63379   0.00000  Uiso   1.00
H1766  H     0.88375   0.39630   0.61649   0.00000  Uiso   1.00
H1767  H     0.90566   0.37585   0.55964   0.00000  Uiso   1.00
H1768  H     0.95934   0.44581   0.55097   0.00000  Uiso   1.00
O1769  O     0.83333   0.50000   0.75000   0.00000  Uiso   1.00
O1770  O     0.82118   0.45970   0.65458   0.00000  Uiso   1.00
O1771  O     0.79607   0.53724   0.84968   0.00000  Uiso   1.00
O1772  O     0.87491   0.51092   0.64606   0.00000  Uiso   1.00
O1773  O     0.84118   0.49213   0.84968   0.00000  Uiso   1.00
O1774  O     0.84597   0.41352   0.78213   0.00000  Uiso   1.00
O1775  O     0.81298   0.59418   0.77013   0.00000  Uiso   1.00
O1776  O     0.74078   0.46625   0.73413   0.00000  Uiso   1.00
O1777  O     0.93360   0.52605   0.71360   0.00000  Uiso   1.00
O1778  O     0.73738   0.52211   0.78213   0.00000  Uiso   1.00
O1779  O     0.92158   0.48559   0.77013   0.00000  Uiso   1.00
O1780  O     0.80426   0.40277   0.73413   0.00000  Uiso   1.00
O1781  O     0.87012   0.58953   0.71360   0.00000  Uiso   1.00
Zn1782 Zn    0.86005   0.47327   0.78734   0.00000  Uiso   1.00
Zn1783 Zn    0.80046   0.45791   0.71875   0.00000  Uiso   1.00
Zn1784 Zn    0.87723   0.53109   0.70657   0.00000  Uiso   1.00
Zn1785 Zn    0.79560   0.53773   0.78733   0.00000  Uiso   1.00
C1786  C     0.05255   0.82586   0.76057   0.00000  Uiso   1.00
C1787  C     0.16265   0.82144   0.56045   0.00000  Uiso   1.00
C1788  C     0.22719   0.78766   0.55262   0.00000  Uiso   1.00
C1789  C     0.28088   0.84110   0.74008   0.00000  Uiso   1.00
C1790  C     0.13355   0.85413   0.92215   0.00000  Uiso   1.00
C1791  C     0.32720   0.84624   0.73670   0.00000  Uiso   1.00
C1792  C     0.00764   0.82408   0.76247   0.00000  Uiso   1.00
C1793  C     0.18081   0.98963   0.73852   0.00000  Uiso   1.00
C1794  C     0.14933   0.67910   0.76376   0.00000  Uiso   1.00
C1795  C     0.15573   0.72291   0.76011   0.00000  Uiso   1.00
C1796  C     0.17643   0.94471   0.74046   0.00000  Uiso   1.00
C1797  C     0.11672   0.90262   0.98991   0.00000  Uiso   1.00
C1798  C     0.18527   0.81486   0.62903   0.00000  Uiso   1.00
C1799  C     0.14621   0.84973   0.87154   0.00000  Uiso   1.00
C1800  C     0.22902   0.77605   0.50615   0.00000  Uiso   1.00
C1801  C     0.19218   0.80810   0.57988   0.00000  Uiso   1.00
C1802  C     0.11052   0.88723   0.94681   0.00000  Uiso   1.00
C1803  C     0.25978   0.77523   0.57413   0.00000  Uiso   1.00
C1804  C     0.24663   0.73072   0.58793   0.00000  Uiso   1.00
C1805  C     0.28254   0.71554   0.60220   0.00000  Uiso   1.00
C1806  C     0.22219   0.67587   0.70722   0.00000  Uiso   1.00
C1807  C     0.25933   0.68323   0.72981   0.00000  Uiso   1.00
C1808  C     0.14067   0.88181   0.50916   0.00000  Uiso   1.00
C1809  C     0.10611   0.99443   0.79378   0.00000  Uiso   1.00
C1810  C     0.07289   0.69166   0.81305   0.00000  Uiso   1.00
C1811  C     0.26378   0.75084   0.97596   0.00000  Uiso   1.00
C1812  C     0.29768   0.77813   0.94310   0.00000  Uiso   1.00
C1813  C     0.33326   0.75364   0.91373   0.00000  Uiso   1.00
C1814  C     0.11643   0.82518   0.58885   0.00000  Uiso   1.00
C1815  C     0.09020   0.78190   0.59193   0.00000  Uiso   1.00
C1816  C     0.04571   0.78317   0.62464   0.00000  Uiso   1.00
C1817  C     0.07625   0.90238   0.92990   0.00000  Uiso   1.00
C1818  C     0.09175   0.94366   0.90907   0.00000  Uiso   1.00
C1819  C     0.15305   0.84299   0.99024   0.00000  Uiso   1.00
C1820  C     0.09882   0.94089   0.51704   0.00000  Uiso   1.00
C1821  C     0.13417   0.97786   0.51447   0.00000  Uiso   1.00
C1822  C     0.13770   0.75888   0.89984   0.00000  Uiso   1.00
C1823  C     0.11170   0.72281   0.92607   0.00000  Uiso   1.00
C1824  C     0.02412   0.87629   0.70487   0.00000  Uiso   1.00
C1825  C     0.02050   0.92128   0.72479   0.00000  Uiso   1.00
C1826  C     0.05220   0.95162   0.69427   0.00000  Uiso   1.00
C1827  C     0.14936   0.82861   0.94635   0.00000  Uiso   1.00
C1828  C     0.17200   0.81934   0.51309   0.00000  Uiso   1.00
C1829  C     0.19900   0.79027   0.98748   0.00000  Uiso   1.00
C1830  C     0.19193   0.77386   0.94548   0.00000  Uiso   1.00
C1831  C     0.16166   0.78886   0.92892   0.00000  Uiso   1.00
H1832  H     0.31893   0.80217   0.78419   0.00000  Uiso   1.00
H1833  H     0.26296   0.79635   0.60432   0.00000  Uiso   1.00
H1834  H     0.25149   0.70472   0.76085   0.00000  Uiso   1.00
H1835  H     0.26573   0.98681   0.73875   0.00000  Uiso   1.00
H1836  H     0.28902   0.69724   0.70632   0.00000  Uiso   1.00
H1837  H     0.23112   0.98842   0.67581   0.00000  Uiso   1.00
H1838  H     0.21829   0.70554   0.69601   0.00000  Uiso   1.00
H1839  H     0.08624   0.71868   0.83270   0.00000  Uiso   1.00
H1840  H     0.06278   0.70258   0.78545   0.00000  Uiso   1.00
H1841  H     0.04385   0.67586   0.83587   0.00000  Uiso   1.00
H1842  H     0.09058   0.96908   0.77397   0.00000  Uiso   1.00
H1843  H     0.20547   0.74644   0.92784   0.00000  Uiso   1.00
H1844  H     0.11234   0.98202   0.82277   0.00000  Uiso   1.00
H1845  H     0.01670   0.74121   0.93507   0.00000  Uiso   1.00
H1846  H     0.31943   0.72755   0.89325   0.00000  Uiso   1.00
H1847  H     0.02396   0.77427   0.89057   0.00000  Uiso   1.00
H1848  H     0.28228   0.79100   0.92078   0.00000  Uiso   1.00
H1849  H     0.31252   0.80447   0.96252   0.00000  Uiso   1.00
H1850  H     0.28076   0.73634   0.99521   0.00000  Uiso   1.00
H1851  H     0.24905   0.72390   0.95743   0.00000  Uiso   1.00
H1852  H     0.04874   0.79646   0.65853   0.00000  Uiso   1.00
H1853  H     0.02625   0.80194   0.61236   0.00000  Uiso   1.00
H1854  H     0.14769   0.89514   0.54067   0.00000  Uiso   1.00
H1855  H     0.02894   0.75112   0.62761   0.00000  Uiso   1.00
H1856  H     0.08626   0.76934   0.55798   0.00000  Uiso   1.00
H1857  H     0.10734   0.76015   0.60321   0.00000  Uiso   1.00
H1858  H     0.11623   0.84070   0.62293   0.00000  Uiso   1.00
H1859  H     0.09892   0.84416   0.57471   0.00000  Uiso   1.00
H1860  H     0.09444   0.96922   0.93545   0.00000  Uiso   1.00
H1861  H     0.12369   0.94320   0.88430   0.00000  Uiso   1.00
H1862  H     0.06796   0.95017   0.89183   0.00000  Uiso   1.00
H1863  H     0.06483   0.87881   0.90529   0.00000  Uiso   1.00
H1864  H     0.04658   0.90517   0.95775   0.00000  Uiso   1.00
H1865  H     0.27385   0.68229   0.60819   0.00000  Uiso   1.00
H1866  H     0.15917   0.97184   0.53036   0.00000  Uiso   1.00
H1867  H     0.14970   0.98396   0.97881   0.00000  Uiso   1.00
H1868  H     0.11993   0.67259   0.53265   0.00000  Uiso   1.00
H1869  H     0.07190   0.94976   0.50636   0.00000  Uiso   1.00
H1870  H     0.08508   0.93439   0.55293   0.00000  Uiso   1.00
H1871  H     0.13356   0.70417   0.93475   0.00000  Uiso   1.00
H1872  H     0.08917   0.73455   0.95757   0.00000  Uiso   1.00
H1873  H     0.09255   0.70246   0.90520   0.00000  Uiso   1.00
H1874  H     0.11422   0.77387   0.88909   0.00000  Uiso   1.00
H1875  H     0.16107   0.74664   0.86939   0.00000  Uiso   1.00
H1876  H     0.31324   0.71880   0.57527   0.00000  Uiso   1.00
H1877  H     0.08591   0.94578   0.69024   0.00000  Uiso   1.00
H1878  H     0.04553   0.94840   0.66058   0.00000  Uiso   1.00
H1879  H     0.04875   0.98386   0.70954   0.00000  Uiso   1.00
H1880  H     0.32054   0.92855   0.72917   0.00000  Uiso   1.00
H1881  H     0.02737   0.92549   0.75845   0.00000  Uiso   1.00
H1882  H     0.05826   0.87050   0.69752   0.00000  Uiso   1.00
H1883  H     0.01579   0.87155   0.67191   0.00000  Uiso   1.00
H1884  H     0.28707   0.73358   0.63379   0.00000  Uiso   1.00
H1885  H     0.21708   0.72963   0.61649   0.00000  Uiso   1.00
H1886  H     0.23899   0.70919   0.55964   0.00000  Uiso   1.00
H1887  H     0.29267   0.77915   0.55097   0.00000  Uiso   1.00
O1888  O     0.16667   0.83333   0.75000   0.00000  Uiso   1.00
O1889  O     0.15451   0.79304   0.65458   0.00000  Uiso   1.00
O1890  O     0.12940   0.87058   0.84968   0.00000  Uiso   1.00
O1891  O     0.20824   0.84425   0.64606   0.00000  Uiso   1.00
O1892  O     0.17451   0.82546   0.84968   0.00000  Uiso   1.00
O1893  O     0.17930   0.74686   0.78213   0.00000  Uiso   1.00
O1894  O     0.14632   0.92751   0.77013   0.00000  Uiso   1.00
O1895  O     0.07412   0.79958   0.73413   0.00000  Uiso   1.00
O1896  O     0.26693   0.85939   0.71360   0.00000  Uiso   1.00
O1897  O     0.07071   0.85544   0.78213   0.00000  Uiso   1.00
O1898  O     0.25491   0.81892   0.77013   0.00000  Uiso   1.00
O1899  O     0.13760   0.73610   0.73413   0.00000  Uiso   1.00
O1900  O     0.20345   0.92286   0.71360   0.00000  Uiso   1.00
Zn1901 Zn    0.19338   0.80661   0.78734   0.00000  Uiso   1.00
Zn1902 Zn    0.13379   0.79124   0.71875   0.00000  Uiso   1.00
Zn1903 Zn    0.21056   0.86442   0.70657   0.00000  Uiso   1.00
Zn1904 Zn    0.12893   0.87106   0.78733   0.00000  Uiso   1.00
C1905  C     0.38589   0.82586   0.76057   0.00000  Uiso   1.00
C1906  C     0.49598   0.82144   0.56045   0.00000  Uiso   1.00
C1907  C     0.56052   0.78766   0.55262   0.00000  Uiso   1.00
C1908  C     0.61421   0.84110   0.74008   0.00000  Uiso   1.00
C1909  C     0.46689   0.85413   0.92215   0.00000  Uiso   1.00
C1910  C     0.66053   0.84624   0.73670   0.00000  Uiso   1.00
C1911  C     0.34097   0.82408   0.76247   0.00000  Uiso   1.00
C1912  C     0.51414   0.98963   0.73852   0.00000  Uiso   1.00
C1913  C     0.48267   0.67910   0.76376   0.00000  Uiso   1.00
C1914  C     0.48907   0.72291   0.76011   0.00000  Uiso   1.00
C1915  C     0.50977   0.94471   0.74046   0.00000  Uiso   1.00
C1916  C     0.45005   0.90262   0.98991   0.00000  Uiso   1.00
C1917  C     0.51861   0.81486   0.62903   0.00000  Uiso   1.00
C1918  C     0.47954   0.84973   0.87154   0.00000  Uiso   1.00
C1919  C     0.56236   0.77605   0.50615   0.00000  Uiso   1.00
C1920  C     0.52552   0.80810   0.57988   0.00000  Uiso   1.00
C1921  C     0.44386   0.88723   0.94681   0.00000  Uiso   1.00
C1922  C     0.59311   0.77523   0.57413   0.00000  Uiso   1.00
C1923  C     0.57996   0.73072   0.58793   0.00000  Uiso   1.00
C1924  C     0.61588   0.71554   0.60220   0.00000  Uiso   1.00
C1925  C     0.55553   0.67587   0.70722   0.00000  Uiso   1.00
C1926  C     0.59266   0.68323   0.72981   0.00000  Uiso   1.00
C1927  C     0.47400   0.88181   0.50916   0.00000  Uiso   1.00
C1928  C     0.43944   0.99443   0.79378   0.00000  Uiso   1.00
C1929  C     0.40622   0.69166   0.81305   0.00000  Uiso   1.00
C1930  C     0.59711   0.75084   0.97596   0.00000  Uiso   1.00
C1931  C     0.63101   0.77813   0.94310   0.00000  Uiso   1.00
C1932  C     0.66660   0.75364   0.91373   0.00000  Uiso   1.00
C1933  C     0.44977   0.82518   0.58885   0.00000  Uiso   1.00
C1934  C     0.42353   0.78190   0.59193   0.00000  Uiso   1.00
C1935  C     0.37904   0.78317   0.62464   0.00000  Uiso   1.00
C1936  C     0.40958   0.90238   0.92990   0.00000  Uiso   1.00
C1937  C     0.42508   0.94366   0.90907   0.00000  Uiso   1.00
C1938  C     0.48638   0.84299   0.99024   0.00000  Uiso   1.00
C1939  C     0.43215   0.94089   0.51704   0.00000  Uiso   1.00
C1940  C     0.46750   0.97786   0.51447   0.00000  Uiso   1.00
C1941  C     0.47103   0.75888   0.89984   0.00000  Uiso   1.00
C1942  C     0.44503   0.72281   0.92607   0.00000  Uiso   1.00
C1943  C     0.35745   0.87629   0.70487   0.00000  Uiso   1.00
C1944  C     0.35383   0.92128   0.72479   0.00000  Uiso   1.00
C1945  C     0.38554   0.95162   0.69427   0.00000  Uiso   1.00
C1946  C     0.48269   0.82861   0.94635   0.00000  Uiso   1.00
C1947  C     0.50533   0.81934   0.51309   0.00000  Uiso   1.00
C1948  C     0.53233   0.79027   0.98748   0.00000  Uiso   1.00
C1949  C     0.52526   0.77386   0.94548   0.00000  Uiso   1.00
C1950  C     0.49500   0.78886   0.92892   0.00000  Uiso   1.00
H1951  H     0.65227   0.80217   0.78419   0.00000  Uiso   1.00
H1952  H     0.59629   0.79635   0.60432   0.00000  Uiso   1.00
H1953  H     0.58483   0.70472   0.76085   0.00000  Uiso   1.00
H1954  H     0.59906   0.98681   0.73875   0.00000  Uiso   1.00
H1955  H     0.62236   0.69724   0.70632   0.00000  Uiso   1.00
H1956  H     0.56445   0.98842   0.67581   0.00000  Uiso   1.00
H1957  H     0.55162   0.70554   0.69601   0.00000  Uiso   1.00
H1958  H     0.41957   0.71868   0.83270   0.00000  Uiso   1.00
H1959  H     0.39612   0.70258   0.78545   0.00000  Uiso   1.00
H1960  H     0.37718   0.67586   0.83587   0.00000  Uiso   1.00
H1961  H     0.42392   0.96908   0.77397   0.00000  Uiso   1.00
H1962  H     0.53880   0.74644   0.92784   0.00000  Uiso   1.00
H1963  H     0.44568   0.98202   0.82277   0.00000  Uiso   1.00
H1964  H     0.35003   0.74121   0.93507   0.00000  Uiso   1.00
H1965  H     0.65277   0.72755   0.89325   0.00000  Uiso   1.00
H1966  H     0.35730   0.77427   0.89057   0.00000  Uiso   1.00
H1967  H     0.61561   0.79100   0.92078   0.00000  Uiso   1.00
H1968  H     0.64585   0.80447   0.96252   0.00000  Uiso   1.00
H1969  H     0.61410   0.73634   0.99521   0.00000  Uiso   1.00
H1970  H     0.58238   0.72390   0.95743   0.00000  Uiso   1.00
H1971  H     0.38207   0.79646   0.65853   0.00000  Uiso   1.00
H1972  H     0.35958   0.80194   0.61236   0.00000  Uiso   1.00
H1973  H     0.48102   0.89514   0.54067   0.00000  Uiso   1.00
H1974  H     0.36227   0.75112   0.62761   0.00000  Uiso   1.00
H1975  H     0.41959   0.76934   0.55798   0.00000  Uiso   1.00
H1976  H     0.44067   0.76015   0.60321   0.00000  Uiso   1.00
H1977  H     0.44957   0.84070   0.62293   0.00000  Uiso   1.00
H1978  H     0.43226   0.84416   0.57471   0.00000  Uiso   1.00
H1979  H     0.42778   0.96922   0.93545   0.00000  Uiso   1.00
H1980  H     0.45702   0.94320   0.88430   0.00000  Uiso   1.00
H1981  H     0.40130   0.95017   0.89183   0.00000  Uiso   1.00
H1982  H     0.39816   0.87881   0.90529   0.00000  Uiso   1.00
H1983  H     0.37992   0.90517   0.95775   0.00000  Uiso   1.00
H1984  H     0.60718   0.68229   0.60819   0.00000  Uiso   1.00
H1985  H     0.49251   0.97184   0.53036   0.00000  Uiso   1.00
H1986  H     0.48304   0.98396   0.97881   0.00000  Uiso   1.00
H1987  H     0.45327   0.67259   0.53265   0.00000  Uiso   1.00
H1988  H     0.40523   0.94976   0.50636   0.00000  Uiso   1.00
H1989  H     0.41841   0.93439   0.55293   0.00000  Uiso   1.00
H1990  H     0.46689   0.70417   0.93475   0.00000  Uiso   1.00
H1991  H     0.42251   0.73455   0.95757   0.00000  Uiso   1.00
H1992  H     0.42589   0.70246   0.90520   0.00000  Uiso   1.00
H1993  H     0.44756   0.77387   0.88909   0.00000  Uiso   1.00
H1994  H     0.49440   0.74664   0.86939   0.00000  Uiso   1.00
H1995  H     0.64657   0.71880   0.57527   0.00000  Uiso   1.00
H1996  H     0.41925   0.94578   0.69024   0.00000  Uiso   1.00
H1997  H     0.37886   0.94840   0.66058   0.00000  Uiso   1.00
H1998  H     0.38209   0.98386   0.70954   0.00000  Uiso   1.00
H1999  H     0.65388   0.92855   0.72917   0.00000  Uiso   1.00
H2000  H     0.36070   0.92549   0.75845   0.00000  Uiso   1.00
H2001  H     0.39159   0.87050   0.69752   0.00000  Uiso   1.00
H2002  H     0.34913   0.87155   0.67191   0.00000  Uiso   1.00
H2003  H     0.62040   0.73358   0.63379   0.00000  Uiso   1.00
H2004  H     0.55042   0.72963   0.61649   0.00000  Uiso   1.00
H2005  H     0.57233   0.70919   0.55964   0.00000  Uiso   1.00
H2006  H     0.62600   0.77915   0.55097   0.00000  Uiso   1.00
O2007  O     0.50000   0.83333   0.75000   0.00000  Uiso   1.00
O2008  O     0.48784   0.79304   0.65458   0.00000  Uiso   1.00
O2009  O     0.46274   0.87058   0.84968   0.00000  Uiso   1.00
O2010  O     0.54157   0.84425   0.64606   0.00000  Uiso   1.00
O2011  O     0.50785   0.82546   0.84968   0.00000  Uiso   1.00
O2012  O     0.51264   0.74686   0.78213   0.00000  Uiso   1.00
O2013  O     0.47965   0.92751   0.77013   0.00000  Uiso   1.00
O2014  O     0.40745   0.79958   0.73413   0.00000  Uiso   1.00
O2015  O     0.60026   0.85939   0.71360   0.00000  Uiso   1.00
O2016  O     0.40405   0.85544   0.78213   0.00000  Uiso   1.00
O2017  O     0.58824   0.81892   0.77013   0.00000  Uiso   1.00
O2018  O     0.47093   0.73610   0.73413   0.00000  Uiso   1.00
O2019  O     0.53678   0.92286   0.71360   0.00000  Uiso   1.00
Zn2020 Zn    0.52672   0.80661   0.78734   0.00000  Uiso   1.00
Zn2021 Zn    0.46713   0.79124   0.71875   0.00000  Uiso   1.00
Zn2022 Zn    0.54389   0.86442   0.70657   0.00000  Uiso   1.00
Zn2023 Zn    0.46226   0.87106   0.78733   0.00000  Uiso   1.00
C2024  C     0.71922   0.82586   0.76057   0.00000  Uiso   1.00
C2025  C     0.82932   0.82144   0.56045   0.00000  Uiso   1.00
C2026  C     0.89385   0.78766   0.55262   0.00000  Uiso   1.00
C2027  C     0.94755   0.84110   0.74008   0.00000  Uiso   1.00
C2028  C     0.80022   0.85413   0.92215   0.00000  Uiso   1.00
C2029  C     0.99386   0.84624   0.73670   0.00000  Uiso   1.00
C2030  C     0.67430   0.82408   0.76247   0.00000  Uiso   1.00
C2031  C     0.84748   0.98963   0.73852   0.00000  Uiso   1.00
C2032  C     0.81600   0.67910   0.76376   0.00000  Uiso   1.00
C2033  C     0.82240   0.72291   0.76011   0.00000  Uiso   1.00
C2034  C     0.84310   0.94471   0.74046   0.00000  Uiso   1.00
C2035  C     0.78339   0.90262   0.98991   0.00000  Uiso   1.00
C2036  C     0.85194   0.81486   0.62903   0.00000  Uiso   1.00
C2037  C     0.81288   0.84973   0.87154   0.00000  Uiso   1.00
C2038  C     0.89569   0.77605   0.50615   0.00000  Uiso   1.00
C2039  C     0.85885   0.80810   0.57988   0.00000  Uiso   1.00
C2040  C     0.77719   0.88723   0.94681   0.00000  Uiso   1.00
C2041  C     0.92644   0.77523   0.57413   0.00000  Uiso   1.00
C2042  C     0.91329   0.73072   0.58793   0.00000  Uiso   1.00
C2043  C     0.94921   0.71554   0.60220   0.00000  Uiso   1.00
C2044  C     0.88886   0.67587   0.70722   0.00000  Uiso   1.00
C2045  C     0.92599   0.68323   0.72981   0.00000  Uiso   1.00
C2046  C     0.80734   0.88181   0.50916   0.00000  Uiso   1.00
C2047  C     0.77277   0.99443   0.79378   0.00000  Uiso   1.00
C2048  C     0.73955   0.69166   0.81305   0.00000  Uiso   1.00
C2049  C     0.93045   0.75084   0.97596   0.00000  Uiso   1.00
C2050  C     0.96435   0.77813   0.94310   0.00000  Uiso   1.00
C2051  C     0.99993   0.75364   0.91373   0.00000  Uiso   1.00
C2052  C     0.78310   0.82518   0.58885   0.00000  Uiso   1.00
C2053  C     0.75686   0.78190   0.59193   0.00000  Uiso   1.00
C2054  C     0.71238   0.78317   0.62464   0.00000  Uiso   1.00
C2055  C     0.74291   0.90238   0.92990   0.00000  Uiso   1.00
C2056  C     0.75841   0.94366   0.90907   0.00000  Uiso   1.00
C2057  C     0.81971   0.84299   0.99024   0.00000  Uiso   1.00
C2058  C     0.76549   0.94089   0.51704   0.00000  Uiso   1.00
C2059  C     0.80083   0.97786   0.51447   0.00000  Uiso   1.00
C2060  C     0.80437   0.75888   0.89984   0.00000  Uiso   1.00
C2061  C     0.77836   0.72281   0.92607   0.00000  Uiso   1.00
C2062  C     0.69078   0.87629   0.70487   0.00000  Uiso   1.00
C2063  C     0.68717   0.92128   0.72479   0.00000  Uiso   1.00
C2064  C     0.71887   0.95162   0.69427   0.00000  Uiso   1.00
C2065  C     0.81603   0.82861   0.94635   0.00000  Uiso   1.00
C2066  C     0.83866   0.81934   0.51309   0.00000  Uiso   1.00
C2067  C     0.86566   0.79027   0.98748   0.00000  Uiso   1.00
C2068  C     0.85860   0.77386   0.94548   0.00000  Uiso   1.00
C2069  C     0.82833   0.78886   0.92892   0.00000  Uiso   1.00
H2070  H     0.98560   0.80217   0.78419   0.00000  Uiso   1.00
H2071  H     0.92962   0.79635   0.60432   0.00000  Uiso   1.00
H2072  H     0.91816   0.70472   0.76085   0.00000  Uiso   1.00
H2073  H     0.93239   0.98681   0.73875   0.00000  Uiso   1.00
H2074  H     0.95569   0.69724   0.70632   0.00000  Uiso   1.00
H2075  H     0.89778   0.98842   0.67581   0.00000  Uiso   1.00
H2076  H     0.88496   0.70554   0.69601   0.00000  Uiso   1.00
H2077  H     0.75290   0.71868   0.83270   0.00000  Uiso   1.00
H2078  H     0.72945   0.70258   0.78545   0.00000  Uiso   1.00
H2079  H     0.71052   0.67586   0.83587   0.00000  Uiso   1.00
H2080  H     0.75725   0.96908   0.77397   0.00000  Uiso   1.00
H2081  H     0.87213   0.74644   0.92784   0.00000  Uiso   1.00
H2082  H     0.77901   0.98202   0.82277   0.00000  Uiso   1.00
H2083  H     0.68336   0.74121   0.93507   0.00000  Uiso   1.00
H2084  H     0.98610   0.72755   0.89325   0.00000  Uiso   1.00
H2085  H     0.69063   0.77427   0.89057   0.00000  Uiso   1.00
H2086  H     0.94895   0.79100   0.92078   0.00000  Uiso   1.00
H2087  H     0.97918   0.80447   0.96252   0.00000  Uiso   1.00
H2088  H     0.94743   0.73634   0.99521   0.00000  Uiso   1.00
H2089  H     0.91571   0.72390   0.95743   0.00000  Uiso   1.00
H2090  H     0.71541   0.79646   0.65853   0.00000  Uiso   1.00
H2091  H     0.69291   0.80194   0.61236   0.00000  Uiso   1.00
H2092  H     0.81435   0.89514   0.54067   0.00000  Uiso   1.00
H2093  H     0.69560   0.75112   0.62761   0.00000  Uiso   1.00
H2094  H     0.75292   0.76934   0.55798   0.00000  Uiso   1.00
H2095  H     0.77400   0.76015   0.60321   0.00000  Uiso   1.00
H2096  H     0.78290   0.84070   0.62293   0.00000  Uiso   1.00
H2097  H     0.76559   0.84416   0.57471   0.00000  Uiso   1.00
H2098  H     0.76111   0.96922   0.93545   0.00000  Uiso   1.00
H2099  H     0.79035   0.94320   0.88430   0.00000  Uiso   1.00
H2100  H     0.73463   0.95017   0.89183   0.00000  Uiso   1.00
H2101  H     0.73150   0.87881   0.90529   0.00000  Uiso   1.00
H2102  H     0.71325   0.90517   0.95775   0.00000  Uiso   1.00
H2103  H     0.94051   0.68229   0.60819   0.00000  Uiso   1.00
H2104  H     0.82584   0.97184   0.53036   0.00000  Uiso   1.00
H2105  H     0.81637   0.98396   0.97881   0.00000  Uiso   1.00
H2106  H     0.78660   0.67259   0.53265   0.00000  Uiso   1.00
H2107  H     0.73856   0.94976   0.50636   0.00000  Uiso   1.00
H2108  H     0.75174   0.93439   0.55293   0.00000  Uiso   1.00
H2109  H     0.80023   0.70417   0.93475   0.00000  Uiso   1.00
H2110  H     0.75584   0.73455   0.95757   0.00000  Uiso   1.00
H2111  H     0.75922   0.70246   0.90520   0.00000  Uiso   1.00
H2112  H     0.78089   0.77387   0.88909   0.00000  Uiso   1.00
H2113  H     0.82774   0.74664   0.86939   0.00000  Uiso   1.00
H2114  H     0.97991   0.71880   0.57527   0.00000  Uiso   1.00
H2115  H     0.75258   0.94578   0.69024   0.00000  Uiso   1.00
H2116  H     0.71220   0.94840   0.66058   0.00000  Uiso   1.00
H2117  H     0.71542   0.98386   0.70954   0.00000  Uiso   1.00
H2118  H     0.98721   0.92855   0.72917   0.00000  Uiso   1.00
H2119  H     0.69403   0.92549   0.75845   0.00000  Uiso   1.00
H2120  H     0.72492   0.87050   0.69752   0.00000  Uiso   1.00
H2121  H     0.68246   0.87155   0.67191   0.00000  Uiso   1.00
H2122  H     0.95373   0.73358   0.63379   0.00000  Uiso   1.00
H2123  H     0.88375   0.72963   0.61649   0.00000  Uiso   1.00
H2124  H     0.90566   0.70919   0.55964   0.00000  Uiso   1.00
H2125  H     0.95934   0.77915   0.55097   0.00000  Uiso   1.00
O2126  O     0.83333   0.83333   0.75000   0.00000  Uiso   1.00
O2127  O     0.82118   0.79304   0.65458   0.00000  Uiso   1.00
O2128  O     0.79607   0.87058   0.84968   0.00000  Uiso   1.00
O2129  O     0.87491   0.84425   0.64606   0.00000  Uiso   1.00
O2130  O     0.84118   0.82546   0.84968   0.00000  Uiso   1.00
O2131  O     0.84597   0.74686   0.78213   0.00000  Uiso   1.00
O2132  O     0.81298   0.92751   0.77013   0.00000  Uiso   1.00
O2133  O     0.74078   0.79958   0.73413   0.00000  Uiso   1.00
O2134  O     0.93360   0.85939   0.71360   0.00000  Uiso   1.00
O2135  O     0.73738   0.85544   0.78213   0.00000  Uiso   1.00
O2136  O     0.92158   0.81892   0.77013   0.00000  Uiso   1.00
O2137  O     0.80426   0.73610   0.73413   0.00000  Uiso   1.00
O2138  O     0.87012   0.92286   0.71360   0.00000  Uiso   1.00
Zn2139 Zn    0.86005   0.80661   0.78734   0.00000  Uiso   1.00
Zn2140 Zn    0.80046   0.79124   0.71875   0.00000  Uiso   1.00
Zn2141 Zn    0.87723   0.86442   0.70657   0.00000  Uiso   1.00
Zn2142 Zn    0.79560   0.87106   0.78733   0.00000  Uiso   1.00
loop_
_geom_bond_atom_site_label_1
_geom_bond_atom_site_label_2
_geom_bond_distance
_geom_bond_site_symmetry_2
_ccdc_geom_bond_type
C1     O112    1.268   .     A
C1     O110    1.263   .     A
C1     C7      1.436   .     S
C2     C16     1.409   .     A
C2     C43     1.408   .     A
C2     C29     1.532   .     S
C3     C15     1.428   .     A
C3     C18     1.522   .     S
C3     C16     1.421   .     A
C4     O113    1.287   .     A
C4     C6      1.463   .     S
C4     O111    1.284   .     A
C5     C42     1.424   .     A
C5     C17     1.431   .     A
C5     C14     1.500   .     S
C6     C126    1.345   .     S
C6     C158    1.524   .     S
C7     C244    1.345   1_455 S
C7     H285    1.086   1_455 S
C8     C11     1.465   .     S
C8     C366    1.366   .     S
C8     C378    1.528   .     S
C9     C10     1.433   .     S
C9     C722    1.366   1_545 S
C9     C738    1.533   1_545 S
C10    O108    1.277   .     A
C10    O114    1.268   .     A
C11    O109    1.260   .     A
C11    O115    1.272   .     A
C12    C17     1.421   .     A
C12    C1094   1.395   .     S
C12    C1106   1.519   .     S
C13    O104    1.275   .     A
C13    O106    1.275   .     A
C13    C16     1.468   .     S
C14    O105    1.288   .     A
C14    O107    1.298   .     A
C15    C1097   1.531   1_554 S
C15    C1115   1.421   1_554 S
C17    C32     1.522   .     S
C18    C19     1.536   .     S
C18    H102    1.110   .     S
C18    H48     1.109   .     S
C19    C20     1.523   .     S
C19    H100    1.112   .     S
C19    H101    1.111   .     S
C20    H91     1.111   .     S
C20    H80     1.109   .     S
C20    H99     1.110   .     S
C21    C22     1.526   .     S
C21    H53     1.109   .     S
C21    C722    1.528   1_545 S
C21    H766    1.110   1_545 S
C22    H49     1.110   .     S
C22    H51     1.111   .     S
C22    H764    1.111   1_545 S
C23    H69     1.084   .     S
C23    C1083   1.395   1_554 S
C23    C1105   1.401   1_554 S
C24    H57     1.109   .     S
C24    H59     1.109   .     S
C24    C366    1.533   .     S
C24    C382    1.534   .     S
C25    H56     1.111   .     S
C25    H54     1.109   .     S
C25    H55     1.111   .     S
C25    C738    1.534   1_545 S
C26    C27     1.536   .     S
C26    H66     1.108   .     S
C26    H65     1.104   .     S
C26    C1086   1.531   .     S
C27    H63     1.111   .     S
C27    H64     1.112   .     S
C27    C28     1.527   .     S
C28    H61     1.111   .     S
C28    H179    1.111   .     S
C28    H181    1.111   .     S
C29    C30     1.537   .     S
C29    H74     1.103   .     S
C29    H73     1.110   .     S
C30    H71     1.112   .     S
C30    C31     1.523   .     S
C30    H72     1.110   .     S
C31    H67     1.108   .     S
C31    H70     1.108   .     S
C31    H68     1.111   .     S
C32    C33     1.528   .     S
C32    H79     1.110   .     S
C32    H78     1.109   .     S
C33    H75     1.104   .     S
C33    H76     1.109   .     S
C33    H77     1.110   .     S
C34    C42     1.411   .     A
C34    C1094   1.401   .     S
C34    C1114   1.416   .     S
C35    H85     1.112   .     S
C35    C36     1.528   .     S
C35    H84     1.104   .     S
C35    C1083   1.519   1_554 S
C36    H81     1.111   .     S
C36    H1153   1.110   1_554 S
C36    H440    1.111   .     S
C37    H90     1.110   .     S
C37    C38     1.526   .     S
C37    H89     1.109   .     S
C37    C46     1.517   .     S
C38    H86     1.109   .     S
C38    H88     1.109   .     S
C38    H87     1.111   .     S
C39    H97     1.110   .     S
C39    C40     1.533   .     S
C39    H98     1.112   .     S
C39    C244    1.524   1_455 S
C40    H96     1.111   .     S
C40    C41     1.527   .     S
C40    H333    1.111   1_455 S
C41    H93     1.111   .     S
C41    H94     1.111   .     S
C41    H92     1.111   .     S
C42    C46     1.419   .     A
C43    C1105   1.416   1_554 S
C43    C1115   1.411   1_554 S
C44    C45     1.407   .     A
C44    C1114   1.411   .     S
C44    C1086   1.421   .     S
C45    C46     1.400   .     A
C45    H58     1.079   .     S
H47    C126    1.086   .     S
H50    C379    1.111   .     S
H52    C378    1.110   .     S
H60    C266    1.111   1_455 S
H62    C266    1.111   1_455 S
H82    C1107   1.110   .     S
H83    C750    1.111   1_545 S
H95    C159    1.111   .     S
O103   Zn117   1.936   .     S
O103   Zn118   1.930   .     S
O103   Zn119   1.923   .     S
O103   Zn116   1.975   .     S
O104   Zn117   1.920   .     S
O105   Zn119   1.936   .     S
O106   Zn118   1.923   .     S
O107   Zn116   1.910   .     S
O108   Zn116   1.937   .     S
O109   Zn119   1.947   .     S
O110   Zn117   1.919   .     S
O111   Zn118   1.936   .     S
O112   Zn119   1.926   .     S
O113   Zn116   1.913   .     S
O114   Zn117   1.957   .     S
O115   Zn118   1.943   .     S
C120   O231    1.268   .     A
C120   O229    1.263   .     A
C120   C126    1.436   .     S
C121   C135    1.409   .     A
C121   C162    1.408   .     A
C121   C148    1.532   .     S
C122   C134    1.428   .     A
C122   C137    1.522   .     S
C122   C135    1.421   .     A
C123   O232    1.287   .     A
C123   C125    1.463   .     S
C123   O230    1.284   .     A
C124   C161    1.424   .     A
C124   C136    1.431   .     A
C124   C133    1.500   .     S
C125   C245    1.345   .     S
C125   C277    1.524   .     S
C127   C130    1.465   .     S
C127   C485    1.366   .     S
C127   C497    1.528   .     S
C128   C129    1.433   .     S
C128   C841    1.366   1_545 S
C128   C857    1.533   1_545 S
C129   O227    1.277   .     A
C129   O233    1.268   .     A
C130   O228    1.260   .     A
C130   O234    1.272   .     A
C131   C136    1.421   .     A
C131   C1213   1.395   .     S
C131   C1225   1.519   .     S
C132   O223    1.275   .     A
C132   O225    1.275   .     A
C132   C135    1.468   .     S
C133   O224    1.288   .     A
C133   O226    1.298   .     A
C134   C1216   1.531   1_554 S
C134   C1234   1.421   1_554 S
C136   C151    1.522   .     S
C137   C138    1.536   .     S
C137   H221    1.110   .     S
C137   H167    1.109   .     S
C138   C139    1.523   .     S
C138   H219    1.112   .     S
C138   H220    1.111   .     S
C139   H210    1.111   .     S
C139   H199    1.109   .     S
C139   H218    1.110   .     S
C140   C141    1.526   .     S
C140   H172    1.109   .     S
C140   C841    1.528   1_545 S
C140   H885    1.110   1_545 S
C141   H168    1.110   .     S
C141   H170    1.111   .     S
C141   H883    1.111   1_545 S
C142   H188    1.084   .     S
C142   C1202   1.395   1_554 S
C142   C1224   1.401   1_554 S
C143   H176    1.109   .     S
C143   H178    1.109   .     S
C143   C485    1.533   .     S
C143   C501    1.534   .     S
C144   H175    1.111   .     S
C144   H173    1.109   .     S
C144   H174    1.111   .     S
C144   C857    1.534   1_545 S
C145   C146    1.536   .     S
C145   H185    1.108   .     S
C145   H184    1.104   .     S
C145   C1205   1.531   .     S
C146   H182    1.111   .     S
C146   H183    1.112   .     S
C146   C147    1.527   .     S
C147   H180    1.111   .     S
C147   H298    1.111   .     S
C147   H300    1.111   .     S
C148   C149    1.537   .     S
C148   H193    1.103   .     S
C148   H192    1.110   .     S
C149   H190    1.112   .     S
C149   C150    1.523   .     S
C149   H191    1.110   .     S
C150   H186    1.108   .     S
C150   H189    1.108   .     S
C150   H187    1.111   .     S
C151   C152    1.528   .     S
C151   H198    1.110   .     S
C151   H197    1.109   .     S
C152   H194    1.104   .     S
C152   H195    1.109   .     S
C152   H196    1.110   .     S
C153   C161    1.411   .     A
C153   C1213   1.401   .     S
C153   C1233   1.416   .     S
C154   H204    1.112   .     S
C154   C155    1.528   .     S
C154   H203    1.104   .     S
C154   C1202   1.519   1_554 S
C155   H200    1.111   .     S
C155   H1272   1.110   1_554 S
C155   H559    1.111   .     S
C156   H209    1.110   .     S
C156   C157    1.526   .     S
C156   H208    1.109   .     S
C156   C165    1.517   .     S
C157   H205    1.109   .     S
C157   H207    1.109   .     S
C157   H206    1.111   .     S
C158   H216    1.110   .     S
C158   C159    1.533   .     S
C158   H217    1.112   .     S
C159   H215    1.111   .     S
C159   C160    1.527   .     S
C160   H212    1.111   .     S
C160   H213    1.111   .     S
C160   H211    1.111   .     S
C161   C165    1.419   .     A
C162   C1224   1.416   1_554 S
C162   C1234   1.411   1_554 S
C163   C164    1.407   .     A
C163   C1233   1.411   .     S
C163   C1205   1.421   .     S
C164   C165    1.400   .     A
C164   H177    1.079   .     S
H166   C245    1.086   .     S
H169   C498    1.111   .     S
H171   C497    1.110   .     S
H201   C1226   1.110   .     S
H202   C869    1.111   1_545 S
H214   C278    1.111   .     S
O222   Zn236   1.936   .     S
O222   Zn237   1.930   .     S
O222   Zn238   1.923   .     S
O222   Zn235   1.975   .     S
O223   Zn236   1.920   .     S
O224   Zn238   1.936   .     S
O225   Zn237   1.923   .     S
O226   Zn235   1.910   .     S
O227   Zn235   1.937   .     S
O228   Zn238   1.947   .     S
O229   Zn236   1.919   .     S
O230   Zn237   1.936   .     S
O231   Zn238   1.926   .     S
O232   Zn235   1.913   .     S
O233   Zn236   1.957   .     S
O234   Zn237   1.943   .     S
C239   O350    1.268   .     A
C239   O348    1.263   .     A
C239   C245    1.436   .     S
C240   C254    1.409   .     A
C240   C281    1.408   .     A
C240   C267    1.532   .     S
C241   C253    1.428   .     A
C241   C256    1.522   .     S
C241   C254    1.421   .     A
C242   O351    1.287   .     A
C242   C244    1.463   .     S
C242   O349    1.284   .     A
C243   C280    1.424   .     A
C243   C255    1.431   .     A
C243   C252    1.500   .     S
C244   C7      1.345   1_655 S
C244   C39     1.524   1_655 S
C246   C249    1.465   .     S
C246   C604    1.366   .     S
C246   C616    1.528   .     S
C247   C248    1.433   .     S
C247   C960    1.366   1_545 S
C247   C976    1.533   1_545 S
C248   O346    1.277   .     A
C248   O352    1.268   .     A
C249   O347    1.260   .     A
C249   O353    1.272   .     A
C250   C255    1.421   .     A
C250   C1332   1.395   .     S
C250   C1344   1.519   .     S
C251   O342    1.275   .     A
C251   O344    1.275   .     A
C251   C254    1.468   .     S
C252   O343    1.288   .     A
C252   O345    1.298   .     A
C253   C1335   1.531   1_554 S
C253   C1353   1.421   1_554 S
C255   C270    1.522   .     S
C256   C257    1.536   .     S
C256   H340    1.110   .     S
C256   H286    1.109   .     S
C257   C258    1.523   .     S
C257   H338    1.112   .     S
C257   H339    1.111   .     S
C258   H329    1.111   .     S
C258   H318    1.109   .     S
C258   H337    1.110   .     S
C259   C260    1.526   .     S
C259   H291    1.109   .     S
C259   C960    1.528   1_545 S
C259   H1004   1.110   1_545 S
C260   H287    1.110   .     S
C260   H289    1.111   .     S
C260   H1002   1.111   1_545 S
C261   H307    1.084   .     S
C261   C1321   1.395   1_554 S
C261   C1343   1.401   1_554 S
C262   H295    1.109   .     S
C262   H297    1.109   .     S
C262   C604    1.533   .     S
C262   C620    1.534   .     S
C263   H294    1.111   .     S
C263   H292    1.109   .     S
C263   H293    1.111   .     S
C263   C976    1.534   1_545 S
C264   C265    1.536   .     S
C264   H304    1.108   .     S
C264   H303    1.104   .     S
C264   C1324   1.531   .     S
C265   H301    1.111   .     S
C265   H302    1.112   .     S
C265   C266    1.527   .     S
C266   H299    1.111   .     S
C266   H60     1.111   1_655 S
C266   H62     1.111   1_655 S
C267   C268    1.537   .     S
C267   H312    1.103   .     S
C267   H311    1.110   .     S
C268   H309    1.112   .     S
C268   C269    1.523   .     S
C268   H310    1.110   .     S
C269   H305    1.108   .     S
C269   H308    1.108   .     S
C269   H306    1.111   .     S
C270   C271    1.528   .     S
C270   H317    1.110   .     S
C270   H316    1.109   .     S
C271   H313    1.104   .     S
C271   H314    1.109   .     S
C271   H315    1.110   .     S
C272   C280    1.411   .     A
C272   C1332   1.401   .     S
C272   C1352   1.416   .     S
C273   H323    1.112   .     S
C273   C274    1.528   .     S
C273   H322    1.104   .     S
C273   C1321   1.519   1_554 S
C274   H319    1.111   .     S
C274   H1391   1.110   1_554 S
C274   H678    1.111   .     S
C275   H328    1.110   .     S
C275   C276    1.526   .     S
C275   H327    1.109   .     S
C275   C284    1.517   .     S
C276   H324    1.109   .     S
C276   H326    1.109   .     S
C276   H325    1.111   .     S
C277   H335    1.110   .     S
C277   C278    1.533   .     S
C277   H336    1.112   .     S
C278   H334    1.111   .     S
C278   C279    1.527   .     S
C279   H331    1.111   .     S
C279   H332    1.111   .     S
C279   H330    1.111   .     S
C280   C284    1.419   .     A
C281   C1343   1.416   1_554 S
C281   C1353   1.411   1_554 S
C282   C283    1.407   .     A
C282   C1352   1.411   .     S
C282   C1324   1.421   .     S
C283   C284    1.400   .     A
C283   H296    1.079   .     S
H285   C7      1.086   1_655 S
H288   C617    1.111   .     S
H290   C616    1.110   .     S
H320   C1345   1.110   .     S
H321   C988    1.111   1_545 S
H333   C40     1.111   1_655 S
O341   Zn355   1.936   .     S
O341   Zn356   1.930   .     S
O341   Zn357   1.923   .     S
O341   Zn354   1.975   .     S
O342   Zn355   1.920   .     S
O343   Zn357   1.936   .     S
O344   Zn356   1.923   .     S
O345   Zn354   1.910   .     S
O346   Zn354   1.937   .     S
O347   Zn357   1.947   .     S
O348   Zn355   1.919   .     S
O349   Zn356   1.936   .     S
O350   Zn357   1.926   .     S
O351   Zn354   1.913   .     S
O352   Zn355   1.957   .     S
O353   Zn356   1.943   .     S
C358   O469    1.268   .     A
C358   O467    1.263   .     A
C358   C364    1.436   .     S
C359   C373    1.409   .     A
C359   C400    1.408   .     A
C359   C386    1.532   .     S
C360   C372    1.428   .     A
C360   C375    1.522   .     S
C360   C373    1.421   .     A
C361   O470    1.287   .     A
C361   C363    1.463   .     S
C361   O468    1.284   .     A
C362   C399    1.424   .     A
C362   C374    1.431   .     A
C362   C371    1.500   .     S
C363   C483    1.345   .     S
C363   C515    1.524   .     S
C364   C601    1.345   1_455 S
C364   H642    1.086   1_455 S
C365   C368    1.465   .     S
C365   C723    1.366   .     S
C365   C735    1.528   .     S
C366   C367    1.433   .     S
C367   O465    1.277   .     A
C367   O471    1.268   .     A
C368   O466    1.260   .     A
C368   O472    1.272   .     A
C369   C374    1.421   .     A
C369   C1451   1.395   .     S
C369   C1463   1.519   .     S
C370   O461    1.275   .     A
C370   O463    1.275   .     A
C370   C373    1.468   .     S
C371   O462    1.288   .     A
C371   O464    1.298   .     A
C372   C1454   1.531   1_554 S
C372   C1472   1.421   1_554 S
C374   C389    1.522   .     S
C375   C376    1.536   .     S
C375   H459    1.110   .     S
C375   H405    1.109   .     S
C376   C377    1.523   .     S
C376   H457    1.112   .     S
C376   H458    1.111   .     S
C377   H448    1.111   .     S
C377   H437    1.109   .     S
C377   H456    1.110   .     S
C378   C379    1.526   .     S
C378   H410    1.109   .     S
C379   H406    1.110   .     S
C379   H408    1.111   .     S
C380   H426    1.084   .     S
C380   C1440   1.395   1_554 S
C380   C1462   1.401   1_554 S
C381   H414    1.109   .     S
C381   H416    1.109   .     S
C381   C723    1.533   .     S
C381   C739    1.534   .     S
C382   H413    1.111   .     S
C382   H411    1.109   .     S
C382   H412    1.111   .     S
C383   C384    1.536   .     S
C383   H423    1.108   .     S
C383   H422    1.104   .     S
C383   C1443   1.531   .     S
C384   H420    1.111   .     S
C384   H421    1.112   .     S
C384   C385    1.527   .     S
C385   H418    1.111   .     S
C385   H536    1.111   .     S
C385   H538    1.111   .     S
C386   C387    1.537   .     S
C386   H431    1.103   .     S
C386   H430    1.110   .     S
C387   H428    1.112   .     S
C387   C388    1.523   .     S
C387   H429    1.110   .     S
C388   H424    1.108   .     S
C388   H427    1.108   .     S
C388   H425    1.111   .     S
C389   C390    1.528   .     S
C389   H436    1.110   .     S
C389   H435    1.109   .     S
C390   H432    1.104   .     S
C390   H433    1.109   .     S
C390   H434    1.110   .     S
C391   C399    1.411   .     A
C391   C1451   1.401   .     S
C391   C1471   1.416   .     S
C392   H442    1.112   .     S
C392   C393    1.528   .     S
C392   H441    1.104   .     S
C392   C1440   1.519   1_554 S
C393   H438    1.111   .     S
C393   H1510   1.110   1_554 S
C393   H797    1.111   .     S
C394   H447    1.110   .     S
C394   C395    1.526   .     S
C394   H446    1.109   .     S
C394   C403    1.517   .     S
C395   H443    1.109   .     S
C395   H445    1.109   .     S
C395   H444    1.111   .     S
C396   H454    1.110   .     S
C396   C397    1.533   .     S
C396   H455    1.112   .     S
C396   C601    1.524   1_455 S
C397   H453    1.111   .     S
C397   C398    1.527   .     S
C397   H690    1.111   1_455 S
C398   H450    1.111   .     S
C398   H451    1.111   .     S
C398   H449    1.111   .     S
C399   C403    1.419   .     A
C400   C1462   1.416   1_554 S
C400   C1472   1.411   1_554 S
C401   C402    1.407   .     A
C401   C1471   1.411   .     S
C401   C1443   1.421   .     S
C402   C403    1.400   .     A
C402   H415    1.079   .     S
H404   C483    1.086   .     S
H407   C736    1.111   .     S
H409   C735    1.110   .     S
H417   C623    1.111   1_455 S
H419   C623    1.111   1_455 S
H439   C1464   1.110   .     S
H452   C516    1.111   .     S
O460   Zn474   1.936   .     S
O460   Zn475   1.930   .     S
O460   Zn476   1.923   .     S
O460   Zn473   1.975   .     S
O461   Zn474   1.920   .     S
O462   Zn476   1.936   .     S
O463   Zn475   1.923   .     S
O464   Zn473   1.910   .     S
O465   Zn473   1.937   .     S
O466   Zn476   1.947   .     S
O467   Zn474   1.919   .     S
O468   Zn475   1.936   .     S
O469   Zn476   1.926   .     S
O470   Zn473   1.913   .     S
O471   Zn474   1.957   .     S
O472   Zn475   1.943   .     S
C477   O588    1.268   .     A
C477   O586    1.263   .     A
C477   C483    1.436   .     S
C478   C492    1.409   .     A
C478   C519    1.408   .     A
C478   C505    1.532   .     S
C479   C491    1.428   .     A
C479   C494    1.522   .     S
C479   C492    1.421   .     A
C480   O589    1.287   .     A
C480   C482    1.463   .     S
C480   O587    1.284   .     A
C481   C518    1.424   .     A
C481   C493    1.431   .     A
C481   C490    1.500   .     S
C482   C602    1.345   .     S
C482   C634    1.524   .     S
C484   C487    1.465   .     S
C484   C842    1.366   .     S
C484   C854    1.528   .     S
C485   C486    1.433   .     S
C486   O584    1.277   .     A
C486   O590    1.268   .     A
C487   O585    1.260   .     A
C487   O591    1.272   .     A
C488   C493    1.421   .     A
C488   C1570   1.395   .     S
C488   C1582   1.519   .     S
C489   O580    1.275   .     A
C489   O582    1.275   .     A
C489   C492    1.468   .     S
C490   O581    1.288   .     A
C490   O583    1.298   .     A
C491   C1573   1.531   1_554 S
C491   C1591   1.421   1_554 S
C493   C508    1.522   .     S
C494   C495    1.536   .     S
C494   H578    1.110   .     S
C494   H524    1.109   .     S
C495   C496    1.523   .     S
C495   H576    1.112   .     S
C495   H577    1.111   .     S
C496   H567    1.111   .     S
C496   H556    1.109   .     S
C496   H575    1.110   .     S
C497   C498    1.526   .     S
C497   H529    1.109   .     S
C498   H525    1.110   .     S
C498   H527    1.111   .     S
C499   H545    1.084   .     S
C499   C1559   1.395   1_554 S
C499   C1581   1.401   1_554 S
C500   H533    1.109   .     S
C500   H535    1.109   .     S
C500   C842    1.533   .     S
C500   C858    1.534   .     S
C501   H532    1.111   .     S
C501   H530    1.109   .     S
C501   H531    1.111   .     S
C502   C503    1.536   .     S
C502   H542    1.108   .     S
C502   H541    1.104   .     S
C502   C1562   1.531   .     S
C503   H539    1.111   .     S
C503   H540    1.112   .     S
C503   C504    1.527   .     S
C504   H537    1.111   .     S
C504   H655    1.111   .     S
C504   H657    1.111   .     S
C505   C506    1.537   .     S
C505   H550    1.103   .     S
C505   H549    1.110   .     S
C506   H547    1.112   .     S
C506   C507    1.523   .     S
C506   H548    1.110   .     S
C507   H543    1.108   .     S
C507   H546    1.108   .     S
C507   H544    1.111   .     S
C508   C509    1.528   .     S
C508   H555    1.110   .     S
C508   H554    1.109   .     S
C509   H551    1.104   .     S
C509   H552    1.109   .     S
C509   H553    1.110   .     S
C510   C518    1.411   .     A
C510   C1570   1.401   .     S
C510   C1590   1.416   .     S
C511   H561    1.112   .     S
C511   C512    1.528   .     S
C511   H560    1.104   .     S
C511   C1559   1.519   1_554 S
C512   H557    1.111   .     S
C512   H1629   1.110   1_554 S
C512   H916    1.111   .     S
C513   H566    1.110   .     S
C513   C514    1.526   .     S
C513   H565    1.109   .     S
C513   C522    1.517   .     S
C514   H562    1.109   .     S
C514   H564    1.109   .     S
C514   H563    1.111   .     S
C515   H573    1.110   .     S
C515   C516    1.533   .     S
C515   H574    1.112   .     S
C516   H572    1.111   .     S
C516   C517    1.527   .     S
C517   H569    1.111   .     S
C517   H570    1.111   .     S
C517   H568    1.111   .     S
C518   C522    1.419   .     A
C519   C1581   1.416   1_554 S
C519   C1591   1.411   1_554 S
C520   C521    1.407   .     A
C520   C1590   1.411   .     S
C520   C1562   1.421   .     S
C521   C522    1.400   .     A
C521   H534    1.079   .     S
H523   C602    1.086   .     S
H526   C855    1.111   .     S
H528   C854    1.110   .     S
H558   C1583   1.110   .     S
H571   C635    1.111   .     S
O579   Zn593   1.936   .     S
O579   Zn594   1.930   .     S
O579   Zn595   1.923   .     S
O579   Zn592   1.975   .     S
O580   Zn593   1.920   .     S
O581   Zn595   1.936   .     S
O582   Zn594   1.923   .     S
O583   Zn592   1.910   .     S
O584   Zn592   1.937   .     S
O585   Zn595   1.947   .     S
O586   Zn593   1.919   .     S
O587   Zn594   1.936   .     S
O588   Zn595   1.926   .     S
O589   Zn592   1.913   .     S
O590   Zn593   1.957   .     S
O591   Zn594   1.943   .     S
C596   O707    1.268   .     A
C596   O705    1.263   .     A
C596   C602    1.436   .     S
C597   C611    1.409   .     A
C597   C638    1.408   .     A
C597   C624    1.532   .     S
C598   C610    1.428   .     A
C598   C613    1.522   .     S
C598   C611    1.421   .     A
C599   O708    1.287   .     A
C599   C601    1.463   .     S
C599   O706    1.284   .     A
C600   C637    1.424   .     A
C600   C612    1.431   .     A
C600   C609    1.500   .     S
C601   C364    1.345   1_655 S
C601   C396    1.524   1_655 S
C603   C606    1.465   .     S
C603   C961    1.366   .     S
C603   C973    1.528   .     S
C604   C605    1.433   .     S
C605   O703    1.277   .     A
C605   O709    1.268   .     A
C606   O704    1.260   .     A
C606   O710    1.272   .     A
C607   C612    1.421   .     A
C607   C1689   1.395   .     S
C607   C1701   1.519   .     S
C608   O699    1.275   .     A
C608   O701    1.275   .     A
C608   C611    1.468   .     S
C609   O700    1.288   .     A
C609   O702    1.298   .     A
C610   C1692   1.531   1_554 S
C610   C1710   1.421   1_554 S
C612   C627    1.522   .     S
C613   C614    1.536   .     S
C613   H697    1.110   .     S
C613   H643    1.109   .     S
C614   C615    1.523   .     S
C614   H695    1.112   .     S
C614   H696    1.111   .     S
C615   H686    1.111   .     S
C615   H675    1.109   .     S
C615   H694    1.110   .     S
C616   C617    1.526   .     S
C616   H648    1.109   .     S
C617   H644    1.110   .     S
C617   H646    1.111   .     S
C618   H664    1.084   .     S
C618   C1678   1.395   1_554 S
C618   C1700   1.401   1_554 S
C619   H652    1.109   .     S
C619   H654    1.109   .     S
C619   C961    1.533   .     S
C619   C977    1.534   .     S
C620   H651    1.111   .     S
C620   H649    1.109   .     S
C620   H650    1.111   .     S
C621   C622    1.536   .     S
C621   H661    1.108   .     S
C621   H660    1.104   .     S
C621   C1681   1.531   .     S
C622   H658    1.111   .     S
C622   H659    1.112   .     S
C622   C623    1.527   .     S
C623   H656    1.111   .     S
C623   H417    1.111   1_655 S
C623   H419    1.111   1_655 S
C624   C625    1.537   .     S
C624   H669    1.103   .     S
C624   H668    1.110   .     S
C625   H666    1.112   .     S
C625   C626    1.523   .     S
C625   H667    1.110   .     S
C626   H662    1.108   .     S
C626   H665    1.108   .     S
C626   H663    1.111   .     S
C627   C628    1.528   .     S
C627   H674    1.110   .     S
C627   H673    1.109   .     S
C628   H670    1.104   .     S
C628   H671    1.109   .     S
C628   H672    1.110   .     S
C629   C637    1.411   .     A
C629   C1689   1.401   .     S
C629   C1709   1.416   .     S
C630   H680    1.112   .     S
C630   C631    1.528   .     S
C630   H679    1.104   .     S
C630   C1678   1.519   1_554 S
C631   H676    1.111   .     S
C631   H1748   1.110   1_554 S
C631   H1035   1.111   .     S
C632   H685    1.110   .     S
C632   C633    1.526   .     S
C632   H684    1.109   .     S
C632   C641    1.517   .     S
C633   H681    1.109   .     S
C633   H683    1.109   .     S
C633   H682    1.111   .     S
C634   H692    1.110   .     S
C634   C635    1.533   .     S
C634   H693    1.112   .     S
C635   H691    1.111   .     S
C635   C636    1.527   .     S
C636   H688    1.111   .     S
C636   H689    1.111   .     S
C636   H687    1.111   .     S
C637   C641    1.419   .     A
C638   C1700   1.416   1_554 S
C638   C1710   1.411   1_554 S
C639   C640    1.407   .     A
C639   C1709   1.411   .     S
C639   C1681   1.421   .     S
C640   C641    1.400   .     A
C640   H653    1.079   .     S
H642   C364    1.086   1_655 S
H645   C974    1.111   .     S
H647   C973    1.110   .     S
H677   C1702   1.110   .     S
H690   C397    1.111   1_655 S
O698   Zn712   1.936   .     S
O698   Zn713   1.930   .     S
O698   Zn714   1.923   .     S
O698   Zn711   1.975   .     S
O699   Zn712   1.920   .     S
O700   Zn714   1.936   .     S
O701   Zn713   1.923   .     S
O702   Zn711   1.910   .     S
O703   Zn711   1.937   .     S
O704   Zn714   1.947   .     S
O705   Zn712   1.919   .     S
O706   Zn713   1.936   .     S
O707   Zn714   1.926   .     S
O708   Zn711   1.913   .     S
O709   Zn712   1.957   .     S
O710   Zn713   1.943   .     S
C715   O826    1.268   .     A
C715   O824    1.263   .     A
C715   C721    1.436   .     S
C716   C730    1.409   .     A
C716   C757    1.408   .     A
C716   C743    1.532   .     S
C717   C729    1.428   .     A
C717   C732    1.522   .     S
C717   C730    1.421   .     A
C718   O827    1.287   .     A
C718   C720    1.463   .     S
C718   O825    1.284   .     A
C719   C756    1.424   .     A
C719   C731    1.431   .     A
C719   C728    1.500   .     S
C720   C840    1.345   .     S
C720   C872    1.524   .     S
C721   C958    1.345   1_455 S
C721   H999    1.086   1_455 S
C722   C725    1.465   .     S
C722   C9      1.366   1_565 S
C722   C21     1.528   1_565 S
C723   C724    1.433   .     S
C724   O822    1.277   .     A
C724   O828    1.268   .     A
C725   O823    1.260   .     A
C725   O829    1.272   .     A
C726   C731    1.421   .     A
C726   C1808   1.395   .     S
C726   C1820   1.519   .     S
C727   O818    1.275   .     A
C727   O820    1.275   .     A
C727   C730    1.468   .     S
C728   O819    1.288   .     A
C728   O821    1.298   .     A
C729   C1811   1.531   1_554 S
C729   C1829   1.421   1_554 S
C731   C746    1.522   .     S
C732   C733    1.536   .     S
C732   H816    1.110   .     S
C732   H762    1.109   .     S
C733   C734    1.523   .     S
C733   H814    1.112   .     S
C733   H815    1.111   .     S
C734   H805    1.111   .     S
C734   H794    1.109   .     S
C734   H813    1.110   .     S
C735   C736    1.526   .     S
C735   H767    1.109   .     S
C736   H763    1.110   .     S
C736   H765    1.111   .     S
C737   H783    1.084   .     S
C737   C1797   1.395   1_554 S
C737   C1819   1.401   1_554 S
C738   H771    1.109   .     S
C738   H773    1.109   .     S
C738   C9      1.533   1_565 S
C738   C25     1.534   1_565 S
C739   H770    1.111   .     S
C739   H768    1.109   .     S
C739   H769    1.111   .     S
C740   C741    1.536   .     S
C740   H780    1.108   .     S
C740   H779    1.104   .     S
C740   C1800   1.531   .     S
C741   H777    1.111   .     S
C741   H778    1.112   .     S
C741   C742    1.527   .     S
C742   H775    1.111   .     S
C742   H893    1.111   .     S
C742   H895    1.111   .     S
C743   C744    1.537   .     S
C743   H788    1.103   .     S
C743   H787    1.110   .     S
C744   H785    1.112   .     S
C744   C745    1.523   .     S
C744   H786    1.110   .     S
C745   H781    1.108   .     S
C745   H784    1.108   .     S
C745   H782    1.111   .     S
C746   C747    1.528   .     S
C746   H793    1.110   .     S
C746   H792    1.109   .     S
C747   H789    1.104   .     S
C747   H790    1.109   .     S
C747   H791    1.110   .     S
C748   C756    1.411   .     A
C748   C1808   1.401   .     S
C748   C1828   1.416   .     S
C749   H799    1.112   .     S
C749   C750    1.528   .     S
C749   H798    1.104   .     S
C749   C1797   1.519   1_554 S
C750   H795    1.111   .     S
C750   H1867   1.110   1_554 S
C750   H83     1.111   1_565 S
C751   H804    1.110   .     S
C751   C752    1.526   .     S
C751   H803    1.109   .     S
C751   C760    1.517   .     S
C752   H800    1.109   .     S
C752   H802    1.109   .     S
C752   H801    1.111   .     S
C753   H811    1.110   .     S
C753   C754    1.533   .     S
C753   H812    1.112   .     S
C753   C958    1.524   1_455 S
C754   H810    1.111   .     S
C754   C755    1.527   .     S
C754   H1047   1.111   1_455 S
C755   H807    1.111   .     S
C755   H808    1.111   .     S
C755   H806    1.111   .     S
C756   C760    1.419   .     A
C757   C1819   1.416   1_554 S
C757   C1829   1.411   1_554 S
C758   C759    1.407   .     A
C758   C1828   1.411   .     S
C758   C1800   1.421   .     S
C759   C760    1.400   .     A
C759   H772    1.079   .     S
H761   C840    1.086   .     S
H764   C22     1.111   1_565 S
H766   C21     1.110   1_565 S
H774   C980    1.111   1_455 S
H776   C980    1.111   1_455 S
H796   C1821   1.110   .     S
H809   C873    1.111   .     S
O817   Zn831   1.936   .     S
O817   Zn832   1.930   .     S
O817   Zn833   1.923   .     S
O817   Zn830   1.975   .     S
O818   Zn831   1.920   .     S
O819   Zn833   1.936   .     S
O820   Zn832   1.923   .     S
O821   Zn830   1.910   .     S
O822   Zn830   1.937   .     S
O823   Zn833   1.947   .     S
O824   Zn831   1.919   .     S
O825   Zn832   1.936   .     S
O826   Zn833   1.926   .     S
O827   Zn830   1.913   .     S
O828   Zn831   1.957   .     S
O829   Zn832   1.943   .     S
C834   O945    1.268   .     A
C834   O943    1.263   .     A
C834   C840    1.436   .     S
C835   C849    1.409   .     A
C835   C876    1.408   .     A
C835   C862    1.532   .     S
C836   C848    1.428   .     A
C836   C851    1.522   .     S
C836   C849    1.421   .     A
C837   O946    1.287   .     A
C837   C839    1.463   .     S
C837   O944    1.284   .     A
C838   C875    1.424   .     A
C838   C850    1.431   .     A
C838   C847    1.500   .     S
C839   C959    1.345   .     S
C839   C991    1.524   .     S
C841   C844    1.465   .     S
C841   C128    1.366   1_565 S
C841   C140    1.528   1_565 S
C842   C843    1.433   .     S
C843   O941    1.277   .     A
C843   O947    1.268   .     A
C844   O942    1.260   .     A
C844   O948    1.272   .     A
C845   C850    1.421   .     A
C845   C1927   1.395   .     S
C845   C1939   1.519   .     S
C846   O937    1.275   .     A
C846   O939    1.275   .     A
C846   C849    1.468   .     S
C847   O938    1.288   .     A
C847   O940    1.298   .     A
C848   C1930   1.531   1_554 S
C848   C1948   1.421   1_554 S
C850   C865    1.522   .     S
C851   C852    1.536   .     S
C851   H935    1.110   .     S
C851   H881    1.109   .     S
C852   C853    1.523   .     S
C852   H933    1.112   .     S
C852   H934    1.111   .     S
C853   H924    1.111   .     S
C853   H913    1.109   .     S
C853   H932    1.110   .     S
C854   C855    1.526   .     S
C854   H886    1.109   .     S
C855   H882    1.110   .     S
C855   H884    1.111   .     S
C856   H902    1.084   .     S
C856   C1916   1.395   1_554 S
C856   C1938   1.401   1_554 S
C857   H890    1.109   .     S
C857   H892    1.109   .     S
C857   C128    1.533   1_565 S
C857   C144    1.534   1_565 S
C858   H889    1.111   .     S
C858   H887    1.109   .     S
C858   H888    1.111   .     S
C859   C860    1.536   .     S
C859   H899    1.108   .     S
C859   H898    1.104   .     S
C859   C1919   1.531   .     S
C860   H896    1.111   .     S
C860   H897    1.112   .     S
C860   C861    1.527   .     S
C861   H894    1.111   .     S
C861   H1012   1.111   .     S
C861   H1014   1.111   .     S
C862   C863    1.537   .     S
C862   H907    1.103   .     S
C862   H906    1.110   .     S
C863   H904    1.112   .     S
C863   C864    1.523   .     S
C863   H905    1.110   .     S
C864   H900    1.108   .     S
C864   H903    1.108   .     S
C864   H901    1.111   .     S
C865   C866    1.528   .     S
C865   H912    1.110   .     S
C865   H911    1.109   .     S
C866   H908    1.104   .     S
C866   H909    1.109   .     S
C866   H910    1.110   .     S
C867   C875    1.411   .     A
C867   C1927   1.401   .     S
C867   C1947   1.416   .     S
C868   H918    1.112   .     S
C868   C869    1.528   .     S
C868   H917    1.104   .     S
C868   C1916   1.519   1_554 S
C869   H914    1.111   .     S
C869   H1986   1.110   1_554 S
C869   H202    1.111   1_565 S
C870   H923    1.110   .     S
C870   C871    1.526   .     S
C870   H922    1.109   .     S
C870   C879    1.517   .     S
C871   H919    1.109   .     S
C871   H921    1.109   .     S
C871   H920    1.111   .     S
C872   H930    1.110   .     S
C872   C873    1.533   .     S
C872   H931    1.112   .     S
C873   H929    1.111   .     S
C873   C874    1.527   .     S
C874   H926    1.111   .     S
C874   H927    1.111   .     S
C874   H925    1.111   .     S
C875   C879    1.419   .     A
C876   C1938   1.416   1_554 S
C876   C1948   1.411   1_554 S
C877   C878    1.407   .     A
C877   C1947   1.411   .     S
C877   C1919   1.421   .     S
C878   C879    1.400   .     A
C878   H891    1.079   .     S
H880   C959    1.086   .     S
H883   C141    1.111   1_565 S
H885   C140    1.110   1_565 S
H915   C1940   1.110   .     S
H928   C992    1.111   .     S
O936   Zn950   1.936   .     S
O936   Zn951   1.930   .     S
O936   Zn952   1.923   .     S
O936   Zn949   1.975   .     S
O937   Zn950   1.920   .     S
O938   Zn952   1.936   .     S
O939   Zn951   1.923   .     S
O940   Zn949   1.910   .     S
O941   Zn949   1.937   .     S
O942   Zn952   1.947   .     S
O943   Zn950   1.919   .     S
O944   Zn951   1.936   .     S
O945   Zn952   1.926   .     S
O946   Zn949   1.913   .     S
O947   Zn950   1.957   .     S
O948   Zn951   1.943   .     S
C953   O1064   1.268   .     A
C953   O1062   1.263   .     A
C953   C959    1.436   .     S
C954   C968    1.409   .     A
C954   C995    1.408   .     A
C954   C981    1.532   .     S
C955   C967    1.428   .     A
C955   C970    1.522   .     S
C955   C968    1.421   .     A
C956   O1065   1.287   .     A
C956   C958    1.463   .     S
C956   O1063   1.284   .     A
C957   C994    1.424   .     A
C957   C969    1.431   .     A
C957   C966    1.500   .     S
C958   C721    1.345   1_655 S
C958   C753    1.524   1_655 S
C960   C963    1.465   .     S
C960   C247    1.366   1_565 S
C960   C259    1.528   1_565 S
C961   C962    1.433   .     S
C962   O1060   1.277   .     A
C962   O1066   1.268   .     A
C963   O1061   1.260   .     A
C963   O1067   1.272   .     A
C964   C969    1.421   .     A
C964   C2046   1.395   .     S
C964   C2058   1.519   .     S
C965   O1056   1.275   .     A
C965   O1058   1.275   .     A
C965   C968    1.468   .     S
C966   O1057   1.288   .     A
C966   O1059   1.298   .     A
C967   C2049   1.531   1_554 S
C967   C2067   1.421   1_554 S
C969   C984    1.522   .     S
C970   C971    1.536   .     S
C970   H1054   1.110   .     S
C970   H1000   1.109   .     S
C971   C972    1.523   .     S
C971   H1052   1.112   .     S
C971   H1053   1.111   .     S
C972   H1043   1.111   .     S
C972   H1032   1.109   .     S
C972   H1051   1.110   .     S
C973   C974    1.526   .     S
C973   H1005   1.109   .     S
C974   H1001   1.110   .     S
C974   H1003   1.111   .     S
C975   H1021   1.084   .     S
C975   C2035   1.395   1_554 S
C975   C2057   1.401   1_554 S
C976   H1009   1.109   .     S
C976   H1011   1.109   .     S
C976   C247    1.533   1_565 S
C976   C263    1.534   1_565 S
C977   H1008   1.111   .     S
C977   H1006   1.109   .     S
C977   H1007   1.111   .     S
C978   C979    1.536   .     S
C978   H1018   1.108   .     S
C978   H1017   1.104   .     S
C978   C2038   1.531   .     S
C979   H1015   1.111   .     S
C979   H1016   1.112   .     S
C979   C980    1.527   .     S
C980   H1013   1.111   .     S
C980   H774    1.111   1_655 S
C980   H776    1.111   1_655 S
C981   C982    1.537   .     S
C981   H1026   1.103   .     S
C981   H1025   1.110   .     S
C982   H1023   1.112   .     S
C982   C983    1.523   .     S
C982   H1024   1.110   .     S
C983   H1019   1.108   .     S
C983   H1022   1.108   .     S
C983   H1020   1.111   .     S
C984   C985    1.528   .     S
C984   H1031   1.110   .     S
C984   H1030   1.109   .     S
C985   H1027   1.104   .     S
C985   H1028   1.109   .     S
C985   H1029   1.110   .     S
C986   C994    1.411   .     A
C986   C2046   1.401   .     S
C986   C2066   1.416   .     S
C987   H1037   1.112   .     S
C987   C988    1.528   .     S
C987   H1036   1.104   .     S
C987   C2035   1.519   1_554 S
C988   H1033   1.111   .     S
C988   H2105   1.110   1_554 S
C988   H321    1.111   1_565 S
C989   H1042   1.110   .     S
C989   C990    1.526   .     S
C989   H1041   1.109   .     S
C989   C998    1.517   .     S
C990   H1038   1.109   .     S
C990   H1040   1.109   .     S
C990   H1039   1.111   .     S
C991   H1049   1.110   .     S
C991   C992    1.533   .     S
C991   H1050   1.112   .     S
C992   H1048   1.111   .     S
C992   C993    1.527   .     S
C993   H1045   1.111   .     S
C993   H1046   1.111   .     S
C993   H1044   1.111   .     S
C994   C998    1.419   .     A
C995   C2057   1.416   1_554 S
C995   C2067   1.411   1_554 S
C996   C997    1.407   .     A
C996   C2066   1.411   .     S
C996   C2038   1.421   .     S
C997   C998    1.400   .     A
C997   H1010   1.079   .     S
H999   C721    1.086   1_655 S
H1002  C260    1.111   1_565 S
H1004  C259    1.110   1_565 S
H1034  C2059   1.110   .     S
H1047  C754    1.111   1_655 S
O1055  Zn1069  1.936   .     S
O1055  Zn1070  1.930   .     S
O1055  Zn1071  1.923   .     S
O1055  Zn1068  1.975   .     S
O1056  Zn1069  1.920   .     S
O1057  Zn1071  1.936   .     S
O1058  Zn1070  1.923   .     S
O1059  Zn1068  1.910   .     S
O1060  Zn1068  1.937   .     S
O1061  Zn1071  1.947   .     S
O1062  Zn1069  1.919   .     S
O1063  Zn1070  1.936   .     S
O1064  Zn1071  1.926   .     S
O1065  Zn1068  1.913   .     S
O1066  Zn1069  1.957   .     S
O1067  Zn1070  1.943   .     S
C1072  O1183   1.268   .     A
C1072  O1181   1.263   .     A
C1072  C1078   1.436   .     S
C1073  C1087   1.409   .     A
C1073  C1114   1.408   .     A
C1073  C1100   1.532   .     S
C1074  C1086   1.428   .     A
C1074  C1089   1.522   .     S
C1074  C1087   1.421   .     A
C1075  O1184   1.287   .     A
C1075  C1077   1.463   .     S
C1075  O1182   1.284   .     A
C1076  C1113   1.424   .     A
C1076  C1088   1.431   .     A
C1076  C1085   1.500   .     S
C1077  C1197   1.345   .     S
C1077  C1229   1.524   .     S
C1078  C1315   1.345   1_455 S
C1078  H1356   1.086   1_455 S
C1079  C1082   1.465   .     S
C1079  C1437   1.366   .     S
C1079  C1449   1.528   .     S
C1080  C1081   1.433   .     S
C1080  C1793   1.366   1_545 S
C1080  C1809   1.533   1_545 S
C1081  O1179   1.277   .     A
C1081  O1185   1.268   .     A
C1082  O1180   1.260   .     A
C1082  O1186   1.272   .     A
C1083  C1088   1.421   .     A
C1083  C23     1.395   1_556 S
C1083  C35     1.519   1_556 S
C1084  O1175   1.275   .     A
C1084  O1177   1.275   .     A
C1084  C1087   1.468   .     S
C1085  O1176   1.288   .     A
C1085  O1178   1.298   .     A
C1088  C1103   1.522   .     S
C1089  C1090   1.536   .     S
C1089  H1173   1.110   .     S
C1089  H1119   1.109   .     S
C1090  C1091   1.523   .     S
C1090  H1171   1.112   .     S
C1090  H1172   1.111   .     S
C1091  H1162   1.111   .     S
C1091  H1151   1.109   .     S
C1091  H1170   1.110   .     S
C1092  C1093   1.526   .     S
C1092  H1124   1.109   .     S
C1092  C1793   1.528   1_545 S
C1092  H1837   1.110   1_545 S
C1093  H1120   1.110   .     S
C1093  H1122   1.111   .     S
C1093  H1835   1.111   1_545 S
C1094  H1140   1.084   .     S
C1095  H1128   1.109   .     S
C1095  H1130   1.109   .     S
C1095  C1437   1.533   .     S
C1095  C1453   1.534   .     S
C1096  H1127   1.111   .     S
C1096  H1125   1.109   .     S
C1096  H1126   1.111   .     S
C1096  C1809   1.534   1_545 S
C1097  C1098   1.536   .     S
C1097  H1137   1.108   .     S
C1097  H1136   1.104   .     S
C1097  C15     1.531   1_556 S
C1098  H1134   1.111   .     S
C1098  H1135   1.112   .     S
C1098  C1099   1.527   .     S
C1099  H1132   1.111   .     S
C1099  H1250   1.111   .     S
C1099  H1252   1.111   .     S
C1100  C1101   1.537   .     S
C1100  H1145   1.103   .     S
C1100  H1144   1.110   .     S
C1101  H1142   1.112   .     S
C1101  C1102   1.523   .     S
C1101  H1143   1.110   .     S
C1102  H1138   1.108   .     S
C1102  H1141   1.108   .     S
C1102  H1139   1.111   .     S
C1103  C1104   1.528   .     S
C1103  H1150   1.110   .     S
C1103  H1149   1.109   .     S
C1104  H1146   1.104   .     S
C1104  H1147   1.109   .     S
C1104  H1148   1.110   .     S
C1105  C1113   1.411   .     A
C1105  C23     1.401   1_556 S
C1105  C43     1.416   1_556 S
C1106  H1156   1.112   .     S
C1106  C1107   1.528   .     S
C1106  H1155   1.104   .     S
C1107  H1152   1.111   .     S
C1107  H1511   1.111   .     S
C1108  H1161   1.110   .     S
C1108  C1109   1.526   .     S
C1108  H1160   1.109   .     S
C1108  C1117   1.517   .     S
C1109  H1157   1.109   .     S
C1109  H1159   1.109   .     S
C1109  H1158   1.111   .     S
C1110  H1168   1.110   .     S
C1110  C1111   1.533   .     S
C1110  H1169   1.112   .     S
C1110  C1315   1.524   1_455 S
C1111  H1167   1.111   .     S
C1111  C1112   1.527   .     S
C1111  H1404   1.111   1_455 S
C1112  H1164   1.111   .     S
C1112  H1165   1.111   .     S
C1112  H1163   1.111   .     S
C1113  C1117   1.419   .     A
C1115  C1116   1.407   .     A
C1115  C43     1.411   1_556 S
C1115  C15     1.421   1_556 S
C1116  C1117   1.400   .     A
C1116  H1129   1.079   .     S
H1118  C1197   1.086   .     S
H1121  C1450   1.111   .     S
H1123  C1449   1.110   .     S
H1131  C1337   1.111   1_455 S
H1133  C1337   1.111   1_455 S
H1153  C36     1.110   1_556 S
H1154  C1821   1.111   1_545 S
H1166  C1230   1.111   .     S
O1174  Zn1188  1.936   .     S
O1174  Zn1189  1.930   .     S
O1174  Zn1190  1.923   .     S
O1174  Zn1187  1.975   .     S
O1175  Zn1188  1.920   .     S
O1176  Zn1190  1.936   .     S
O1177  Zn1189  1.923   .     S
O1178  Zn1187  1.910   .     S
O1179  Zn1187  1.937   .     S
O1180  Zn1190  1.947   .     S
O1181  Zn1188  1.919   .     S
O1182  Zn1189  1.936   .     S
O1183  Zn1190  1.926   .     S
O1184  Zn1187  1.913   .     S
O1185  Zn1188  1.957   .     S
O1186  Zn1189  1.943   .     S
C1191  O1302   1.268   .     A
C1191  O1300   1.263   .     A
C1191  C1197   1.436   .     S
C1192  C1206   1.409   .     A
C1192  C1233   1.408   .     A
C1192  C1219   1.532   .     S
C1193  C1205   1.428   .     A
C1193  C1208   1.522   .     S
C1193  C1206   1.421   .     A
C1194  O1303   1.287   .     A
C1194  C1196   1.463   .     S
C1194  O1301   1.284   .     A
C1195  C1232   1.424   .     A
C1195  C1207   1.431   .     A
C1195  C1204   1.500   .     S
C1196  C1316   1.345   .     S
C1196  C1348   1.524   .     S
C1198  C1201   1.465   .     S
C1198  C1556   1.366   .     S
C1198  C1568   1.528   .     S
C1199  C1200   1.433   .     S
C1199  C1912   1.366   1_545 S
C1199  C1928   1.533   1_545 S
C1200  O1298   1.277   .     A
C1200  O1304   1.268   .     A
C1201  O1299   1.260   .     A
C1201  O1305   1.272   .     A
C1202  C1207   1.421   .     A
C1202  C142    1.395   1_556 S
C1202  C154    1.519   1_556 S
C1203  O1294   1.275   .     A
C1203  O1296   1.275   .     A
C1203  C1206   1.468   .     S
C1204  O1295   1.288   .     A
C1204  O1297   1.298   .     A
C1207  C1222   1.522   .     S
C1208  C1209   1.536   .     S
C1208  H1292   1.110   .     S
C1208  H1238   1.109   .     S
C1209  C1210   1.523   .     S
C1209  H1290   1.112   .     S
C1209  H1291   1.111   .     S
C1210  H1281   1.111   .     S
C1210  H1270   1.109   .     S
C1210  H1289   1.110   .     S
C1211  C1212   1.526   .     S
C1211  H1243   1.109   .     S
C1211  C1912   1.528   1_545 S
C1211  H1956   1.110   1_545 S
C1212  H1239   1.110   .     S
C1212  H1241   1.111   .     S
C1212  H1954   1.111   1_545 S
C1213  H1259   1.084   .     S
C1214  H1247   1.109   .     S
C1214  H1249   1.109   .     S
C1214  C1556   1.533   .     S
C1214  C1572   1.534   .     S
C1215  H1246   1.111   .     S
C1215  H1244   1.109   .     S
C1215  H1245   1.111   .     S
C1215  C1928   1.534   1_545 S
C1216  C1217   1.536   .     S
C1216  H1256   1.108   .     S
C1216  H1255   1.104   .     S
C1216  C134    1.531   1_556 S
C1217  H1253   1.111   .     S
C1217  H1254   1.112   .     S
C1217  C1218   1.527   .     S
C1218  H1251   1.111   .     S
C1218  H1369   1.111   .     S
C1218  H1371   1.111   .     S
C1219  C1220   1.537   .     S
C1219  H1264   1.103   .     S
C1219  H1263   1.110   .     S
C1220  H1261   1.112   .     S
C1220  C1221   1.523   .     S
C1220  H1262   1.110   .     S
C1221  H1257   1.108   .     S
C1221  H1260   1.108   .     S
C1221  H1258   1.111   .     S
C1222  C1223   1.528   .     S
C1222  H1269   1.110   .     S
C1222  H1268   1.109   .     S
C1223  H1265   1.104   .     S
C1223  H1266   1.109   .     S
C1223  H1267   1.110   .     S
C1224  C1232   1.411   .     A
C1224  C142    1.401   1_556 S
C1224  C162    1.416   1_556 S
C1225  H1275   1.112   .     S
C1225  C1226   1.528   .     S
C1225  H1274   1.104   .     S
C1226  H1271   1.111   .     S
C1226  H1630   1.111   .     S
C1227  H1280   1.110   .     S
C1227  C1228   1.526   .     S
C1227  H1279   1.109   .     S
C1227  C1236   1.517   .     S
C1228  H1276   1.109   .     S
C1228  H1278   1.109   .     S
C1228  H1277   1.111   .     S
C1229  H1287   1.110   .     S
C1229  C1230   1.533   .     S
C1229  H1288   1.112   .     S
C1230  H1286   1.111   .     S
C1230  C1231   1.527   .     S
C1231  H1283   1.111   .     S
C1231  H1284   1.111   .     S
C1231  H1282   1.111   .     S
C1232  C1236   1.419   .     A
C1234  C1235   1.407   .     A
C1234  C162    1.411   1_556 S
C1234  C134    1.421   1_556 S
C1235  C1236   1.400   .     A
C1235  H1248   1.079   .     S
H1237  C1316   1.086   .     S
H1240  C1569   1.111   .     S
H1242  C1568   1.110   .     S
H1272  C155    1.110   1_556 S
H1273  C1940   1.111   1_545 S
H1285  C1349   1.111   .     S
O1293  Zn1307  1.936   .     S
O1293  Zn1308  1.930   .     S
O1293  Zn1309  1.923   .     S
O1293  Zn1306  1.975   .     S
O1294  Zn1307  1.920   .     S
O1295  Zn1309  1.936   .     S
O1296  Zn1308  1.923   .     S
O1297  Zn1306  1.910   .     S
O1298  Zn1306  1.937   .     S
O1299  Zn1309  1.947   .     S
O1300  Zn1307  1.919   .     S
O1301  Zn1308  1.936   .     S
O1302  Zn1309  1.926   .     S
O1303  Zn1306  1.913   .     S
O1304  Zn1307  1.957   .     S
O1305  Zn1308  1.943   .     S
C1310  O1421   1.268   .     A
C1310  O1419   1.263   .     A
C1310  C1316   1.436   .     S
C1311  C1325   1.409   .     A
C1311  C1352   1.408   .     A
C1311  C1338   1.532   .     S
C1312  C1324   1.428   .     A
C1312  C1327   1.522   .     S
C1312  C1325   1.421   .     A
C1313  O1422   1.287   .     A
C1313  C1315   1.463   .     S
C1313  O1420   1.284   .     A
C1314  C1351   1.424   .     A
C1314  C1326   1.431   .     A
C1314  C1323   1.500   .     S
C1315  C1078   1.345   1_655 S
C1315  C1110   1.524   1_655 S
C1317  C1320   1.465   .     S
C1317  C1675   1.366   .     S
C1317  C1687   1.528   .     S
C1318  C1319   1.433   .     S
C1318  C2031   1.366   1_545 S
C1318  C2047   1.533   1_545 S
C1319  O1417   1.277   .     A
C1319  O1423   1.268   .     A
C1320  O1418   1.260   .     A
C1320  O1424   1.272   .     A
C1321  C1326   1.421   .     A
C1321  C261    1.395   1_556 S
C1321  C273    1.519   1_556 S
C1322  O1413   1.275   .     A
C1322  O1415   1.275   .     A
C1322  C1325   1.468   .     S
C1323  O1414   1.288   .     A
C1323  O1416   1.298   .     A
C1326  C1341   1.522   .     S
C1327  C1328   1.536   .     S
C1327  H1411   1.110   .     S
C1327  H1357   1.109   .     S
C1328  C1329   1.523   .     S
C1328  H1409   1.112   .     S
C1328  H1410   1.111   .     S
C1329  H1400   1.111   .     S
C1329  H1389   1.109   .     S
C1329  H1408   1.110   .     S
C1330  C1331   1.526   .     S
C1330  H1362   1.109   .     S
C1330  C2031   1.528   1_545 S
C1330  H2075   1.110   1_545 S
C1331  H1358   1.110   .     S
C1331  H1360   1.111   .     S
C1331  H2073   1.111   1_545 S
C1332  H1378   1.084   .     S
C1333  H1366   1.109   .     S
C1333  H1368   1.109   .     S
C1333  C1675   1.533   .     S
C1333  C1691   1.534   .     S
C1334  H1365   1.111   .     S
C1334  H1363   1.109   .     S
C1334  H1364   1.111   .     S
C1334  C2047   1.534   1_545 S
C1335  C1336   1.536   .     S
C1335  H1375   1.108   .     S
C1335  H1374   1.104   .     S
C1335  C253    1.531   1_556 S
C1336  H1372   1.111   .     S
C1336  H1373   1.112   .     S
C1336  C1337   1.527   .     S
C1337  H1370   1.111   .     S
C1337  H1131   1.111   1_655 S
C1337  H1133   1.111   1_655 S
C1338  C1339   1.537   .     S
C1338  H1383   1.103   .     S
C1338  H1382   1.110   .     S
C1339  H1380   1.112   .     S
C1339  C1340   1.523   .     S
C1339  H1381   1.110   .     S
C1340  H1376   1.108   .     S
C1340  H1379   1.108   .     S
C1340  H1377   1.111   .     S
C1341  C1342   1.528   .     S
C1341  H1388   1.110   .     S
C1341  H1387   1.109   .     S
C1342  H1384   1.104   .     S
C1342  H1385   1.109   .     S
C1342  H1386   1.110   .     S
C1343  C1351   1.411   .     A
C1343  C261    1.401   1_556 S
C1343  C281    1.416   1_556 S
C1344  H1394   1.112   .     S
C1344  C1345   1.528   .     S
C1344  H1393   1.104   .     S
C1345  H1390   1.111   .     S
C1345  H1749   1.111   .     S
C1346  H1399   1.110   .     S
C1346  C1347   1.526   .     S
C1346  H1398   1.109   .     S
C1346  C1355   1.517   .     S
C1347  H1395   1.109   .     S
C1347  H1397   1.109   .     S
C1347  H1396   1.111   .     S
C1348  H1406   1.110   .     S
C1348  C1349   1.533   .     S
C1348  H1407   1.112   .     S
C1349  H1405   1.111   .     S
C1349  C1350   1.527   .     S
C1350  H1402   1.111   .     S
C1350  H1403   1.111   .     S
C1350  H1401   1.111   .     S
C1351  C1355   1.419   .     A
C1353  C1354   1.407   .     A
C1353  C281    1.411   1_556 S
C1353  C253    1.421   1_556 S
C1354  C1355   1.400   .     A
C1354  H1367   1.079   .     S
H1356  C1078   1.086   1_655 S
H1359  C1688   1.111   .     S
H1361  C1687   1.110   .     S
H1391  C274    1.110   1_556 S
H1392  C2059   1.111   1_545 S
H1404  C1111   1.111   1_655 S
O1412  Zn1426  1.936   .     S
O1412  Zn1427  1.930   .     S
O1412  Zn1428  1.923   .     S
O1412  Zn1425  1.975   .     S
O1413  Zn1426  1.920   .     S
O1414  Zn1428  1.936   .     S
O1415  Zn1427  1.923   .     S
O1416  Zn1425  1.910   .     S
O1417  Zn1425  1.937   .     S
O1418  Zn1428  1.947   .     S
O1419  Zn1426  1.919   .     S
O1420  Zn1427  1.936   .     S
O1421  Zn1428  1.926   .     S
O1422  Zn1425  1.913   .     S
O1423  Zn1426  1.957   .     S
O1424  Zn1427  1.943   .     S
C1429  O1540   1.268   .     A
C1429  O1538   1.263   .     A
C1429  C1435   1.436   .     S
C1430  C1444   1.409   .     A
C1430  C1471   1.408   .     A
C1430  C1457   1.532   .     S
C1431  C1443   1.428   .     A
C1431  C1446   1.522   .     S
C1431  C1444   1.421   .     A
C1432  O1541   1.287   .     A
C1432  C1434   1.463   .     S
C1432  O1539   1.284   .     A
C1433  C1470   1.424   .     A
C1433  C1445   1.431   .     A
C1433  C1442   1.500   .     S
C1434  C1554   1.345   .     S
C1434  C1586   1.524   .     S
C1435  C1672   1.345   1_455 S
C1435  H1713   1.086   1_455 S
C1436  C1439   1.465   .     S
C1436  C1794   1.366   .     S
C1436  C1806   1.528   .     S
C1437  C1438   1.433   .     S
C1438  O1536   1.277   .     A
C1438  O1542   1.268   .     A
C1439  O1537   1.260   .     A
C1439  O1543   1.272   .     A
C1440  C1445   1.421   .     A
C1440  C380    1.395   1_556 S
C1440  C392    1.519   1_556 S
C1441  O1532   1.275   .     A
C1441  O1534   1.275   .     A
C1441  C1444   1.468   .     S
C1442  O1533   1.288   .     A
C1442  O1535   1.298   .     A
C1445  C1460   1.522   .     S
C1446  C1447   1.536   .     S
C1446  H1530   1.110   .     S
C1446  H1476   1.109   .     S
C1447  C1448   1.523   .     S
C1447  H1528   1.112   .     S
C1447  H1529   1.111   .     S
C1448  H1519   1.111   .     S
C1448  H1508   1.109   .     S
C1448  H1527   1.110   .     S
C1449  C1450   1.526   .     S
C1449  H1481   1.109   .     S
C1450  H1477   1.110   .     S
C1450  H1479   1.111   .     S
C1451  H1497   1.084   .     S
C1452  H1485   1.109   .     S
C1452  H1487   1.109   .     S
C1452  C1794   1.533   .     S
C1452  C1810   1.534   .     S
C1453  H1484   1.111   .     S
C1453  H1482   1.109   .     S
C1453  H1483   1.111   .     S
C1454  C1455   1.536   .     S
C1454  H1494   1.108   .     S
C1454  H1493   1.104   .     S
C1454  C372    1.531   1_556 S
C1455  H1491   1.111   .     S
C1455  H1492   1.112   .     S
C1455  C1456   1.527   .     S
C1456  H1489   1.111   .     S
C1456  H1607   1.111   .     S
C1456  H1609   1.111   .     S
C1457  C1458   1.537   .     S
C1457  H1502   1.103   .     S
C1457  H1501   1.110   .     S
C1458  H1499   1.112   .     S
C1458  C1459   1.523   .     S
C1458  H1500   1.110   .     S
C1459  H1495   1.108   .     S
C1459  H1498   1.108   .     S
C1459  H1496   1.111   .     S
C1460  C1461   1.528   .     S
C1460  H1507   1.110   .     S
C1460  H1506   1.109   .     S
C1461  H1503   1.104   .     S
C1461  H1504   1.109   .     S
C1461  H1505   1.110   .     S
C1462  C1470   1.411   .     A
C1462  C380    1.401   1_556 S
C1462  C400    1.416   1_556 S
C1463  H1513   1.112   .     S
C1463  C1464   1.528   .     S
C1463  H1512   1.104   .     S
C1464  H1509   1.111   .     S
C1464  H1868   1.111   .     S
C1465  H1518   1.110   .     S
C1465  C1466   1.526   .     S
C1465  H1517   1.109   .     S
C1465  C1474   1.517   .     S
C1466  H1514   1.109   .     S
C1466  H1516   1.109   .     S
C1466  H1515   1.111   .     S
C1467  H1525   1.110   .     S
C1467  C1468   1.533   .     S
C1467  H1526   1.112   .     S
C1467  C1672   1.524   1_455 S
C1468  H1524   1.111   .     S
C1468  C1469   1.527   .     S
C1468  H1761   1.111   1_455 S
C1469  H1521   1.111   .     S
C1469  H1522   1.111   .     S
C1469  H1520   1.111   .     S
C1470  C1474   1.419   .     A
C1472  C1473   1.407   .     A
C1472  C400    1.411   1_556 S
C1472  C372    1.421   1_556 S
C1473  C1474   1.400   .     A
C1473  H1486   1.079   .     S
H1475  C1554   1.086   .     S
H1478  C1807   1.111   .     S
H1480  C1806   1.110   .     S
H1488  C1694   1.111   1_455 S
H1490  C1694   1.111   1_455 S
H1510  C393    1.110   1_556 S
H1523  C1587   1.111   .     S
O1531  Zn1545  1.936   .     S
O1531  Zn1546  1.930   .     S
O1531  Zn1547  1.923   .     S
O1531  Zn1544  1.975   .     S
O1532  Zn1545  1.920   .     S
O1533  Zn1547  1.936   .     S
O1534  Zn1546  1.923   .     S
O1535  Zn1544  1.910   .     S
O1536  Zn1544  1.937   .     S
O1537  Zn1547  1.947   .     S
O1538  Zn1545  1.919   .     S
O1539  Zn1546  1.936   .     S
O1540  Zn1547  1.926   .     S
O1541  Zn1544  1.913   .     S
O1542  Zn1545  1.957   .     S
O1543  Zn1546  1.943   .     S
C1548  O1659   1.268   .     A
C1548  O1657   1.263   .     A
C1548  C1554   1.436   .     S
C1549  C1563   1.409   .     A
C1549  C1590   1.408   .     A
C1549  C1576   1.532   .     S
C1550  C1562   1.428   .     A
C1550  C1565   1.522   .     S
C1550  C1563   1.421   .     A
C1551  O1660   1.287   .     A
C1551  C1553   1.463   .     S
C1551  O1658   1.284   .     A
C1552  C1589   1.424   .     A
C1552  C1564   1.431   .     A
C1552  C1561   1.500   .     S
C1553  C1673   1.345   .     S
C1553  C1705   1.524   .     S
C1555  C1558   1.465   .     S
C1555  C1913   1.366   .     S
C1555  C1925   1.528   .     S
C1556  C1557   1.433   .     S
C1557  O1655   1.277   .     A
C1557  O1661   1.268   .     A
C1558  O1656   1.260   .     A
C1558  O1662   1.272   .     A
C1559  C1564   1.421   .     A
C1559  C499    1.395   1_556 S
C1559  C511    1.519   1_556 S
C1560  O1651   1.275   .     A
C1560  O1653   1.275   .     A
C1560  C1563   1.468   .     S
C1561  O1652   1.288   .     A
C1561  O1654   1.298   .     A
C1564  C1579   1.522   .     S
C1565  C1566   1.536   .     S
C1565  H1649   1.110   .     S
C1565  H1595   1.109   .     S
C1566  C1567   1.523   .     S
C1566  H1647   1.112   .     S
C1566  H1648   1.111   .     S
C1567  H1638   1.111   .     S
C1567  H1627   1.109   .     S
C1567  H1646   1.110   .     S
C1568  C1569   1.526   .     S
C1568  H1600   1.109   .     S
C1569  H1596   1.110   .     S
C1569  H1598   1.111   .     S
C1570  H1616   1.084   .     S
C1571  H1604   1.109   .     S
C1571  H1606   1.109   .     S
C1571  C1913   1.533   .     S
C1571  C1929   1.534   .     S
C1572  H1603   1.111   .     S
C1572  H1601   1.109   .     S
C1572  H1602   1.111   .     S
C1573  C1574   1.536   .     S
C1573  H1613   1.108   .     S
C1573  H1612   1.104   .     S
C1573  C491    1.531   1_556 S
C1574  H1610   1.111   .     S
C1574  H1611   1.112   .     S
C1574  C1575   1.527   .     S
C1575  H1608   1.111   .     S
C1575  H1726   1.111   .     S
C1575  H1728   1.111   .     S
C1576  C1577   1.537   .     S
C1576  H1621   1.103   .     S
C1576  H1620   1.110   .     S
C1577  H1618   1.112   .     S
C1577  C1578   1.523   .     S
C1577  H1619   1.110   .     S
C1578  H1614   1.108   .     S
C1578  H1617   1.108   .     S
C1578  H1615   1.111   .     S
C1579  C1580   1.528   .     S
C1579  H1626   1.110   .     S
C1579  H1625   1.109   .     S
C1580  H1622   1.104   .     S
C1580  H1623   1.109   .     S
C1580  H1624   1.110   .     S
C1581  C1589   1.411   .     A
C1581  C499    1.401   1_556 S
C1581  C519    1.416   1_556 S
C1582  H1632   1.112   .     S
C1582  C1583   1.528   .     S
C1582  H1631   1.104   .     S
C1583  H1628   1.111   .     S
C1583  H1987   1.111   .     S
C1584  H1637   1.110   .     S
C1584  C1585   1.526   .     S
C1584  H1636   1.109   .     S
C1584  C1593   1.517   .     S
C1585  H1633   1.109   .     S
C1585  H1635   1.109   .     S
C1585  H1634   1.111   .     S
C1586  H1644   1.110   .     S
C1586  C1587   1.533   .     S
C1586  H1645   1.112   .     S
C1587  H1643   1.111   .     S
C1587  C1588   1.527   .     S
C1588  H1640   1.111   .     S
C1588  H1641   1.111   .     S
C1588  H1639   1.111   .     S
C1589  C1593   1.419   .     A
C1591  C1592   1.407   .     A
C1591  C519    1.411   1_556 S
C1591  C491    1.421   1_556 S
C1592  C1593   1.400   .     A
C1592  H1605   1.079   .     S
H1594  C1673   1.086   .     S
H1597  C1926   1.111   .     S
H1599  C1925   1.110   .     S
H1629  C512    1.110   1_556 S
H1642  C1706   1.111   .     S
O1650  Zn1664  1.936   .     S
O1650  Zn1665  1.930   .     S
O1650  Zn1666  1.923   .     S
O1650  Zn1663  1.975   .     S
O1651  Zn1664  1.920   .     S
O1652  Zn1666  1.936   .     S
O1653  Zn1665  1.923   .     S
O1654  Zn1663  1.910   .     S
O1655  Zn1663  1.937   .     S
O1656  Zn1666  1.947   .     S
O1657  Zn1664  1.919   .     S
O1658  Zn1665  1.936   .     S
O1659  Zn1666  1.926   .     S
O1660  Zn1663  1.913   .     S
O1661  Zn1664  1.957   .     S
O1662  Zn1665  1.943   .     S
C1667  O1778   1.268   .     A
C1667  O1776   1.263   .     A
C1667  C1673   1.436   .     S
C1668  C1682   1.409   .     A
C1668  C1709   1.408   .     A
C1668  C1695   1.532   .     S
C1669  C1681   1.428   .     A
C1669  C1684   1.522   .     S
C1669  C1682   1.421   .     A
C1670  O1779   1.287   .     A
C1670  C1672   1.463   .     S
C1670  O1777   1.284   .     A
C1671  C1708   1.424   .     A
C1671  C1683   1.431   .     A
C1671  C1680   1.500   .     S
C1672  C1435   1.345   1_655 S
C1672  C1467   1.524   1_655 S
C1674  C1677   1.465   .     S
C1674  C2032   1.366   .     S
C1674  C2044   1.528   .     S
C1675  C1676   1.433   .     S
C1676  O1774   1.277   .     A
C1676  O1780   1.268   .     A
C1677  O1775   1.260   .     A
C1677  O1781   1.272   .     A
C1678  C1683   1.421   .     A
C1678  C618    1.395   1_556 S
C1678  C630    1.519   1_556 S
C1679  O1770   1.275   .     A
C1679  O1772   1.275   .     A
C1679  C1682   1.468   .     S
C1680  O1771   1.288   .     A
C1680  O1773   1.298   .     A
C1683  C1698   1.522   .     S
C1684  C1685   1.536   .     S
C1684  H1768   1.110   .     S
C1684  H1714   1.109   .     S
C1685  C1686   1.523   .     S
C1685  H1766   1.112   .     S
C1685  H1767   1.111   .     S
C1686  H1757   1.111   .     S
C1686  H1746   1.109   .     S
C1686  H1765   1.110   .     S
C1687  C1688   1.526   .     S
C1687  H1719   1.109   .     S
C1688  H1715   1.110   .     S
C1688  H1717   1.111   .     S
C1689  H1735   1.084   .     S
C1690  H1723   1.109   .     S
C1690  H1725   1.109   .     S
C1690  C2032   1.533   .     S
C1690  C2048   1.534   .     S
C1691  H1722   1.111   .     S
C1691  H1720   1.109   .     S
C1691  H1721   1.111   .     S
C1692  C1693   1.536   .     S
C1692  H1732   1.108   .     S
C1692  H1731   1.104   .     S
C1692  C610    1.531   1_556 S
C1693  H1729   1.111   .     S
C1693  H1730   1.112   .     S
C1693  C1694   1.527   .     S
C1694  H1727   1.111   .     S
C1694  H1488   1.111   1_655 S
C1694  H1490   1.111   1_655 S
C1695  C1696   1.537   .     S
C1695  H1740   1.103   .     S
C1695  H1739   1.110   .     S
C1696  H1737   1.112   .     S
C1696  C1697   1.523   .     S
C1696  H1738   1.110   .     S
C1697  H1733   1.108   .     S
C1697  H1736   1.108   .     S
C1697  H1734   1.111   .     S
C1698  C1699   1.528   .     S
C1698  H1745   1.110   .     S
C1698  H1744   1.109   .     S
C1699  H1741   1.104   .     S
C1699  H1742   1.109   .     S
C1699  H1743   1.110   .     S
C1700  C1708   1.411   .     A
C1700  C618    1.401   1_556 S
C1700  C638    1.416   1_556 S
C1701  H1751   1.112   .     S
C1701  C1702   1.528   .     S
C1701  H1750   1.104   .     S
C1702  H1747   1.111   .     S
C1702  H2106   1.111   .     S
C1703  H1756   1.110   .     S
C1703  C1704   1.526   .     S
C1703  H1755   1.109   .     S
C1703  C1712   1.517   .     S
C1704  H1752   1.109   .     S
C1704  H1754   1.109   .     S
C1704  H1753   1.111   .     S
C1705  H1763   1.110   .     S
C1705  C1706   1.533   .     S
C1705  H1764   1.112   .     S
C1706  H1762   1.111   .     S
C1706  C1707   1.527   .     S
C1707  H1759   1.111   .     S
C1707  H1760   1.111   .     S
C1707  H1758   1.111   .     S
C1708  C1712   1.419   .     A
C1710  C1711   1.407   .     A
C1710  C638    1.411   1_556 S
C1710  C610    1.421   1_556 S
C1711  C1712   1.400   .     A
C1711  H1724   1.079   .     S
H1713  C1435   1.086   1_655 S
H1716  C2045   1.111   .     S
H1718  C2044   1.110   .     S
H1748  C631    1.110   1_556 S
H1761  C1468   1.111   1_655 S
O1769  Zn1783  1.936   .     S
O1769  Zn1784  1.930   .     S
O1769  Zn1785  1.923   .     S
O1769  Zn1782  1.975   .     S
O1770  Zn1783  1.920   .     S
O1771  Zn1785  1.936   .     S
O1772  Zn1784  1.923   .     S
O1773  Zn1782  1.910   .     S
O1774  Zn1782  1.937   .     S
O1775  Zn1785  1.947   .     S
O1776  Zn1783  1.919   .     S
O1777  Zn1784  1.936   .     S
O1778  Zn1785  1.926   .     S
O1779  Zn1782  1.913   .     S
O1780  Zn1783  1.957   .     S
O1781  Zn1784  1.943   .     S
C1786  O1897   1.268   .     A
C1786  O1895   1.263   .     A
C1786  C1792   1.436   .     S
C1787  C1801   1.409   .     A
C1787  C1828   1.408   .     A
C1787  C1814   1.532   .     S
C1788  C1800   1.428   .     A
C1788  C1803   1.522   .     S
C1788  C1801   1.421   .     A
C1789  O1898   1.287   .     A
C1789  C1791   1.463   .     S
C1789  O1896   1.284   .     A
C1790  C1827   1.424   .     A
C1790  C1802   1.431   .     A
C1790  C1799   1.500   .     S
C1791  C1911   1.345   .     S
C1791  C1943   1.524   .     S
C1792  C2029   1.345   1_455 S
C1792  H2070   1.086   1_455 S
C1793  C1796   1.465   .     S
C1793  C1080   1.366   1_565 S
C1793  C1092   1.528   1_565 S
C1794  C1795   1.433   .     S
C1795  O1893   1.277   .     A
C1795  O1899   1.268   .     A
C1796  O1894   1.260   .     A
C1796  O1900   1.272   .     A
C1797  C1802   1.421   .     A
C1797  C737    1.395   1_556 S
C1797  C749    1.519   1_556 S
C1798  O1889   1.275   .     A
C1798  O1891   1.275   .     A
C1798  C1801   1.468   .     S
C1799  O1890   1.288   .     A
C1799  O1892   1.298   .     A
C1802  C1817   1.522   .     S
C1803  C1804   1.536   .     S
C1803  H1887   1.110   .     S
C1803  H1833   1.109   .     S
C1804  C1805   1.523   .     S
C1804  H1885   1.112   .     S
C1804  H1886   1.111   .     S
C1805  H1876   1.111   .     S
C1805  H1865   1.109   .     S
C1805  H1884   1.110   .     S
C1806  C1807   1.526   .     S
C1806  H1838   1.109   .     S
C1807  H1834   1.110   .     S
C1807  H1836   1.111   .     S
C1808  H1854   1.084   .     S
C1809  H1842   1.109   .     S
C1809  H1844   1.109   .     S
C1809  C1080   1.533   1_565 S
C1809  C1096   1.534   1_565 S
C1810  H1841   1.111   .     S
C1810  H1839   1.109   .     S
C1810  H1840   1.111   .     S
C1811  C1812   1.536   .     S
C1811  H1851   1.108   .     S
C1811  H1850   1.104   .     S
C1811  C729    1.531   1_556 S
C1812  H1848   1.111   .     S
C1812  H1849   1.112   .     S
C1812  C1813   1.527   .     S
C1813  H1846   1.111   .     S
C1813  H1964   1.111   .     S
C1813  H1966   1.111   .     S
C1814  C1815   1.537   .     S
C1814  H1859   1.103   .     S
C1814  H1858   1.110   .     S
C1815  H1856   1.112   .     S
C1815  C1816   1.523   .     S
C1815  H1857   1.110   .     S
C1816  H1852   1.108   .     S
C1816  H1855   1.108   .     S
C1816  H1853   1.111   .     S
C1817  C1818   1.528   .     S
C1817  H1864   1.110   .     S
C1817  H1863   1.109   .     S
C1818  H1860   1.104   .     S
C1818  H1861   1.109   .     S
C1818  H1862   1.110   .     S
C1819  C1827   1.411   .     A
C1819  C737    1.401   1_556 S
C1819  C757    1.416   1_556 S
C1820  H1870   1.112   .     S
C1820  C1821   1.528   .     S
C1820  H1869   1.104   .     S
C1821  H1866   1.111   .     S
C1821  H1154   1.111   1_565 S
C1822  H1875   1.110   .     S
C1822  C1823   1.526   .     S
C1822  H1874   1.109   .     S
C1822  C1831   1.517   .     S
C1823  H1871   1.109   .     S
C1823  H1873   1.109   .     S
C1823  H1872   1.111   .     S
C1824  H1882   1.110   .     S
C1824  C1825   1.533   .     S
C1824  H1883   1.112   .     S
C1824  C2029   1.524   1_455 S
C1825  H1881   1.111   .     S
C1825  C1826   1.527   .     S
C1825  H2118   1.111   1_455 S
C1826  H1878   1.111   .     S
C1826  H1879   1.111   .     S
C1826  H1877   1.111   .     S
C1827  C1831   1.419   .     A
C1829  C1830   1.407   .     A
C1829  C757    1.411   1_556 S
C1829  C729    1.421   1_556 S
C1830  C1831   1.400   .     A
C1830  H1843   1.079   .     S
H1832  C1911   1.086   .     S
H1835  C1093   1.111   1_565 S
H1837  C1092   1.110   1_565 S
H1845  C2051   1.111   1_455 S
H1847  C2051   1.111   1_455 S
H1867  C750    1.110   1_556 S
H1880  C1944   1.111   .     S
O1888  Zn1902  1.936   .     S
O1888  Zn1903  1.930   .     S
O1888  Zn1904  1.923   .     S
O1888  Zn1901  1.975   .     S
O1889  Zn1902  1.920   .     S
O1890  Zn1904  1.936   .     S
O1891  Zn1903  1.923   .     S
O1892  Zn1901  1.910   .     S
O1893  Zn1901  1.937   .     S
O1894  Zn1904  1.947   .     S
O1895  Zn1902  1.919   .     S
O1896  Zn1903  1.936   .     S
O1897  Zn1904  1.926   .     S
O1898  Zn1901  1.913   .     S
O1899  Zn1902  1.957   .     S
O1900  Zn1903  1.943   .     S
C1905  O2016   1.268   .     A
C1905  O2014   1.263   .     A
C1905  C1911   1.436   .     S
C1906  C1920   1.409   .     A
C1906  C1947   1.408   .     A
C1906  C1933   1.532   .     S
C1907  C1919   1.428   .     A
C1907  C1922   1.522   .     S
C1907  C1920   1.421   .     A
C1908  O2017   1.287   .     A
C1908  C1910   1.463   .     S
C1908  O2015   1.284   .     A
C1909  C1946   1.424   .     A
C1909  C1921   1.431   .     A
C1909  C1918   1.500   .     S
C1910  C2030   1.345   .     S
C1910  C2062   1.524   .     S
C1912  C1915   1.465   .     S
C1912  C1199   1.366   1_565 S
C1912  C1211   1.528   1_565 S
C1913  C1914   1.433   .     S
C1914  O2012   1.277   .     A
C1914  O2018   1.268   .     A
C1915  O2013   1.260   .     A
C1915  O2019   1.272   .     A
C1916  C1921   1.421   .     A
C1916  C856    1.395   1_556 S
C1916  C868    1.519   1_556 S
C1917  O2008   1.275   .     A
C1917  O2010   1.275   .     A
C1917  C1920   1.468   .     S
C1918  O2009   1.288   .     A
C1918  O2011   1.298   .     A
C1921  C1936   1.522   .     S
C1922  C1923   1.536   .     S
C1922  H2006   1.110   .     S
C1922  H1952   1.109   .     S
C1923  C1924   1.523   .     S
C1923  H2004   1.112   .     S
C1923  H2005   1.111   .     S
C1924  H1995   1.111   .     S
C1924  H1984   1.109   .     S
C1924  H2003   1.110   .     S
C1925  C1926   1.526   .     S
C1925  H1957   1.109   .     S
C1926  H1953   1.110   .     S
C1926  H1955   1.111   .     S
C1927  H1973   1.084   .     S
C1928  H1961   1.109   .     S
C1928  H1963   1.109   .     S
C1928  C1199   1.533   1_565 S
C1928  C1215   1.534   1_565 S
C1929  H1960   1.111   .     S
C1929  H1958   1.109   .     S
C1929  H1959   1.111   .     S
C1930  C1931   1.536   .     S
C1930  H1970   1.108   .     S
C1930  H1969   1.104   .     S
C1930  C848    1.531   1_556 S
C1931  H1967   1.111   .     S
C1931  H1968   1.112   .     S
C1931  C1932   1.527   .     S
C1932  H1965   1.111   .     S
C1932  H2083   1.111   .     S
C1932  H2085   1.111   .     S
C1933  C1934   1.537   .     S
C1933  H1978   1.103   .     S
C1933  H1977   1.110   .     S
C1934  H1975   1.112   .     S
C1934  C1935   1.523   .     S
C1934  H1976   1.110   .     S
C1935  H1971   1.108   .     S
C1935  H1974   1.108   .     S
C1935  H1972   1.111   .     S
C1936  C1937   1.528   .     S
C1936  H1983   1.110   .     S
C1936  H1982   1.109   .     S
C1937  H1979   1.104   .     S
C1937  H1980   1.109   .     S
C1937  H1981   1.110   .     S
C1938  C1946   1.411   .     A
C1938  C856    1.401   1_556 S
C1938  C876    1.416   1_556 S
C1939  H1989   1.112   .     S
C1939  C1940   1.528   .     S
C1939  H1988   1.104   .     S
C1940  H1985   1.111   .     S
C1940  H1273   1.111   1_565 S
C1941  H1994   1.110   .     S
C1941  C1942   1.526   .     S
C1941  H1993   1.109   .     S
C1941  C1950   1.517   .     S
C1942  H1990   1.109   .     S
C1942  H1992   1.109   .     S
C1942  H1991   1.111   .     S
C1943  H2001   1.110   .     S
C1943  C1944   1.533   .     S
C1943  H2002   1.112   .     S
C1944  H2000   1.111   .     S
C1944  C1945   1.527   .     S
C1945  H1997   1.111   .     S
C1945  H1998   1.111   .     S
C1945  H1996   1.111   .     S
C1946  C1950   1.419   .     A
C1948  C1949   1.407   .     A
C1948  C876    1.411   1_556 S
C1948  C848    1.421   1_556 S
C1949  C1950   1.400   .     A
C1949  H1962   1.079   .     S
H1951  C2030   1.086   .     S
H1954  C1212   1.111   1_565 S
H1956  C1211   1.110   1_565 S
H1986  C869    1.110   1_556 S
H1999  C2063   1.111   .     S
O2007  Zn2021  1.936   .     S
O2007  Zn2022  1.930   .     S
O2007  Zn2023  1.923   .     S
O2007  Zn2020  1.975   .     S
O2008  Zn2021  1.920   .     S
O2009  Zn2023  1.936   .     S
O2010  Zn2022  1.923   .     S
O2011  Zn2020  1.910   .     S
O2012  Zn2020  1.937   .     S
O2013  Zn2023  1.947   .     S
O2014  Zn2021  1.919   .     S
O2015  Zn2022  1.936   .     S
O2016  Zn2023  1.926   .     S
O2017  Zn2020  1.913   .     S
O2018  Zn2021  1.957   .     S
O2019  Zn2022  1.943   .     S
C2024  O2135   1.268   .     A
C2024  O2133   1.263   .     A
C2024  C2030   1.436   .     S
C2025  C2039   1.409   .     A
C2025  C2066   1.408   .     A
C2025  C2052   1.532   .     S
C2026  C2038   1.428   .     A
C2026  C2041   1.522   .     S
C2026  C2039   1.421   .     A
C2027  O2136   1.287   .     A
C2027  C2029   1.463   .     S
C2027  O2134   1.284   .     A
C2028  C2065   1.424   .     A
C2028  C2040   1.431   .     A
C2028  C2037   1.500   .     S
C2029  C1792   1.345   1_655 S
C2029  C1824   1.524   1_655 S
C2031  C2034   1.465   .     S
C2031  C1318   1.366   1_565 S
C2031  C1330   1.528   1_565 S
C2032  C2033   1.433   .     S
C2033  O2131   1.277   .     A
C2033  O2137   1.268   .     A
C2034  O2132   1.260   .     A
C2034  O2138   1.272   .     A
C2035  C2040   1.421   .     A
C2035  C975    1.395   1_556 S
C2035  C987    1.519   1_556 S
C2036  O2127   1.275   .     A
C2036  O2129   1.275   .     A
C2036  C2039   1.468   .     S
C2037  O2128   1.288   .     A
C2037  O2130   1.298   .     A
C2040  C2055   1.522   .     S
C2041  C2042   1.536   .     S
C2041  H2125   1.110   .     S
C2041  H2071   1.109   .     S
C2042  C2043   1.523   .     S
C2042  H2123   1.112   .     S
C2042  H2124   1.111   .     S
C2043  H2114   1.111   .     S
C2043  H2103   1.109   .     S
C2043  H2122   1.110   .     S
C2044  C2045   1.526   .     S
C2044  H2076   1.109   .     S
C2045  H2072   1.110   .     S
C2045  H2074   1.111   .     S
C2046  H2092   1.084   .     S
C2047  H2080   1.109   .     S
C2047  H2082   1.109   .     S
C2047  C1318   1.533   1_565 S
C2047  C1334   1.534   1_565 S
C2048  H2079   1.111   .     S
C2048  H2077   1.109   .     S
C2048  H2078   1.111   .     S
C2049  C2050   1.536   .     S
C2049  H2089   1.108   .     S
C2049  H2088   1.104   .     S
C2049  C967    1.531   1_556 S
C2050  H2086   1.111   .     S
C2050  H2087   1.112   .     S
C2050  C2051   1.527   .     S
C2051  H2084   1.111   .     S
C2051  H1845   1.111   1_655 S
C2051  H1847   1.111   1_655 S
C2052  C2053   1.537   .     S
C2052  H2097   1.103   .     S
C2052  H2096   1.110   .     S
C2053  H2094   1.112   .     S
C2053  C2054   1.523   .     S
C2053  H2095   1.110   .     S
C2054  H2090   1.108   .     S
C2054  H2093   1.108   .     S
C2054  H2091   1.111   .     S
C2055  C2056   1.528   .     S
C2055  H2102   1.110   .     S
C2055  H2101   1.109   .     S
C2056  H2098   1.104   .     S
C2056  H2099   1.109   .     S
C2056  H2100   1.110   .     S
C2057  C2065   1.411   .     A
C2057  C975    1.401   1_556 S
C2057  C995    1.416   1_556 S
C2058  H2108   1.112   .     S
C2058  C2059   1.528   .     S
C2058  H2107   1.104   .     S
C2059  H2104   1.111   .     S
C2059  H1392   1.111   1_565 S
C2060  H2113   1.110   .     S
C2060  C2061   1.526   .     S
C2060  H2112   1.109   .     S
C2060  C2069   1.517   .     S
C2061  H2109   1.109   .     S
C2061  H2111   1.109   .     S
C2061  H2110   1.111   .     S
C2062  H2120   1.110   .     S
C2062  C2063   1.533   .     S
C2062  H2121   1.112   .     S
C2063  H2119   1.111   .     S
C2063  C2064   1.527   .     S
C2064  H2116   1.111   .     S
C2064  H2117   1.111   .     S
C2064  H2115   1.111   .     S
C2065  C2069   1.419   .     A
C2067  C2068   1.407   .     A
C2067  C995    1.411   1_556 S
C2067  C967    1.421   1_556 S
C2068  C2069   1.400   .     A
C2068  H2081   1.079   .     S
H2070  C1792   1.086   1_655 S
H2073  C1331   1.111   1_565 S
H2075  C1330   1.110   1_565 S
H2105  C988    1.110   1_556 S
H2118  C1825   1.111   1_655 S
O2126  Zn2140  1.936   .     S
O2126  Zn2141  1.930   .     S
O2126  Zn2142  1.923   .     S
O2126  Zn2139  1.975   .     S
O2127  Zn2140  1.920   .     S
O2128  Zn2142  1.936   .     S
O2129  Zn2141  1.923   .     S
O2130  Zn2139  1.910   .     S
O2131  Zn2139  1.937   .     S
O2132  Zn2142  1.947   .     S
O2133  Zn2140  1.919   .     S
O2134  Zn2141  1.936   .     S
O2135  Zn2142  1.926   .     S
O2136  Zn2139  1.913   .     S
O2137  Zn2140  1.957   .     S
O2138  Zn2141  1.943   .     S
