data_str_m1_o1_o2_pcu_sym.39
_audit_creation_date              2020-01-03
_audit_creation_method            'Materials Studio'
_symmetry_space_group_name_H-M    'P1'
_symmetry_Int_Tables_number       1
_symmetry_cell_setting            triclinic
loop_
_symmetry_equiv_pos_as_xyz
  x,y,z
_cell_length_a                    36.7053
_cell_length_b                    36.7053
_cell_length_c                    34.5106
_cell_angle_alpha                 89.9999
_cell_angle_beta                  89.9999
_cell_angle_gamma                 89.9999
loop_
_atom_site_label
_atom_site_type_symbol
_atom_site_fract_x
_atom_site_fract_y
_atom_site_fract_z
_atom_site_U_iso_or_equiv
_atom_site_adp_type
_atom_site_occupancy
C1     C     0.22127   0.01641   0.04154   0.00000  Uiso   1.00
C2     C     0.02874   0.26641   0.45846   0.00000  Uiso   1.00
C3     C     0.34812   0.40189   0.74999   0.00000  Uiso   1.00
C4     C     0.40189   0.15188   0.25001   0.00000  Uiso   1.00
C5     C     0.09812   0.34811   0.75001   0.00000  Uiso   1.00
C6     C     0.34811   0.40188   0.24999   0.00000  Uiso   1.00
C7     C     0.15188   0.09811   0.74999   0.00000  Uiso   1.00
C8     C     0.09811   0.15188   0.74999   0.00000  Uiso   1.00
C9     C     0.40188   0.34811   0.24999   0.00000  Uiso   1.00
C10    C     0.15189   0.40188   0.75001   0.00000  Uiso   1.00
C11    C     0.34812   0.09811   0.25001   0.00000  Uiso   1.00
C12    C     0.40189   0.34812   0.74999   0.00000  Uiso   1.00
C13    C     0.26641   0.47127   0.54154   0.00000  Uiso   1.00
C14    C     0.09812   0.15189   0.24999   0.00000  Uiso   1.00
C15    C     0.34811   0.09812   0.75001   0.00000  Uiso   1.00
C16    C     0.15188   0.40189   0.25001   0.00000  Uiso   1.00
C17    C     0.25000  -0.00000   0.10234   0.00000  Uiso   1.00
C18    C     0.25000  -0.00000   0.89766   0.00000  Uiso   1.00
C19    C     0.00000   0.25000   0.10234   0.00000  Uiso   1.00
C20    C     0.00000   0.25000   0.89766   0.00000  Uiso   1.00
C21    C     0.00000   0.25000   0.60234   0.00000  Uiso   1.00
C22    C     0.00000   0.25000   0.39766   0.00000  Uiso   1.00
C23    C     0.25000  -0.00000   0.60234   0.00000  Uiso   1.00
C24    C     0.26641   0.02874   0.45846   0.00000  Uiso   1.00
C25    C     0.25000  -0.00000   0.39766   0.00000  Uiso   1.00
C26    C     0.02873   0.23358   0.54154   0.00000  Uiso   1.00
C27    C     0.47126   0.23359   0.45846   0.00000  Uiso   1.00
C28    C     0.23358   0.02873   0.54154   0.00000  Uiso   1.00
C29    C     0.23359   0.47126   0.45846   0.00000  Uiso   1.00
C30    C     0.22114   0.01626   0.08188   0.00000  Uiso   1.00
C31    C     0.27886   0.01626   0.91812   0.00000  Uiso   1.00
C32    C     0.01627   0.22114   0.08188   0.00000  Uiso   1.00
C33    C     0.27873   0.01641   0.95846   0.00000  Uiso   1.00
C34    C     0.01627   0.27886   0.91812   0.00000  Uiso   1.00
C35    C     0.27886   0.48374   0.08188   0.00000  Uiso   1.00
C36    C     0.22114   0.48374   0.91812   0.00000  Uiso   1.00
C37    C     0.48373   0.27886   0.08188   0.00000  Uiso   1.00
C38    C     0.48373   0.22114   0.91812   0.00000  Uiso   1.00
C39    C     0.47114   0.26627   0.58188   0.00000  Uiso   1.00
C40    C     0.02887   0.26626   0.41812   0.00000  Uiso   1.00
C41    C     0.26627   0.47114   0.58188   0.00000  Uiso   1.00
C42    C     0.26626   0.02887   0.41812   0.00000  Uiso   1.00
C43    C     0.02886   0.23373   0.58188   0.00000  Uiso   1.00
C44    C     0.01641   0.22127   0.04154   0.00000  Uiso   1.00
C45    C     0.47113   0.23374   0.41812   0.00000  Uiso   1.00
C46    C     0.23373   0.02886   0.58188   0.00000  Uiso   1.00
C47    C     0.23374   0.47113   0.41812   0.00000  Uiso   1.00
C48    C     0.25000  -0.00000   0.02123   0.00000  Uiso   1.00
C49    C     0.25000  -0.00000   0.97877   0.00000  Uiso   1.00
C50    C     0.00000   0.25000   0.02123   0.00000  Uiso   1.00
C51    C     0.00000   0.25000   0.97877   0.00000  Uiso   1.00
C52    C     0.00000   0.25000   0.52123   0.00000  Uiso   1.00
C53    C     0.00000   0.25000   0.47877   0.00000  Uiso   1.00
C54    C     0.25000  -0.00000   0.52123   0.00000  Uiso   1.00
C55    C     0.01641   0.27873   0.95846   0.00000  Uiso   1.00
C56    C     0.25000  -0.00000   0.47877   0.00000  Uiso   1.00
C57    C     0.25000  -0.00000   0.35522   0.00000  Uiso   1.00
C58    C     0.25000  -0.00000   0.64478   0.00000  Uiso   1.00
C59    C     0.00000   0.25000   0.35522   0.00000  Uiso   1.00
C60    C     0.00000   0.25000   0.64478   0.00000  Uiso   1.00
C61    C     0.00000   0.25000   0.85522   0.00000  Uiso   1.00
C62    C     0.00000   0.25000   0.14478   0.00000  Uiso   1.00
C63    C     0.25000  -0.00000   0.85522   0.00000  Uiso   1.00
C64    C     0.25000  -0.00000   0.14478   0.00000  Uiso   1.00
C65    C     0.17994   0.07006   0.25000   0.00000  Uiso   1.00
C66    C     0.27873   0.48359   0.04154   0.00000  Uiso   1.00
C67    C     0.32006   0.42994   0.75000   0.00000  Uiso   1.00
C68    C     0.42994   0.17994   0.25000   0.00000  Uiso   1.00
C69    C     0.07006   0.32006   0.75000   0.00000  Uiso   1.00
C70    C     0.32006   0.42994   0.25000   0.00000  Uiso   1.00
C71    C     0.17994   0.07006   0.75000   0.00000  Uiso   1.00
C72    C     0.07006   0.32006   0.25000   0.00000  Uiso   1.00
C73    C     0.42994   0.17994   0.75000   0.00000  Uiso   1.00
C74    C     0.17994   0.42994   0.75000   0.00000  Uiso   1.00
C75    C     0.32006   0.07006   0.25000   0.00000  Uiso   1.00
C76    C     0.42994   0.32006   0.75000   0.00000  Uiso   1.00
C77    C     0.22127   0.48359   0.95846   0.00000  Uiso   1.00
C78    C     0.07006   0.17994   0.25000   0.00000  Uiso   1.00
C79    C     0.32006   0.07006   0.75000   0.00000  Uiso   1.00
C80    C     0.17994   0.42994   0.25000   0.00000  Uiso   1.00
C81    C     0.07006   0.17994   0.75000   0.00000  Uiso   1.00
C82    C     0.42994   0.32006   0.25000   0.00000  Uiso   1.00
C83    C     0.11650   0.41022   0.23730   0.00000  Uiso   1.00
C84    C     0.38349   0.08979   0.76273   0.00000  Uiso   1.00
C85    C     0.08979   0.11651   0.23727   0.00000  Uiso   1.00
C86    C     0.41023   0.38351   0.76267   0.00000  Uiso   1.00
C87    C     0.38350   0.08978   0.23730   0.00000  Uiso   1.00
C88    C     0.48359   0.27873   0.04154   0.00000  Uiso   1.00
C89    C     0.11651   0.41021   0.76273   0.00000  Uiso   1.00
C90    C     0.41020   0.38349   0.23725   0.00000  Uiso   1.00
C91    C     0.08978   0.11649   0.76270   0.00000  Uiso   1.00
C92    C     0.11649   0.08978   0.76270   0.00000  Uiso   1.00
C93    C     0.38349   0.41020   0.23725   0.00000  Uiso   1.00
C94    C     0.08979   0.38349   0.76273   0.00000  Uiso   1.00
C95    C     0.41022   0.11650   0.23730   0.00000  Uiso   1.00
C96    C     0.38351   0.41023   0.76267   0.00000  Uiso   1.00
C97    C     0.11651   0.08979   0.23727   0.00000  Uiso   1.00
C98    C     0.41021   0.11651   0.76273   0.00000  Uiso   1.00
C99    C     0.48359   0.22127   0.95846   0.00000  Uiso   1.00
C100   C     0.08978   0.38350   0.23730   0.00000  Uiso   1.00
C101   C     0.36650   0.16022   0.73730   0.00000  Uiso   1.00
C102   C     0.13349   0.33979   0.26273   0.00000  Uiso   1.00
C103   C     0.33978   0.36650   0.73729   0.00000  Uiso   1.00
C104   C     0.16022   0.13350   0.26270   0.00000  Uiso   1.00
C105   C     0.13350   0.33978   0.73730   0.00000  Uiso   1.00
C106   C     0.36651   0.16021   0.26273   0.00000  Uiso   1.00
C107   C     0.16021   0.13349   0.73727   0.00000  Uiso   1.00
C108   C     0.33978   0.36650   0.26272   0.00000  Uiso   1.00
C109   C     0.36650   0.33978   0.26272   0.00000  Uiso   1.00
C110   C     0.47127   0.26641   0.54154   0.00000  Uiso   1.00
C111   C     0.13349   0.16021   0.73727   0.00000  Uiso   1.00
C112   C     0.33979   0.13349   0.26273   0.00000  Uiso   1.00
C113   C     0.16022   0.36650   0.73730   0.00000  Uiso   1.00
C114   C     0.13351   0.16022   0.26270   0.00000  Uiso   1.00
C115   C     0.36650   0.33978   0.73729   0.00000  Uiso   1.00
C116   C     0.16021   0.36651   0.26273   0.00000  Uiso   1.00
C117   C     0.33978   0.13350   0.73730   0.00000  Uiso   1.00
C118   C     0.09811   0.34812   0.25001   0.00000  Uiso   1.00
C119   C     0.40188   0.15189   0.75001   0.00000  Uiso   1.00
C120   C     0.15189   0.09812   0.24999   0.00000  Uiso   1.00
F121   F     0.19370   0.03316   0.02225   0.00000  Uiso   1.00
F122   F     0.05630   0.28315   0.47775   0.00000  Uiso   1.00
F123   F     0.28317   0.44371   0.52225   0.00000  Uiso   1.00
F124   F     0.28315   0.05630   0.47775   0.00000  Uiso   1.00
F125   F     0.05629   0.21683   0.52226   0.00000  Uiso   1.00
F126   F     0.44370   0.21684   0.47775   0.00000  Uiso   1.00
F127   F     0.21683   0.05629   0.52226   0.00000  Uiso   1.00
F128   F     0.21684   0.44370   0.47775   0.00000  Uiso   1.00
F129   F     0.10742   0.44442   0.22573   0.00000  Uiso   1.00
F130   F     0.39257   0.05560   0.77430   0.00000  Uiso   1.00
F131   F     0.05560   0.10743   0.22570   0.00000  Uiso   1.00
F132   F     0.30630   0.03317   0.97775   0.00000  Uiso   1.00
F133   F     0.44443   0.39259   0.77421   0.00000  Uiso   1.00
F134   F     0.39258   0.05558   0.22573   0.00000  Uiso   1.00
F135   F     0.10743   0.44440   0.77430   0.00000  Uiso   1.00
F136   F     0.44439   0.39256   0.22565   0.00000  Uiso   1.00
F137   F     0.05558   0.10742   0.77426   0.00000  Uiso   1.00
F138   F     0.10742   0.05558   0.77426   0.00000  Uiso   1.00
F139   F     0.39256   0.44439   0.22565   0.00000  Uiso   1.00
F140   F     0.05560   0.39257   0.77430   0.00000  Uiso   1.00
F141   F     0.44442   0.10742   0.22573   0.00000  Uiso   1.00
F142   F     0.39259   0.44443   0.77421   0.00000  Uiso   1.00
F143   F     0.03317   0.19371   0.02225   0.00000  Uiso   1.00
F144   F     0.10743   0.05560   0.22570   0.00000  Uiso   1.00
F145   F     0.44440   0.10743   0.77430   0.00000  Uiso   1.00
F146   F     0.05558   0.39258   0.22573   0.00000  Uiso   1.00
F147   F     0.35742   0.19442   0.72574   0.00000  Uiso   1.00
F148   F     0.14257   0.30560   0.27431   0.00000  Uiso   1.00
F149   F     0.30558   0.35742   0.72575   0.00000  Uiso   1.00
F150   F     0.19442   0.14258   0.27426   0.00000  Uiso   1.00
F151   F     0.14258   0.30558   0.72574   0.00000  Uiso   1.00
F152   F     0.35743   0.19440   0.27431   0.00000  Uiso   1.00
F153   F     0.19440   0.14257   0.72570   0.00000  Uiso   1.00
F154   F     0.03317   0.30629   0.97775   0.00000  Uiso   1.00
F155   F     0.30560   0.35743   0.27431   0.00000  Uiso   1.00
F156   F     0.35743   0.30559   0.27431   0.00000  Uiso   1.00
F157   F     0.14257   0.19440   0.72570   0.00000  Uiso   1.00
F158   F     0.30560   0.14257   0.27431   0.00000  Uiso   1.00
F159   F     0.19442   0.35742   0.72574   0.00000  Uiso   1.00
F160   F     0.14258   0.19442   0.27426   0.00000  Uiso   1.00
F161   F     0.35742   0.30558   0.72575   0.00000  Uiso   1.00
F162   F     0.19440   0.35743   0.27431   0.00000  Uiso   1.00
F163   F     0.30558   0.14258   0.72574   0.00000  Uiso   1.00
F164   F     0.19330   0.03287   0.10085   0.00000  Uiso   1.00
F165   F     0.30630   0.46683   0.02225   0.00000  Uiso   1.00
F166   F     0.30670   0.03287   0.89915   0.00000  Uiso   1.00
F167   F     0.03287   0.19330   0.10085   0.00000  Uiso   1.00
F168   F     0.03287   0.30670   0.89915   0.00000  Uiso   1.00
F169   F     0.30670   0.46713   0.10085   0.00000  Uiso   1.00
F170   F     0.19330   0.46713   0.89915   0.00000  Uiso   1.00
F171   F     0.46713   0.30670   0.10085   0.00000  Uiso   1.00
F172   F     0.46713   0.19330   0.89915   0.00000  Uiso   1.00
F173   F     0.44330   0.28287   0.60085   0.00000  Uiso   1.00
F174   F     0.05671   0.28286   0.39915   0.00000  Uiso   1.00
F175   F     0.28288   0.44330   0.60085   0.00000  Uiso   1.00
F176   F     0.19371   0.46683   0.97775   0.00000  Uiso   1.00
F177   F     0.28286   0.05671   0.39915   0.00000  Uiso   1.00
F178   F     0.05670   0.21712   0.60085   0.00000  Uiso   1.00
F179   F     0.44329   0.21714   0.39915   0.00000  Uiso   1.00
F180   F     0.21712   0.05670   0.60085   0.00000  Uiso   1.00
F181   F     0.21714   0.44329   0.39915   0.00000  Uiso   1.00
F182   F     0.46683   0.30629   0.02225   0.00000  Uiso   1.00
F183   F     0.46683   0.19371   0.97775   0.00000  Uiso   1.00
F184   F     0.44371   0.28317   0.52225   0.00000  Uiso   1.00
O185   O     0.25000  -0.00000   0.25000   0.00000  Uiso   1.00
O186   O     0.25000   0.46964   0.66317   0.00000  Uiso   1.00
O187   O     0.46964   0.25000   0.33683   0.00000  Uiso   1.00
O188   O     0.03036   0.25000   0.66317   0.00000  Uiso   1.00
O189   O     0.00000   0.21964   0.83683   0.00000  Uiso   1.00
O190   O     0.00000   0.28036   0.16317   0.00000  Uiso   1.00
O191   O     0.28036  -0.00000   0.83683   0.00000  Uiso   1.00
O192   O     0.21964  -0.00000   0.16317   0.00000  Uiso   1.00
O193   O     0.00000   0.28036   0.83683   0.00000  Uiso   1.00
O194   O     0.00000   0.21964   0.16317   0.00000  Uiso   1.00
O195   O     0.21964  -0.00000   0.83683   0.00000  Uiso   1.00
O196   O     0.25000  -0.00000   0.75000   0.00000  Uiso   1.00
O197   O     0.28036  -0.00000   0.16317   0.00000  Uiso   1.00
O198   O     0.20726   0.07307   0.27282   0.00000  Uiso   1.00
O199   O     0.29275   0.42693   0.72718   0.00000  Uiso   1.00
O200   O     0.42693   0.20725   0.27282   0.00000  Uiso   1.00
O201   O     0.07307   0.29274   0.72718   0.00000  Uiso   1.00
O202   O     0.29275   0.42693   0.27282   0.00000  Uiso   1.00
O203   O     0.20726   0.07307   0.72718   0.00000  Uiso   1.00
O204   O     0.07307   0.29274   0.27282   0.00000  Uiso   1.00
O205   O     0.42693   0.20725   0.72718   0.00000  Uiso   1.00
O206   O     0.20726   0.42693   0.72718   0.00000  Uiso   1.00
O207   O     0.00000   0.25000   0.25000   0.00000  Uiso   1.00
O208   O     0.29275   0.07307   0.27282   0.00000  Uiso   1.00
O209   O     0.42693   0.29274   0.72718   0.00000  Uiso   1.00
O210   O     0.07307   0.20725   0.27282   0.00000  Uiso   1.00
O211   O     0.29275   0.07307   0.72718   0.00000  Uiso   1.00
O212   O     0.20726   0.42693   0.27282   0.00000  Uiso   1.00
O213   O     0.07307   0.20725   0.72718   0.00000  Uiso   1.00
O214   O     0.42693   0.29274   0.27282   0.00000  Uiso   1.00
O215   O     0.45726   0.32307   0.77282   0.00000  Uiso   1.00
O216   O     0.04275   0.17693   0.22718   0.00000  Uiso   1.00
O217   O     0.17693   0.45725   0.77282   0.00000  Uiso   1.00
O218   O     0.00000   0.25000   0.75000   0.00000  Uiso   1.00
O219   O     0.32307   0.04274   0.22718   0.00000  Uiso   1.00
O220   O     0.04275   0.17693   0.77282   0.00000  Uiso   1.00
O221   O     0.45726   0.32307   0.22718   0.00000  Uiso   1.00
O222   O     0.32307   0.04274   0.77282   0.00000  Uiso   1.00
O223   O     0.17693   0.45725   0.22718   0.00000  Uiso   1.00
O224   O     0.45726   0.17693   0.22718   0.00000  Uiso   1.00
O225   O     0.04275   0.32307   0.77282   0.00000  Uiso   1.00
O226   O     0.17693   0.04274   0.22718   0.00000  Uiso   1.00
O227   O     0.32307   0.45725   0.77282   0.00000  Uiso   1.00
O228   O     0.04275   0.32307   0.22718   0.00000  Uiso   1.00
O229   O     0.25000   0.46964   0.33683   0.00000  Uiso   1.00
O230   O     0.45726   0.17693   0.77282   0.00000  Uiso   1.00
O231   O     0.32307   0.45725   0.22718   0.00000  Uiso   1.00
O232   O     0.17693   0.04274   0.77282   0.00000  Uiso   1.00
O233   O     0.25000   0.03036   0.66317   0.00000  Uiso   1.00
O234   O     0.03036   0.25000   0.33683   0.00000  Uiso   1.00
O235   O     0.46964   0.25000   0.66317   0.00000  Uiso   1.00
O236   O     0.25000   0.03036   0.33683   0.00000  Uiso   1.00
Zn237  Zn    0.20660  -0.00000   0.21760   0.00000  Uiso   1.00
Zn238  Zn    0.04340   0.25000   0.28240   0.00000  Uiso   1.00
Zn239  Zn    0.25000   0.45660   0.71760   0.00000  Uiso   1.00
Zn240  Zn    0.25000   0.04340   0.28240   0.00000  Uiso   1.00
Zn241  Zn    0.04340   0.25000   0.71760   0.00000  Uiso   1.00
Zn242  Zn    0.45660   0.25000   0.28240   0.00000  Uiso   1.00
Zn243  Zn    0.25000   0.04340   0.71760   0.00000  Uiso   1.00
Zn244  Zn    0.25000   0.45660   0.28240   0.00000  Uiso   1.00
Zn245  Zn    0.29340  -0.00000   0.78240   0.00000  Uiso   1.00
Zn246  Zn    0.00000   0.20660   0.21760   0.00000  Uiso   1.00
Zn247  Zn    0.00000   0.29340   0.78240   0.00000  Uiso   1.00
Zn248  Zn    0.29340  -0.00000   0.21760   0.00000  Uiso   1.00
Zn249  Zn    0.20660  -0.00000   0.78240   0.00000  Uiso   1.00
Zn250  Zn    0.00000   0.29340   0.21760   0.00000  Uiso   1.00
Zn251  Zn    0.00000   0.20660   0.78240   0.00000  Uiso   1.00
Zn252  Zn    0.45660   0.25000   0.71760   0.00000  Uiso   1.00
C253   C     0.72127   0.01641   0.04154   0.00000  Uiso   1.00
C254   C     0.52874   0.26641   0.45846   0.00000  Uiso   1.00
C255   C     0.84812   0.40189   0.74999   0.00000  Uiso   1.00
C256   C     0.90189   0.15188   0.25001   0.00000  Uiso   1.00
C257   C     0.59812   0.34811   0.75001   0.00000  Uiso   1.00
C258   C     0.84811   0.40188   0.24999   0.00000  Uiso   1.00
C259   C     0.65188   0.09811   0.74999   0.00000  Uiso   1.00
C260   C     0.59811   0.15188   0.74999   0.00000  Uiso   1.00
C261   C     0.90188   0.34811   0.24999   0.00000  Uiso   1.00
C262   C     0.65189   0.40188   0.75001   0.00000  Uiso   1.00
C263   C     0.84812   0.09811   0.25001   0.00000  Uiso   1.00
C264   C     0.90189   0.34812   0.74999   0.00000  Uiso   1.00
C265   C     0.76641   0.47127   0.54154   0.00000  Uiso   1.00
C266   C     0.59812   0.15189   0.24999   0.00000  Uiso   1.00
C267   C     0.84811   0.09812   0.75001   0.00000  Uiso   1.00
C268   C     0.65188   0.40189   0.25001   0.00000  Uiso   1.00
C269   C     0.75000  -0.00000   0.10234   0.00000  Uiso   1.00
C270   C     0.75000  -0.00000   0.89766   0.00000  Uiso   1.00
C271   C     0.50000   0.25000   0.10234   0.00000  Uiso   1.00
C272   C     0.50000   0.25000   0.89766   0.00000  Uiso   1.00
C273   C     0.50000   0.25000   0.60234   0.00000  Uiso   1.00
C274   C     0.50000   0.25000   0.39766   0.00000  Uiso   1.00
C275   C     0.75000  -0.00000   0.60234   0.00000  Uiso   1.00
C276   C     0.76641   0.02874   0.45846   0.00000  Uiso   1.00
C277   C     0.75000  -0.00000   0.39766   0.00000  Uiso   1.00
C278   C     0.52873   0.23358   0.54154   0.00000  Uiso   1.00
C279   C     0.97126   0.23359   0.45846   0.00000  Uiso   1.00
C280   C     0.73358   0.02873   0.54154   0.00000  Uiso   1.00
C281   C     0.73359   0.47126   0.45846   0.00000  Uiso   1.00
C282   C     0.72114   0.01626   0.08188   0.00000  Uiso   1.00
C283   C     0.77886   0.01626   0.91812   0.00000  Uiso   1.00
C284   C     0.51627   0.22114   0.08188   0.00000  Uiso   1.00
C285   C     0.77873   0.01641   0.95846   0.00000  Uiso   1.00
C286   C     0.51627   0.27886   0.91812   0.00000  Uiso   1.00
C287   C     0.77886   0.48374   0.08188   0.00000  Uiso   1.00
C288   C     0.72114   0.48374   0.91812   0.00000  Uiso   1.00
C289   C     0.98373   0.27886   0.08188   0.00000  Uiso   1.00
C290   C     0.98373   0.22114   0.91812   0.00000  Uiso   1.00
C291   C     0.97114   0.26627   0.58188   0.00000  Uiso   1.00
C292   C     0.52887   0.26626   0.41812   0.00000  Uiso   1.00
C293   C     0.76627   0.47114   0.58188   0.00000  Uiso   1.00
C294   C     0.76626   0.02887   0.41812   0.00000  Uiso   1.00
C295   C     0.52886   0.23373   0.58188   0.00000  Uiso   1.00
C296   C     0.51641   0.22127   0.04154   0.00000  Uiso   1.00
C297   C     0.97113   0.23374   0.41812   0.00000  Uiso   1.00
C298   C     0.73373   0.02886   0.58188   0.00000  Uiso   1.00
C299   C     0.73374   0.47113   0.41812   0.00000  Uiso   1.00
C300   C     0.75000  -0.00000   0.02123   0.00000  Uiso   1.00
C301   C     0.75000  -0.00000   0.97877   0.00000  Uiso   1.00
C302   C     0.50000   0.25000   0.02123   0.00000  Uiso   1.00
C303   C     0.50000   0.25000   0.97877   0.00000  Uiso   1.00
C304   C     0.50000   0.25000   0.52123   0.00000  Uiso   1.00
C305   C     0.50000   0.25000   0.47877   0.00000  Uiso   1.00
C306   C     0.75000  -0.00000   0.52123   0.00000  Uiso   1.00
C307   C     0.51641   0.27873   0.95846   0.00000  Uiso   1.00
C308   C     0.75000  -0.00000   0.47877   0.00000  Uiso   1.00
C309   C     0.75000  -0.00000   0.35522   0.00000  Uiso   1.00
C310   C     0.75000  -0.00000   0.64478   0.00000  Uiso   1.00
C311   C     0.50000   0.25000   0.35522   0.00000  Uiso   1.00
C312   C     0.50000   0.25000   0.64478   0.00000  Uiso   1.00
C313   C     0.50000   0.25000   0.85522   0.00000  Uiso   1.00
C314   C     0.50000   0.25000   0.14478   0.00000  Uiso   1.00
C315   C     0.75000  -0.00000   0.85522   0.00000  Uiso   1.00
C316   C     0.75000  -0.00000   0.14478   0.00000  Uiso   1.00
C317   C     0.67994   0.07006   0.25000   0.00000  Uiso   1.00
C318   C     0.77873   0.48359   0.04154   0.00000  Uiso   1.00
C319   C     0.82006   0.42994   0.75000   0.00000  Uiso   1.00
C320   C     0.92994   0.17994   0.25000   0.00000  Uiso   1.00
C321   C     0.57006   0.32006   0.75000   0.00000  Uiso   1.00
C322   C     0.82006   0.42994   0.25000   0.00000  Uiso   1.00
C323   C     0.67994   0.07006   0.75000   0.00000  Uiso   1.00
C324   C     0.57006   0.32006   0.25000   0.00000  Uiso   1.00
C325   C     0.92994   0.17994   0.75000   0.00000  Uiso   1.00
C326   C     0.67994   0.42994   0.75000   0.00000  Uiso   1.00
C327   C     0.82006   0.07006   0.25000   0.00000  Uiso   1.00
C328   C     0.92994   0.32006   0.75000   0.00000  Uiso   1.00
C329   C     0.72127   0.48359   0.95846   0.00000  Uiso   1.00
C330   C     0.57006   0.17994   0.25000   0.00000  Uiso   1.00
C331   C     0.82006   0.07006   0.75000   0.00000  Uiso   1.00
C332   C     0.67994   0.42994   0.25000   0.00000  Uiso   1.00
C333   C     0.57006   0.17994   0.75000   0.00000  Uiso   1.00
C334   C     0.92994   0.32006   0.25000   0.00000  Uiso   1.00
C335   C     0.61650   0.41022   0.23730   0.00000  Uiso   1.00
C336   C     0.88349   0.08979   0.76273   0.00000  Uiso   1.00
C337   C     0.58979   0.11651   0.23727   0.00000  Uiso   1.00
C338   C     0.91023   0.38351   0.76267   0.00000  Uiso   1.00
C339   C     0.88350   0.08978   0.23730   0.00000  Uiso   1.00
C340   C     0.98359   0.27873   0.04154   0.00000  Uiso   1.00
C341   C     0.61651   0.41021   0.76273   0.00000  Uiso   1.00
C342   C     0.91020   0.38349   0.23725   0.00000  Uiso   1.00
C343   C     0.58978   0.11649   0.76270   0.00000  Uiso   1.00
C344   C     0.61649   0.08978   0.76270   0.00000  Uiso   1.00
C345   C     0.88349   0.41020   0.23725   0.00000  Uiso   1.00
C346   C     0.58979   0.38349   0.76273   0.00000  Uiso   1.00
C347   C     0.91022   0.11650   0.23730   0.00000  Uiso   1.00
C348   C     0.88351   0.41023   0.76267   0.00000  Uiso   1.00
C349   C     0.61651   0.08979   0.23727   0.00000  Uiso   1.00
C350   C     0.91021   0.11651   0.76273   0.00000  Uiso   1.00
C351   C     0.98359   0.22127   0.95846   0.00000  Uiso   1.00
C352   C     0.58978   0.38350   0.23730   0.00000  Uiso   1.00
C353   C     0.86650   0.16022   0.73730   0.00000  Uiso   1.00
C354   C     0.63349   0.33979   0.26273   0.00000  Uiso   1.00
C355   C     0.83978   0.36650   0.73729   0.00000  Uiso   1.00
C356   C     0.66022   0.13350   0.26270   0.00000  Uiso   1.00
C357   C     0.63350   0.33978   0.73730   0.00000  Uiso   1.00
C358   C     0.86651   0.16021   0.26273   0.00000  Uiso   1.00
C359   C     0.66021   0.13349   0.73727   0.00000  Uiso   1.00
C360   C     0.83978   0.36650   0.26272   0.00000  Uiso   1.00
C361   C     0.86650   0.33978   0.26272   0.00000  Uiso   1.00
C362   C     0.97127   0.26641   0.54154   0.00000  Uiso   1.00
C363   C     0.63349   0.16021   0.73727   0.00000  Uiso   1.00
C364   C     0.83979   0.13349   0.26273   0.00000  Uiso   1.00
C365   C     0.66022   0.36650   0.73730   0.00000  Uiso   1.00
C366   C     0.63351   0.16022   0.26270   0.00000  Uiso   1.00
C367   C     0.86650   0.33978   0.73729   0.00000  Uiso   1.00
C368   C     0.66021   0.36651   0.26273   0.00000  Uiso   1.00
C369   C     0.83978   0.13350   0.73730   0.00000  Uiso   1.00
C370   C     0.59811   0.34812   0.25001   0.00000  Uiso   1.00
C371   C     0.90188   0.15189   0.75001   0.00000  Uiso   1.00
C372   C     0.65189   0.09812   0.24999   0.00000  Uiso   1.00
F373   F     0.69370   0.03316   0.02225   0.00000  Uiso   1.00
F374   F     0.55630   0.28315   0.47775   0.00000  Uiso   1.00
F375   F     0.78317   0.44371   0.52225   0.00000  Uiso   1.00
F376   F     0.78315   0.05630   0.47775   0.00000  Uiso   1.00
F377   F     0.55629   0.21683   0.52226   0.00000  Uiso   1.00
F378   F     0.94370   0.21684   0.47775   0.00000  Uiso   1.00
F379   F     0.71683   0.05629   0.52226   0.00000  Uiso   1.00
F380   F     0.71684   0.44370   0.47775   0.00000  Uiso   1.00
F381   F     0.60742   0.44442   0.22573   0.00000  Uiso   1.00
F382   F     0.89257   0.05560   0.77430   0.00000  Uiso   1.00
F383   F     0.55560   0.10743   0.22570   0.00000  Uiso   1.00
F384   F     0.80630   0.03317   0.97775   0.00000  Uiso   1.00
F385   F     0.94443   0.39259   0.77421   0.00000  Uiso   1.00
F386   F     0.89258   0.05558   0.22573   0.00000  Uiso   1.00
F387   F     0.60743   0.44440   0.77430   0.00000  Uiso   1.00
F388   F     0.94439   0.39256   0.22565   0.00000  Uiso   1.00
F389   F     0.55558   0.10742   0.77426   0.00000  Uiso   1.00
F390   F     0.60742   0.05558   0.77426   0.00000  Uiso   1.00
F391   F     0.89256   0.44439   0.22565   0.00000  Uiso   1.00
F392   F     0.55560   0.39257   0.77430   0.00000  Uiso   1.00
F393   F     0.94442   0.10742   0.22573   0.00000  Uiso   1.00
F394   F     0.89259   0.44443   0.77421   0.00000  Uiso   1.00
F395   F     0.53317   0.19371   0.02225   0.00000  Uiso   1.00
F396   F     0.60743   0.05560   0.22570   0.00000  Uiso   1.00
F397   F     0.94440   0.10743   0.77430   0.00000  Uiso   1.00
F398   F     0.55558   0.39258   0.22573   0.00000  Uiso   1.00
F399   F     0.85742   0.19442   0.72574   0.00000  Uiso   1.00
F400   F     0.64257   0.30560   0.27431   0.00000  Uiso   1.00
F401   F     0.80558   0.35742   0.72575   0.00000  Uiso   1.00
F402   F     0.69442   0.14258   0.27426   0.00000  Uiso   1.00
F403   F     0.64258   0.30558   0.72574   0.00000  Uiso   1.00
F404   F     0.85743   0.19440   0.27431   0.00000  Uiso   1.00
F405   F     0.69440   0.14257   0.72570   0.00000  Uiso   1.00
F406   F     0.53317   0.30629   0.97775   0.00000  Uiso   1.00
F407   F     0.80560   0.35743   0.27431   0.00000  Uiso   1.00
F408   F     0.85743   0.30559   0.27431   0.00000  Uiso   1.00
F409   F     0.64257   0.19440   0.72570   0.00000  Uiso   1.00
F410   F     0.80560   0.14257   0.27431   0.00000  Uiso   1.00
F411   F     0.69442   0.35742   0.72574   0.00000  Uiso   1.00
F412   F     0.64258   0.19442   0.27426   0.00000  Uiso   1.00
F413   F     0.85742   0.30558   0.72575   0.00000  Uiso   1.00
F414   F     0.69440   0.35743   0.27431   0.00000  Uiso   1.00
F415   F     0.80558   0.14258   0.72574   0.00000  Uiso   1.00
F416   F     0.69330   0.03287   0.10085   0.00000  Uiso   1.00
F417   F     0.80630   0.46683   0.02225   0.00000  Uiso   1.00
F418   F     0.80670   0.03287   0.89915   0.00000  Uiso   1.00
F419   F     0.53287   0.19330   0.10085   0.00000  Uiso   1.00
F420   F     0.53287   0.30670   0.89915   0.00000  Uiso   1.00
F421   F     0.80670   0.46713   0.10085   0.00000  Uiso   1.00
F422   F     0.69330   0.46713   0.89915   0.00000  Uiso   1.00
F423   F     0.96713   0.30670   0.10085   0.00000  Uiso   1.00
F424   F     0.96713   0.19330   0.89915   0.00000  Uiso   1.00
F425   F     0.94330   0.28287   0.60085   0.00000  Uiso   1.00
F426   F     0.55671   0.28286   0.39915   0.00000  Uiso   1.00
F427   F     0.78288   0.44330   0.60085   0.00000  Uiso   1.00
F428   F     0.69371   0.46683   0.97775   0.00000  Uiso   1.00
F429   F     0.78286   0.05671   0.39915   0.00000  Uiso   1.00
F430   F     0.55670   0.21712   0.60085   0.00000  Uiso   1.00
F431   F     0.94329   0.21714   0.39915   0.00000  Uiso   1.00
F432   F     0.71712   0.05670   0.60085   0.00000  Uiso   1.00
F433   F     0.71714   0.44329   0.39915   0.00000  Uiso   1.00
F434   F     0.96683   0.30629   0.02225   0.00000  Uiso   1.00
F435   F     0.96683   0.19371   0.97775   0.00000  Uiso   1.00
F436   F     0.94371   0.28317   0.52225   0.00000  Uiso   1.00
O437   O     0.75000  -0.00000   0.25000   0.00000  Uiso   1.00
O438   O     0.75000   0.46964   0.66317   0.00000  Uiso   1.00
O439   O     0.96964   0.25000   0.33683   0.00000  Uiso   1.00
O440   O     0.53036   0.25000   0.66317   0.00000  Uiso   1.00
O441   O     0.50000   0.21964   0.83683   0.00000  Uiso   1.00
O442   O     0.50000   0.28036   0.16317   0.00000  Uiso   1.00
O443   O     0.78036  -0.00000   0.83683   0.00000  Uiso   1.00
O444   O     0.71964  -0.00000   0.16317   0.00000  Uiso   1.00
O445   O     0.50000   0.28036   0.83683   0.00000  Uiso   1.00
O446   O     0.50000   0.21964   0.16317   0.00000  Uiso   1.00
O447   O     0.71964  -0.00000   0.83683   0.00000  Uiso   1.00
O448   O     0.75000  -0.00000   0.75000   0.00000  Uiso   1.00
O449   O     0.78036  -0.00000   0.16317   0.00000  Uiso   1.00
O450   O     0.70726   0.07307   0.27282   0.00000  Uiso   1.00
O451   O     0.79275   0.42693   0.72718   0.00000  Uiso   1.00
O452   O     0.92693   0.20725   0.27282   0.00000  Uiso   1.00
O453   O     0.57307   0.29274   0.72718   0.00000  Uiso   1.00
O454   O     0.79275   0.42693   0.27282   0.00000  Uiso   1.00
O455   O     0.70726   0.07307   0.72718   0.00000  Uiso   1.00
O456   O     0.57307   0.29274   0.27282   0.00000  Uiso   1.00
O457   O     0.92693   0.20725   0.72718   0.00000  Uiso   1.00
O458   O     0.70726   0.42693   0.72718   0.00000  Uiso   1.00
O459   O     0.50000   0.25000   0.25000   0.00000  Uiso   1.00
O460   O     0.79275   0.07307   0.27282   0.00000  Uiso   1.00
O461   O     0.92693   0.29274   0.72718   0.00000  Uiso   1.00
O462   O     0.57307   0.20725   0.27282   0.00000  Uiso   1.00
O463   O     0.79275   0.07307   0.72718   0.00000  Uiso   1.00
O464   O     0.70726   0.42693   0.27282   0.00000  Uiso   1.00
O465   O     0.57307   0.20725   0.72718   0.00000  Uiso   1.00
O466   O     0.92693   0.29274   0.27282   0.00000  Uiso   1.00
O467   O     0.95726   0.32307   0.77282   0.00000  Uiso   1.00
O468   O     0.54275   0.17693   0.22718   0.00000  Uiso   1.00
O469   O     0.67693   0.45725   0.77282   0.00000  Uiso   1.00
O470   O     0.50000   0.25000   0.75000   0.00000  Uiso   1.00
O471   O     0.82307   0.04274   0.22718   0.00000  Uiso   1.00
O472   O     0.54275   0.17693   0.77282   0.00000  Uiso   1.00
O473   O     0.95726   0.32307   0.22718   0.00000  Uiso   1.00
O474   O     0.82307   0.04274   0.77282   0.00000  Uiso   1.00
O475   O     0.67693   0.45725   0.22718   0.00000  Uiso   1.00
O476   O     0.95726   0.17693   0.22718   0.00000  Uiso   1.00
O477   O     0.54275   0.32307   0.77282   0.00000  Uiso   1.00
O478   O     0.67693   0.04274   0.22718   0.00000  Uiso   1.00
O479   O     0.82307   0.45725   0.77282   0.00000  Uiso   1.00
O480   O     0.54275   0.32307   0.22718   0.00000  Uiso   1.00
O481   O     0.75000   0.46964   0.33683   0.00000  Uiso   1.00
O482   O     0.95726   0.17693   0.77282   0.00000  Uiso   1.00
O483   O     0.82307   0.45725   0.22718   0.00000  Uiso   1.00
O484   O     0.67693   0.04274   0.77282   0.00000  Uiso   1.00
O485   O     0.75000   0.03036   0.66317   0.00000  Uiso   1.00
O486   O     0.53036   0.25000   0.33683   0.00000  Uiso   1.00
O487   O     0.96964   0.25000   0.66317   0.00000  Uiso   1.00
O488   O     0.75000   0.03036   0.33683   0.00000  Uiso   1.00
Zn489  Zn    0.70660  -0.00000   0.21760   0.00000  Uiso   1.00
Zn490  Zn    0.54340   0.25000   0.28240   0.00000  Uiso   1.00
Zn491  Zn    0.75000   0.45660   0.71760   0.00000  Uiso   1.00
Zn492  Zn    0.75000   0.04340   0.28240   0.00000  Uiso   1.00
Zn493  Zn    0.54340   0.25000   0.71760   0.00000  Uiso   1.00
Zn494  Zn    0.95660   0.25000   0.28240   0.00000  Uiso   1.00
Zn495  Zn    0.75000   0.04340   0.71760   0.00000  Uiso   1.00
Zn496  Zn    0.75000   0.45660   0.28240   0.00000  Uiso   1.00
Zn497  Zn    0.79340  -0.00000   0.78240   0.00000  Uiso   1.00
Zn498  Zn    0.50000   0.20660   0.21760   0.00000  Uiso   1.00
Zn499  Zn    0.50000   0.29340   0.78240   0.00000  Uiso   1.00
Zn500  Zn    0.79340  -0.00000   0.21760   0.00000  Uiso   1.00
Zn501  Zn    0.70660  -0.00000   0.78240   0.00000  Uiso   1.00
Zn502  Zn    0.50000   0.29340   0.21760   0.00000  Uiso   1.00
Zn503  Zn    0.50000   0.20660   0.78240   0.00000  Uiso   1.00
Zn504  Zn    0.95660   0.25000   0.71760   0.00000  Uiso   1.00
C505   C     0.22127   0.51641   0.04154   0.00000  Uiso   1.00
C506   C     0.02874   0.76641   0.45846   0.00000  Uiso   1.00
C507   C     0.34812   0.90189   0.74999   0.00000  Uiso   1.00
C508   C     0.40189   0.65188   0.25001   0.00000  Uiso   1.00
C509   C     0.09812   0.84811   0.75001   0.00000  Uiso   1.00
C510   C     0.34811   0.90188   0.24999   0.00000  Uiso   1.00
C511   C     0.15188   0.59811   0.74999   0.00000  Uiso   1.00
C512   C     0.09811   0.65188   0.74999   0.00000  Uiso   1.00
C513   C     0.40188   0.84811   0.24999   0.00000  Uiso   1.00
C514   C     0.15189   0.90188   0.75001   0.00000  Uiso   1.00
C515   C     0.34812   0.59811   0.25001   0.00000  Uiso   1.00
C516   C     0.40189   0.84812   0.74999   0.00000  Uiso   1.00
C517   C     0.26641   0.97127   0.54154   0.00000  Uiso   1.00
C518   C     0.09812   0.65189   0.24999   0.00000  Uiso   1.00
C519   C     0.34811   0.59812   0.75001   0.00000  Uiso   1.00
C520   C     0.15188   0.90189   0.25001   0.00000  Uiso   1.00
C521   C     0.25000   0.50000   0.10234   0.00000  Uiso   1.00
C522   C     0.25000   0.50000   0.89766   0.00000  Uiso   1.00
C523   C     0.00000   0.75000   0.10234   0.00000  Uiso   1.00
C524   C     0.00000   0.75000   0.89766   0.00000  Uiso   1.00
C525   C     0.00000   0.75000   0.60234   0.00000  Uiso   1.00
C526   C     0.00000   0.75000   0.39766   0.00000  Uiso   1.00
C527   C     0.25000   0.50000   0.60234   0.00000  Uiso   1.00
C528   C     0.26641   0.52874   0.45846   0.00000  Uiso   1.00
C529   C     0.25000   0.50000   0.39766   0.00000  Uiso   1.00
C530   C     0.02873   0.73358   0.54154   0.00000  Uiso   1.00
C531   C     0.47126   0.73359   0.45846   0.00000  Uiso   1.00
C532   C     0.23358   0.52873   0.54154   0.00000  Uiso   1.00
C533   C     0.23359   0.97126   0.45846   0.00000  Uiso   1.00
C534   C     0.22114   0.51626   0.08188   0.00000  Uiso   1.00
C535   C     0.27886   0.51626   0.91812   0.00000  Uiso   1.00
C536   C     0.01627   0.72114   0.08188   0.00000  Uiso   1.00
C537   C     0.27873   0.51641   0.95846   0.00000  Uiso   1.00
C538   C     0.01627   0.77886   0.91812   0.00000  Uiso   1.00
C539   C     0.27886   0.98374   0.08188   0.00000  Uiso   1.00
C540   C     0.22114   0.98374   0.91812   0.00000  Uiso   1.00
C541   C     0.48373   0.77886   0.08188   0.00000  Uiso   1.00
C542   C     0.48373   0.72114   0.91812   0.00000  Uiso   1.00
C543   C     0.47114   0.76627   0.58188   0.00000  Uiso   1.00
C544   C     0.02887   0.76626   0.41812   0.00000  Uiso   1.00
C545   C     0.26627   0.97114   0.58188   0.00000  Uiso   1.00
C546   C     0.26626   0.52887   0.41812   0.00000  Uiso   1.00
C547   C     0.02886   0.73373   0.58188   0.00000  Uiso   1.00
C548   C     0.01641   0.72127   0.04154   0.00000  Uiso   1.00
C549   C     0.47113   0.73374   0.41812   0.00000  Uiso   1.00
C550   C     0.23373   0.52886   0.58188   0.00000  Uiso   1.00
C551   C     0.23374   0.97113   0.41812   0.00000  Uiso   1.00
C552   C     0.25000   0.50000   0.02123   0.00000  Uiso   1.00
C553   C     0.25000   0.50000   0.97877   0.00000  Uiso   1.00
C554   C     0.00000   0.75000   0.02123   0.00000  Uiso   1.00
C555   C     0.00000   0.75000   0.97877   0.00000  Uiso   1.00
C556   C     0.00000   0.75000   0.52123   0.00000  Uiso   1.00
C557   C     0.00000   0.75000   0.47877   0.00000  Uiso   1.00
C558   C     0.25000   0.50000   0.52123   0.00000  Uiso   1.00
C559   C     0.01641   0.77873   0.95846   0.00000  Uiso   1.00
C560   C     0.25000   0.50000   0.47877   0.00000  Uiso   1.00
C561   C     0.25000   0.50000   0.35522   0.00000  Uiso   1.00
C562   C     0.25000   0.50000   0.64478   0.00000  Uiso   1.00
C563   C     0.00000   0.75000   0.35522   0.00000  Uiso   1.00
C564   C     0.00000   0.75000   0.64478   0.00000  Uiso   1.00
C565   C     0.00000   0.75000   0.85522   0.00000  Uiso   1.00
C566   C     0.00000   0.75000   0.14478   0.00000  Uiso   1.00
C567   C     0.25000   0.50000   0.85522   0.00000  Uiso   1.00
C568   C     0.25000   0.50000   0.14478   0.00000  Uiso   1.00
C569   C     0.17994   0.57006   0.25000   0.00000  Uiso   1.00
C570   C     0.27873   0.98359   0.04154   0.00000  Uiso   1.00
C571   C     0.32006   0.92994   0.75000   0.00000  Uiso   1.00
C572   C     0.42994   0.67994   0.25000   0.00000  Uiso   1.00
C573   C     0.07006   0.82006   0.75000   0.00000  Uiso   1.00
C574   C     0.32006   0.92994   0.25000   0.00000  Uiso   1.00
C575   C     0.17994   0.57006   0.75000   0.00000  Uiso   1.00
C576   C     0.07006   0.82006   0.25000   0.00000  Uiso   1.00
C577   C     0.42994   0.67994   0.75000   0.00000  Uiso   1.00
C578   C     0.17994   0.92994   0.75000   0.00000  Uiso   1.00
C579   C     0.32006   0.57006   0.25000   0.00000  Uiso   1.00
C580   C     0.42994   0.82006   0.75000   0.00000  Uiso   1.00
C581   C     0.22127   0.98359   0.95846   0.00000  Uiso   1.00
C582   C     0.07006   0.67994   0.25000   0.00000  Uiso   1.00
C583   C     0.32006   0.57006   0.75000   0.00000  Uiso   1.00
C584   C     0.17994   0.92994   0.25000   0.00000  Uiso   1.00
C585   C     0.07006   0.67994   0.75000   0.00000  Uiso   1.00
C586   C     0.42994   0.82006   0.25000   0.00000  Uiso   1.00
C587   C     0.11650   0.91022   0.23730   0.00000  Uiso   1.00
C588   C     0.38349   0.58979   0.76273   0.00000  Uiso   1.00
C589   C     0.08979   0.61651   0.23727   0.00000  Uiso   1.00
C590   C     0.41023   0.88351   0.76267   0.00000  Uiso   1.00
C591   C     0.38350   0.58978   0.23730   0.00000  Uiso   1.00
C592   C     0.48359   0.77873   0.04154   0.00000  Uiso   1.00
C593   C     0.11651   0.91021   0.76273   0.00000  Uiso   1.00
C594   C     0.41020   0.88349   0.23725   0.00000  Uiso   1.00
C595   C     0.08978   0.61649   0.76270   0.00000  Uiso   1.00
C596   C     0.11649   0.58978   0.76270   0.00000  Uiso   1.00
C597   C     0.38349   0.91020   0.23725   0.00000  Uiso   1.00
C598   C     0.08979   0.88349   0.76273   0.00000  Uiso   1.00
C599   C     0.41022   0.61650   0.23730   0.00000  Uiso   1.00
C600   C     0.38351   0.91023   0.76267   0.00000  Uiso   1.00
C601   C     0.11651   0.58979   0.23727   0.00000  Uiso   1.00
C602   C     0.41021   0.61651   0.76273   0.00000  Uiso   1.00
C603   C     0.48359   0.72127   0.95846   0.00000  Uiso   1.00
C604   C     0.08978   0.88350   0.23730   0.00000  Uiso   1.00
C605   C     0.36650   0.66022   0.73730   0.00000  Uiso   1.00
C606   C     0.13349   0.83979   0.26273   0.00000  Uiso   1.00
C607   C     0.33978   0.86650   0.73729   0.00000  Uiso   1.00
C608   C     0.16022   0.63350   0.26270   0.00000  Uiso   1.00
C609   C     0.13350   0.83978   0.73730   0.00000  Uiso   1.00
C610   C     0.36651   0.66021   0.26273   0.00000  Uiso   1.00
C611   C     0.16021   0.63349   0.73727   0.00000  Uiso   1.00
C612   C     0.33978   0.86650   0.26272   0.00000  Uiso   1.00
C613   C     0.36650   0.83978   0.26272   0.00000  Uiso   1.00
C614   C     0.47127   0.76641   0.54154   0.00000  Uiso   1.00
C615   C     0.13349   0.66021   0.73727   0.00000  Uiso   1.00
C616   C     0.33979   0.63349   0.26273   0.00000  Uiso   1.00
C617   C     0.16022   0.86650   0.73730   0.00000  Uiso   1.00
C618   C     0.13351   0.66022   0.26270   0.00000  Uiso   1.00
C619   C     0.36650   0.83978   0.73729   0.00000  Uiso   1.00
C620   C     0.16021   0.86651   0.26273   0.00000  Uiso   1.00
C621   C     0.33978   0.63350   0.73730   0.00000  Uiso   1.00
C622   C     0.09811   0.84812   0.25001   0.00000  Uiso   1.00
C623   C     0.40188   0.65189   0.75001   0.00000  Uiso   1.00
C624   C     0.15189   0.59812   0.24999   0.00000  Uiso   1.00
F625   F     0.19370   0.53316   0.02225   0.00000  Uiso   1.00
F626   F     0.05630   0.78315   0.47775   0.00000  Uiso   1.00
F627   F     0.28317   0.94371   0.52225   0.00000  Uiso   1.00
F628   F     0.28315   0.55630   0.47775   0.00000  Uiso   1.00
F629   F     0.05629   0.71683   0.52226   0.00000  Uiso   1.00
F630   F     0.44370   0.71684   0.47775   0.00000  Uiso   1.00
F631   F     0.21683   0.55629   0.52226   0.00000  Uiso   1.00
F632   F     0.21684   0.94370   0.47775   0.00000  Uiso   1.00
F633   F     0.10742   0.94442   0.22573   0.00000  Uiso   1.00
F634   F     0.39257   0.55560   0.77430   0.00000  Uiso   1.00
F635   F     0.05560   0.60743   0.22570   0.00000  Uiso   1.00
F636   F     0.30630   0.53317   0.97775   0.00000  Uiso   1.00
F637   F     0.44443   0.89259   0.77421   0.00000  Uiso   1.00
F638   F     0.39258   0.55558   0.22573   0.00000  Uiso   1.00
F639   F     0.10743   0.94440   0.77430   0.00000  Uiso   1.00
F640   F     0.44439   0.89256   0.22565   0.00000  Uiso   1.00
F641   F     0.05558   0.60742   0.77426   0.00000  Uiso   1.00
F642   F     0.10742   0.55558   0.77426   0.00000  Uiso   1.00
F643   F     0.39256   0.94439   0.22565   0.00000  Uiso   1.00
F644   F     0.05560   0.89257   0.77430   0.00000  Uiso   1.00
F645   F     0.44442   0.60742   0.22573   0.00000  Uiso   1.00
F646   F     0.39259   0.94443   0.77421   0.00000  Uiso   1.00
F647   F     0.03317   0.69371   0.02225   0.00000  Uiso   1.00
F648   F     0.10743   0.55560   0.22570   0.00000  Uiso   1.00
F649   F     0.44440   0.60743   0.77430   0.00000  Uiso   1.00
F650   F     0.05558   0.89258   0.22573   0.00000  Uiso   1.00
F651   F     0.35742   0.69442   0.72574   0.00000  Uiso   1.00
F652   F     0.14257   0.80560   0.27431   0.00000  Uiso   1.00
F653   F     0.30558   0.85742   0.72575   0.00000  Uiso   1.00
F654   F     0.19442   0.64258   0.27426   0.00000  Uiso   1.00
F655   F     0.14258   0.80558   0.72574   0.00000  Uiso   1.00
F656   F     0.35743   0.69440   0.27431   0.00000  Uiso   1.00
F657   F     0.19440   0.64257   0.72570   0.00000  Uiso   1.00
F658   F     0.03317   0.80629   0.97775   0.00000  Uiso   1.00
F659   F     0.30560   0.85743   0.27431   0.00000  Uiso   1.00
F660   F     0.35743   0.80559   0.27431   0.00000  Uiso   1.00
F661   F     0.14257   0.69440   0.72570   0.00000  Uiso   1.00
F662   F     0.30560   0.64257   0.27431   0.00000  Uiso   1.00
F663   F     0.19442   0.85742   0.72574   0.00000  Uiso   1.00
F664   F     0.14258   0.69442   0.27426   0.00000  Uiso   1.00
F665   F     0.35742   0.80558   0.72575   0.00000  Uiso   1.00
F666   F     0.19440   0.85743   0.27431   0.00000  Uiso   1.00
F667   F     0.30558   0.64258   0.72574   0.00000  Uiso   1.00
F668   F     0.19330   0.53287   0.10085   0.00000  Uiso   1.00
F669   F     0.30630   0.96683   0.02225   0.00000  Uiso   1.00
F670   F     0.30670   0.53287   0.89915   0.00000  Uiso   1.00
F671   F     0.03287   0.69330   0.10085   0.00000  Uiso   1.00
F672   F     0.03287   0.80670   0.89915   0.00000  Uiso   1.00
F673   F     0.30670   0.96713   0.10085   0.00000  Uiso   1.00
F674   F     0.19330   0.96713   0.89915   0.00000  Uiso   1.00
F675   F     0.46713   0.80670   0.10085   0.00000  Uiso   1.00
F676   F     0.46713   0.69330   0.89915   0.00000  Uiso   1.00
F677   F     0.44330   0.78287   0.60085   0.00000  Uiso   1.00
F678   F     0.05671   0.78286   0.39915   0.00000  Uiso   1.00
F679   F     0.28288   0.94330   0.60085   0.00000  Uiso   1.00
F680   F     0.19371   0.96683   0.97775   0.00000  Uiso   1.00
F681   F     0.28286   0.55671   0.39915   0.00000  Uiso   1.00
F682   F     0.05670   0.71712   0.60085   0.00000  Uiso   1.00
F683   F     0.44329   0.71714   0.39915   0.00000  Uiso   1.00
F684   F     0.21712   0.55670   0.60085   0.00000  Uiso   1.00
F685   F     0.21714   0.94329   0.39915   0.00000  Uiso   1.00
F686   F     0.46683   0.80629   0.02225   0.00000  Uiso   1.00
F687   F     0.46683   0.69371   0.97775   0.00000  Uiso   1.00
F688   F     0.44371   0.78317   0.52225   0.00000  Uiso   1.00
O689   O     0.25000   0.50000   0.25000   0.00000  Uiso   1.00
O690   O     0.25000   0.96964   0.66317   0.00000  Uiso   1.00
O691   O     0.46964   0.75000   0.33683   0.00000  Uiso   1.00
O692   O     0.03036   0.75000   0.66317   0.00000  Uiso   1.00
O693   O     0.00000   0.71964   0.83683   0.00000  Uiso   1.00
O694   O     0.00000   0.78036   0.16317   0.00000  Uiso   1.00
O695   O     0.28036   0.50000   0.83683   0.00000  Uiso   1.00
O696   O     0.21964   0.50000   0.16317   0.00000  Uiso   1.00
O697   O     0.00000   0.78036   0.83683   0.00000  Uiso   1.00
O698   O     0.00000   0.71964   0.16317   0.00000  Uiso   1.00
O699   O     0.21964   0.50000   0.83683   0.00000  Uiso   1.00
O700   O     0.25000   0.50000   0.75000   0.00000  Uiso   1.00
O701   O     0.28036   0.50000   0.16317   0.00000  Uiso   1.00
O702   O     0.20726   0.57307   0.27282   0.00000  Uiso   1.00
O703   O     0.29275   0.92693   0.72718   0.00000  Uiso   1.00
O704   O     0.42693   0.70725   0.27282   0.00000  Uiso   1.00
O705   O     0.07307   0.79274   0.72718   0.00000  Uiso   1.00
O706   O     0.29275   0.92693   0.27282   0.00000  Uiso   1.00
O707   O     0.20726   0.57307   0.72718   0.00000  Uiso   1.00
O708   O     0.07307   0.79274   0.27282   0.00000  Uiso   1.00
O709   O     0.42693   0.70725   0.72718   0.00000  Uiso   1.00
O710   O     0.20726   0.92693   0.72718   0.00000  Uiso   1.00
O711   O     0.00000   0.75000   0.25000   0.00000  Uiso   1.00
O712   O     0.29275   0.57307   0.27282   0.00000  Uiso   1.00
O713   O     0.42693   0.79274   0.72718   0.00000  Uiso   1.00
O714   O     0.07307   0.70725   0.27282   0.00000  Uiso   1.00
O715   O     0.29275   0.57307   0.72718   0.00000  Uiso   1.00
O716   O     0.20726   0.92693   0.27282   0.00000  Uiso   1.00
O717   O     0.07307   0.70725   0.72718   0.00000  Uiso   1.00
O718   O     0.42693   0.79274   0.27282   0.00000  Uiso   1.00
O719   O     0.45726   0.82307   0.77282   0.00000  Uiso   1.00
O720   O     0.04275   0.67693   0.22718   0.00000  Uiso   1.00
O721   O     0.17693   0.95725   0.77282   0.00000  Uiso   1.00
O722   O     0.00000   0.75000   0.75000   0.00000  Uiso   1.00
O723   O     0.32307   0.54274   0.22718   0.00000  Uiso   1.00
O724   O     0.04275   0.67693   0.77282   0.00000  Uiso   1.00
O725   O     0.45726   0.82307   0.22718   0.00000  Uiso   1.00
O726   O     0.32307   0.54274   0.77282   0.00000  Uiso   1.00
O727   O     0.17693   0.95725   0.22718   0.00000  Uiso   1.00
O728   O     0.45726   0.67693   0.22718   0.00000  Uiso   1.00
O729   O     0.04275   0.82307   0.77282   0.00000  Uiso   1.00
O730   O     0.17693   0.54274   0.22718   0.00000  Uiso   1.00
O731   O     0.32307   0.95725   0.77282   0.00000  Uiso   1.00
O732   O     0.04275   0.82307   0.22718   0.00000  Uiso   1.00
O733   O     0.25000   0.96964   0.33683   0.00000  Uiso   1.00
O734   O     0.45726   0.67693   0.77282   0.00000  Uiso   1.00
O735   O     0.32307   0.95725   0.22718   0.00000  Uiso   1.00
O736   O     0.17693   0.54274   0.77282   0.00000  Uiso   1.00
O737   O     0.25000   0.53036   0.66317   0.00000  Uiso   1.00
O738   O     0.03036   0.75000   0.33683   0.00000  Uiso   1.00
O739   O     0.46964   0.75000   0.66317   0.00000  Uiso   1.00
O740   O     0.25000   0.53036   0.33683   0.00000  Uiso   1.00
Zn741  Zn    0.20660   0.50000   0.21760   0.00000  Uiso   1.00
Zn742  Zn    0.04340   0.75000   0.28240   0.00000  Uiso   1.00
Zn743  Zn    0.25000   0.95660   0.71760   0.00000  Uiso   1.00
Zn744  Zn    0.25000   0.54340   0.28240   0.00000  Uiso   1.00
Zn745  Zn    0.04340   0.75000   0.71760   0.00000  Uiso   1.00
Zn746  Zn    0.45660   0.75000   0.28240   0.00000  Uiso   1.00
Zn747  Zn    0.25000   0.54340   0.71760   0.00000  Uiso   1.00
Zn748  Zn    0.25000   0.95660   0.28240   0.00000  Uiso   1.00
Zn749  Zn    0.29340   0.50000   0.78240   0.00000  Uiso   1.00
Zn750  Zn    0.00000   0.70660   0.21760   0.00000  Uiso   1.00
Zn751  Zn    0.00000   0.79340   0.78240   0.00000  Uiso   1.00
Zn752  Zn    0.29340   0.50000   0.21760   0.00000  Uiso   1.00
Zn753  Zn    0.20660   0.50000   0.78240   0.00000  Uiso   1.00
Zn754  Zn    0.00000   0.79340   0.21760   0.00000  Uiso   1.00
Zn755  Zn    0.00000   0.70660   0.78240   0.00000  Uiso   1.00
Zn756  Zn    0.45660   0.75000   0.71760   0.00000  Uiso   1.00
C757   C     0.72127   0.51641   0.04154   0.00000  Uiso   1.00
C758   C     0.52874   0.76641   0.45846   0.00000  Uiso   1.00
C759   C     0.84812   0.90189   0.74999   0.00000  Uiso   1.00
C760   C     0.90189   0.65188   0.25001   0.00000  Uiso   1.00
C761   C     0.59812   0.84811   0.75001   0.00000  Uiso   1.00
C762   C     0.84811   0.90188   0.24999   0.00000  Uiso   1.00
C763   C     0.65188   0.59811   0.74999   0.00000  Uiso   1.00
C764   C     0.59811   0.65188   0.74999   0.00000  Uiso   1.00
C765   C     0.90188   0.84811   0.24999   0.00000  Uiso   1.00
C766   C     0.65189   0.90188   0.75001   0.00000  Uiso   1.00
C767   C     0.84812   0.59811   0.25001   0.00000  Uiso   1.00
C768   C     0.90189   0.84812   0.74999   0.00000  Uiso   1.00
C769   C     0.76641   0.97127   0.54154   0.00000  Uiso   1.00
C770   C     0.59812   0.65189   0.24999   0.00000  Uiso   1.00
C771   C     0.84811   0.59812   0.75001   0.00000  Uiso   1.00
C772   C     0.65188   0.90189   0.25001   0.00000  Uiso   1.00
C773   C     0.75000   0.50000   0.10234   0.00000  Uiso   1.00
C774   C     0.75000   0.50000   0.89766   0.00000  Uiso   1.00
C775   C     0.50000   0.75000   0.10234   0.00000  Uiso   1.00
C776   C     0.50000   0.75000   0.89766   0.00000  Uiso   1.00
C777   C     0.50000   0.75000   0.60234   0.00000  Uiso   1.00
C778   C     0.50000   0.75000   0.39766   0.00000  Uiso   1.00
C779   C     0.75000   0.50000   0.60234   0.00000  Uiso   1.00
C780   C     0.76641   0.52874   0.45846   0.00000  Uiso   1.00
C781   C     0.75000   0.50000   0.39766   0.00000  Uiso   1.00
C782   C     0.52873   0.73358   0.54154   0.00000  Uiso   1.00
C783   C     0.97126   0.73359   0.45846   0.00000  Uiso   1.00
C784   C     0.73358   0.52873   0.54154   0.00000  Uiso   1.00
C785   C     0.73359   0.97126   0.45846   0.00000  Uiso   1.00
C786   C     0.72114   0.51626   0.08188   0.00000  Uiso   1.00
C787   C     0.77886   0.51626   0.91812   0.00000  Uiso   1.00
C788   C     0.51627   0.72114   0.08188   0.00000  Uiso   1.00
C789   C     0.77873   0.51641   0.95846   0.00000  Uiso   1.00
C790   C     0.51627   0.77886   0.91812   0.00000  Uiso   1.00
C791   C     0.77886   0.98374   0.08188   0.00000  Uiso   1.00
C792   C     0.72114   0.98374   0.91812   0.00000  Uiso   1.00
C793   C     0.98373   0.77886   0.08188   0.00000  Uiso   1.00
C794   C     0.98373   0.72114   0.91812   0.00000  Uiso   1.00
C795   C     0.97114   0.76627   0.58188   0.00000  Uiso   1.00
C796   C     0.52887   0.76626   0.41812   0.00000  Uiso   1.00
C797   C     0.76627   0.97114   0.58188   0.00000  Uiso   1.00
C798   C     0.76626   0.52887   0.41812   0.00000  Uiso   1.00
C799   C     0.52886   0.73373   0.58188   0.00000  Uiso   1.00
C800   C     0.51641   0.72127   0.04154   0.00000  Uiso   1.00
C801   C     0.97113   0.73374   0.41812   0.00000  Uiso   1.00
C802   C     0.73373   0.52886   0.58188   0.00000  Uiso   1.00
C803   C     0.73374   0.97113   0.41812   0.00000  Uiso   1.00
C804   C     0.75000   0.50000   0.02123   0.00000  Uiso   1.00
C805   C     0.75000   0.50000   0.97877   0.00000  Uiso   1.00
C806   C     0.50000   0.75000   0.02123   0.00000  Uiso   1.00
C807   C     0.50000   0.75000   0.97877   0.00000  Uiso   1.00
C808   C     0.50000   0.75000   0.52123   0.00000  Uiso   1.00
C809   C     0.50000   0.75000   0.47877   0.00000  Uiso   1.00
C810   C     0.75000   0.50000   0.52123   0.00000  Uiso   1.00
C811   C     0.51641   0.77873   0.95846   0.00000  Uiso   1.00
C812   C     0.75000   0.50000   0.47877   0.00000  Uiso   1.00
C813   C     0.75000   0.50000   0.35522   0.00000  Uiso   1.00
C814   C     0.75000   0.50000   0.64478   0.00000  Uiso   1.00
C815   C     0.50000   0.75000   0.35522   0.00000  Uiso   1.00
C816   C     0.50000   0.75000   0.64478   0.00000  Uiso   1.00
C817   C     0.50000   0.75000   0.85522   0.00000  Uiso   1.00
C818   C     0.50000   0.75000   0.14478   0.00000  Uiso   1.00
C819   C     0.75000   0.50000   0.85522   0.00000  Uiso   1.00
C820   C     0.75000   0.50000   0.14478   0.00000  Uiso   1.00
C821   C     0.67994   0.57006   0.25000   0.00000  Uiso   1.00
C822   C     0.77873   0.98359   0.04154   0.00000  Uiso   1.00
C823   C     0.82006   0.92994   0.75000   0.00000  Uiso   1.00
C824   C     0.92994   0.67994   0.25000   0.00000  Uiso   1.00
C825   C     0.57006   0.82006   0.75000   0.00000  Uiso   1.00
C826   C     0.82006   0.92994   0.25000   0.00000  Uiso   1.00
C827   C     0.67994   0.57006   0.75000   0.00000  Uiso   1.00
C828   C     0.57006   0.82006   0.25000   0.00000  Uiso   1.00
C829   C     0.92994   0.67994   0.75000   0.00000  Uiso   1.00
C830   C     0.67994   0.92994   0.75000   0.00000  Uiso   1.00
C831   C     0.82006   0.57006   0.25000   0.00000  Uiso   1.00
C832   C     0.92994   0.82006   0.75000   0.00000  Uiso   1.00
C833   C     0.72127   0.98359   0.95846   0.00000  Uiso   1.00
C834   C     0.57006   0.67994   0.25000   0.00000  Uiso   1.00
C835   C     0.82006   0.57006   0.75000   0.00000  Uiso   1.00
C836   C     0.67994   0.92994   0.25000   0.00000  Uiso   1.00
C837   C     0.57006   0.67994   0.75000   0.00000  Uiso   1.00
C838   C     0.92994   0.82006   0.25000   0.00000  Uiso   1.00
C839   C     0.61650   0.91022   0.23730   0.00000  Uiso   1.00
C840   C     0.88349   0.58979   0.76273   0.00000  Uiso   1.00
C841   C     0.58979   0.61651   0.23727   0.00000  Uiso   1.00
C842   C     0.91023   0.88351   0.76267   0.00000  Uiso   1.00
C843   C     0.88350   0.58978   0.23730   0.00000  Uiso   1.00
C844   C     0.98359   0.77873   0.04154   0.00000  Uiso   1.00
C845   C     0.61651   0.91021   0.76273   0.00000  Uiso   1.00
C846   C     0.91020   0.88349   0.23725   0.00000  Uiso   1.00
C847   C     0.58978   0.61649   0.76270   0.00000  Uiso   1.00
C848   C     0.61649   0.58978   0.76270   0.00000  Uiso   1.00
C849   C     0.88349   0.91020   0.23725   0.00000  Uiso   1.00
C850   C     0.58979   0.88349   0.76273   0.00000  Uiso   1.00
C851   C     0.91022   0.61650   0.23730   0.00000  Uiso   1.00
C852   C     0.88351   0.91023   0.76267   0.00000  Uiso   1.00
C853   C     0.61651   0.58979   0.23727   0.00000  Uiso   1.00
C854   C     0.91021   0.61651   0.76273   0.00000  Uiso   1.00
C855   C     0.98359   0.72127   0.95846   0.00000  Uiso   1.00
C856   C     0.58978   0.88350   0.23730   0.00000  Uiso   1.00
C857   C     0.86650   0.66022   0.73730   0.00000  Uiso   1.00
C858   C     0.63349   0.83979   0.26273   0.00000  Uiso   1.00
C859   C     0.83978   0.86650   0.73729   0.00000  Uiso   1.00
C860   C     0.66022   0.63350   0.26270   0.00000  Uiso   1.00
C861   C     0.63350   0.83978   0.73730   0.00000  Uiso   1.00
C862   C     0.86651   0.66021   0.26273   0.00000  Uiso   1.00
C863   C     0.66021   0.63349   0.73727   0.00000  Uiso   1.00
C864   C     0.83978   0.86650   0.26272   0.00000  Uiso   1.00
C865   C     0.86650   0.83978   0.26272   0.00000  Uiso   1.00
C866   C     0.97127   0.76641   0.54154   0.00000  Uiso   1.00
C867   C     0.63349   0.66021   0.73727   0.00000  Uiso   1.00
C868   C     0.83979   0.63349   0.26273   0.00000  Uiso   1.00
C869   C     0.66022   0.86650   0.73730   0.00000  Uiso   1.00
C870   C     0.63351   0.66022   0.26270   0.00000  Uiso   1.00
C871   C     0.86650   0.83978   0.73729   0.00000  Uiso   1.00
C872   C     0.66021   0.86651   0.26273   0.00000  Uiso   1.00
C873   C     0.83978   0.63350   0.73730   0.00000  Uiso   1.00
C874   C     0.59811   0.84812   0.25001   0.00000  Uiso   1.00
C875   C     0.90188   0.65189   0.75001   0.00000  Uiso   1.00
C876   C     0.65189   0.59812   0.24999   0.00000  Uiso   1.00
F877   F     0.69370   0.53316   0.02225   0.00000  Uiso   1.00
F878   F     0.55630   0.78315   0.47775   0.00000  Uiso   1.00
F879   F     0.78317   0.94371   0.52225   0.00000  Uiso   1.00
F880   F     0.78315   0.55630   0.47775   0.00000  Uiso   1.00
F881   F     0.55629   0.71683   0.52226   0.00000  Uiso   1.00
F882   F     0.94370   0.71684   0.47775   0.00000  Uiso   1.00
F883   F     0.71683   0.55629   0.52226   0.00000  Uiso   1.00
F884   F     0.71684   0.94370   0.47775   0.00000  Uiso   1.00
F885   F     0.60742   0.94442   0.22573   0.00000  Uiso   1.00
F886   F     0.89257   0.55560   0.77430   0.00000  Uiso   1.00
F887   F     0.55560   0.60743   0.22570   0.00000  Uiso   1.00
F888   F     0.80630   0.53317   0.97775   0.00000  Uiso   1.00
F889   F     0.94443   0.89259   0.77421   0.00000  Uiso   1.00
F890   F     0.89258   0.55558   0.22573   0.00000  Uiso   1.00
F891   F     0.60743   0.94440   0.77430   0.00000  Uiso   1.00
F892   F     0.94439   0.89256   0.22565   0.00000  Uiso   1.00
F893   F     0.55558   0.60742   0.77426   0.00000  Uiso   1.00
F894   F     0.60742   0.55558   0.77426   0.00000  Uiso   1.00
F895   F     0.89256   0.94439   0.22565   0.00000  Uiso   1.00
F896   F     0.55560   0.89257   0.77430   0.00000  Uiso   1.00
F897   F     0.94442   0.60742   0.22573   0.00000  Uiso   1.00
F898   F     0.89259   0.94443   0.77421   0.00000  Uiso   1.00
F899   F     0.53317   0.69371   0.02225   0.00000  Uiso   1.00
F900   F     0.60743   0.55560   0.22570   0.00000  Uiso   1.00
F901   F     0.94440   0.60743   0.77430   0.00000  Uiso   1.00
F902   F     0.55558   0.89258   0.22573   0.00000  Uiso   1.00
F903   F     0.85742   0.69442   0.72574   0.00000  Uiso   1.00
F904   F     0.64257   0.80560   0.27431   0.00000  Uiso   1.00
F905   F     0.80558   0.85742   0.72575   0.00000  Uiso   1.00
F906   F     0.69442   0.64258   0.27426   0.00000  Uiso   1.00
F907   F     0.64258   0.80558   0.72574   0.00000  Uiso   1.00
F908   F     0.85743   0.69440   0.27431   0.00000  Uiso   1.00
F909   F     0.69440   0.64257   0.72570   0.00000  Uiso   1.00
F910   F     0.53317   0.80629   0.97775   0.00000  Uiso   1.00
F911   F     0.80560   0.85743   0.27431   0.00000  Uiso   1.00
F912   F     0.85743   0.80559   0.27431   0.00000  Uiso   1.00
F913   F     0.64257   0.69440   0.72570   0.00000  Uiso   1.00
F914   F     0.80560   0.64257   0.27431   0.00000  Uiso   1.00
F915   F     0.69442   0.85742   0.72574   0.00000  Uiso   1.00
F916   F     0.64258   0.69442   0.27426   0.00000  Uiso   1.00
F917   F     0.85742   0.80558   0.72575   0.00000  Uiso   1.00
F918   F     0.69440   0.85743   0.27431   0.00000  Uiso   1.00
F919   F     0.80558   0.64258   0.72574   0.00000  Uiso   1.00
F920   F     0.69330   0.53287   0.10085   0.00000  Uiso   1.00
F921   F     0.80630   0.96683   0.02225   0.00000  Uiso   1.00
F922   F     0.80670   0.53287   0.89915   0.00000  Uiso   1.00
F923   F     0.53287   0.69330   0.10085   0.00000  Uiso   1.00
F924   F     0.53287   0.80670   0.89915   0.00000  Uiso   1.00
F925   F     0.80670   0.96713   0.10085   0.00000  Uiso   1.00
F926   F     0.69330   0.96713   0.89915   0.00000  Uiso   1.00
F927   F     0.96713   0.80670   0.10085   0.00000  Uiso   1.00
F928   F     0.96713   0.69330   0.89915   0.00000  Uiso   1.00
F929   F     0.94330   0.78287   0.60085   0.00000  Uiso   1.00
F930   F     0.55671   0.78286   0.39915   0.00000  Uiso   1.00
F931   F     0.78288   0.94330   0.60085   0.00000  Uiso   1.00
F932   F     0.69371   0.96683   0.97775   0.00000  Uiso   1.00
F933   F     0.78286   0.55671   0.39915   0.00000  Uiso   1.00
F934   F     0.55670   0.71712   0.60085   0.00000  Uiso   1.00
F935   F     0.94329   0.71714   0.39915   0.00000  Uiso   1.00
F936   F     0.71712   0.55670   0.60085   0.00000  Uiso   1.00
F937   F     0.71714   0.94329   0.39915   0.00000  Uiso   1.00
F938   F     0.96683   0.80629   0.02225   0.00000  Uiso   1.00
F939   F     0.96683   0.69371   0.97775   0.00000  Uiso   1.00
F940   F     0.94371   0.78317   0.52225   0.00000  Uiso   1.00
O941   O     0.75000   0.50000   0.25000   0.00000  Uiso   1.00
O942   O     0.75000   0.96964   0.66317   0.00000  Uiso   1.00
O943   O     0.96964   0.75000   0.33683   0.00000  Uiso   1.00
O944   O     0.53036   0.75000   0.66317   0.00000  Uiso   1.00
O945   O     0.50000   0.71964   0.83683   0.00000  Uiso   1.00
O946   O     0.50000   0.78036   0.16317   0.00000  Uiso   1.00
O947   O     0.78036   0.50000   0.83683   0.00000  Uiso   1.00
O948   O     0.71964   0.50000   0.16317   0.00000  Uiso   1.00
O949   O     0.50000   0.78036   0.83683   0.00000  Uiso   1.00
O950   O     0.50000   0.71964   0.16317   0.00000  Uiso   1.00
O951   O     0.71964   0.50000   0.83683   0.00000  Uiso   1.00
O952   O     0.75000   0.50000   0.75000   0.00000  Uiso   1.00
O953   O     0.78036   0.50000   0.16317   0.00000  Uiso   1.00
O954   O     0.70726   0.57307   0.27282   0.00000  Uiso   1.00
O955   O     0.79275   0.92693   0.72718   0.00000  Uiso   1.00
O956   O     0.92693   0.70725   0.27282   0.00000  Uiso   1.00
O957   O     0.57307   0.79274   0.72718   0.00000  Uiso   1.00
O958   O     0.79275   0.92693   0.27282   0.00000  Uiso   1.00
O959   O     0.70726   0.57307   0.72718   0.00000  Uiso   1.00
O960   O     0.57307   0.79274   0.27282   0.00000  Uiso   1.00
O961   O     0.92693   0.70725   0.72718   0.00000  Uiso   1.00
O962   O     0.70726   0.92693   0.72718   0.00000  Uiso   1.00
O963   O     0.50000   0.75000   0.25000   0.00000  Uiso   1.00
O964   O     0.79275   0.57307   0.27282   0.00000  Uiso   1.00
O965   O     0.92693   0.79274   0.72718   0.00000  Uiso   1.00
O966   O     0.57307   0.70725   0.27282   0.00000  Uiso   1.00
O967   O     0.79275   0.57307   0.72718   0.00000  Uiso   1.00
O968   O     0.70726   0.92693   0.27282   0.00000  Uiso   1.00
O969   O     0.57307   0.70725   0.72718   0.00000  Uiso   1.00
O970   O     0.92693   0.79274   0.27282   0.00000  Uiso   1.00
O971   O     0.95726   0.82307   0.77282   0.00000  Uiso   1.00
O972   O     0.54275   0.67693   0.22718   0.00000  Uiso   1.00
O973   O     0.67693   0.95725   0.77282   0.00000  Uiso   1.00
O974   O     0.50000   0.75000   0.75000   0.00000  Uiso   1.00
O975   O     0.82307   0.54274   0.22718   0.00000  Uiso   1.00
O976   O     0.54275   0.67693   0.77282   0.00000  Uiso   1.00
O977   O     0.95726   0.82307   0.22718   0.00000  Uiso   1.00
O978   O     0.82307   0.54274   0.77282   0.00000  Uiso   1.00
O979   O     0.67693   0.95725   0.22718   0.00000  Uiso   1.00
O980   O     0.95726   0.67693   0.22718   0.00000  Uiso   1.00
O981   O     0.54275   0.82307   0.77282   0.00000  Uiso   1.00
O982   O     0.67693   0.54274   0.22718   0.00000  Uiso   1.00
O983   O     0.82307   0.95725   0.77282   0.00000  Uiso   1.00
O984   O     0.54275   0.82307   0.22718   0.00000  Uiso   1.00
O985   O     0.75000   0.96964   0.33683   0.00000  Uiso   1.00
O986   O     0.95726   0.67693   0.77282   0.00000  Uiso   1.00
O987   O     0.82307   0.95725   0.22718   0.00000  Uiso   1.00
O988   O     0.67693   0.54274   0.77282   0.00000  Uiso   1.00
O989   O     0.75000   0.53036   0.66317   0.00000  Uiso   1.00
O990   O     0.53036   0.75000   0.33683   0.00000  Uiso   1.00
O991   O     0.96964   0.75000   0.66317   0.00000  Uiso   1.00
O992   O     0.75000   0.53036   0.33683   0.00000  Uiso   1.00
Zn993  Zn    0.70660   0.50000   0.21760   0.00000  Uiso   1.00
Zn994  Zn    0.54340   0.75000   0.28240   0.00000  Uiso   1.00
Zn995  Zn    0.75000   0.95660   0.71760   0.00000  Uiso   1.00
Zn996  Zn    0.75000   0.54340   0.28240   0.00000  Uiso   1.00
Zn997  Zn    0.54340   0.75000   0.71760   0.00000  Uiso   1.00
Zn998  Zn    0.95660   0.75000   0.28240   0.00000  Uiso   1.00
Zn999  Zn    0.75000   0.54340   0.71760   0.00000  Uiso   1.00
Zn1000 Zn    0.75000   0.95660   0.28240   0.00000  Uiso   1.00
Zn1001 Zn    0.79340   0.50000   0.78240   0.00000  Uiso   1.00
Zn1002 Zn    0.50000   0.70660   0.21760   0.00000  Uiso   1.00
Zn1003 Zn    0.50000   0.79340   0.78240   0.00000  Uiso   1.00
Zn1004 Zn    0.79340   0.50000   0.21760   0.00000  Uiso   1.00
Zn1005 Zn    0.70660   0.50000   0.78240   0.00000  Uiso   1.00
Zn1006 Zn    0.50000   0.79340   0.21760   0.00000  Uiso   1.00
Zn1007 Zn    0.50000   0.70660   0.78240   0.00000  Uiso   1.00
Zn1008 Zn    0.95660   0.75000   0.71760   0.00000  Uiso   1.00
loop_
_geom_bond_atom_site_label_1
_geom_bond_atom_site_label_2
_geom_bond_distance
_geom_bond_site_symmetry_2
_ccdc_geom_bond_type
C1     C30     1.392   .     A
C1     F121    1.358   .     S
C1     C48     1.402   .     S
C2     C40     1.392   .     A
C2     F122    1.358   .     S
C2     C53     1.402   .     S
C3     C103    1.405   .     A
C3     C96     1.405   .     A
C3     C67     1.456   .     S
C4     C68     1.456   .     S
C4     C106    1.405   .     A
C4     C95     1.405   .     A
C5     C94     1.405   .     A
C5     C69     1.456   .     S
C5     C105    1.405   .     A
C6     C93     1.405   .     A
C6     C70     1.456   .     S
C6     C108    1.405   .     A
C7     C71     1.456   .     S
C7     C92     1.405   .     A
C7     C107    1.405   .     A
C8     C81     1.456   .     S
C8     C111    1.405   .     A
C8     C91     1.405   .     A
C9     C109    1.405   .     A
C9     C82     1.456   .     S
C9     C90     1.405   .     A
C10    C89     1.405   .     A
C10    C113    1.405   .     A
C10    C74     1.456   .     S
C11    C87     1.405   .     A
C11    C112    1.405   .     A
C11    C75     1.456   .     S
C12    C86     1.405   .     A
C12    C115    1.405   .     A
C12    C76     1.456   .     S
C13    C41     1.392   .     A
C13    F123    1.358   .     S
C13    C558    1.402   .     A
C14    C114    1.405   .     A
C14    C85     1.405   .     A
C14    C78     1.456   .     S
C15    C79     1.456   .     S
C15    C117    1.405   .     A
C15    C84     1.405   .     A
C16    C116    1.405   .     A
C16    C83     1.405   .     A
C16    C80     1.456   .     S
C17    C64     1.465   .     S
C17    C30     1.406   .     A
C17    C539    1.406   1_545 S
C18    C31     1.406   .     A
C18    C540    1.406   1_545 S
C18    C63     1.465   .     S
C19    C289    1.406   1_455 A
C19    C32     1.406   .     S
C19    C62     1.465   .     S
C20    C34     1.406   .     A
C20    C290    1.406   1_455 S
C20    C61     1.465   .     S
C21    C291    1.406   1_455 A
C21    C43     1.406   .     S
C21    C60     1.465   .     S
C22    C59     1.465   .     S
C22    C297    1.406   1_455 A
C22    C40     1.406   .     S
C23    C46     1.406   .     A
C23    C58     1.465   .     S
C23    C545    1.406   1_545 S
C24    C42     1.392   .     A
C24    F124    1.358   .     S
C24    C56     1.402   .     S
C25    C57     1.465   .     S
C25    C551    1.406   1_545 A
C25    C42     1.406   .     S
C26    C43     1.392   .     A
C26    F125    1.358   .     S
C26    C52     1.402   .     S
C27    F126    1.358   .     S
C27    C45     1.392   .     A
C27    C305    1.402   .     A
C28    C46     1.392   .     A
C28    F127    1.358   .     S
C28    C54     1.402   .     S
C29    C47     1.392   .     A
C29    F128    1.358   .     S
C29    C560    1.402   .     A
C30    F164    1.358   .     S
C31    C33     1.392   .     A
C31    F166    1.358   .     S
C32    C44     1.392   .     A
C32    F167    1.358   .     S
C33    C49     1.402   .     A
C33    F132    1.358   .     S
C34    C55     1.392   .     A
C34    F168    1.358   .     S
C35    C66     1.392   .     A
C35    F169    1.358   .     S
C35    C521    1.406   .     S
C36    C77     1.392   .     A
C36    F170    1.358   .     S
C36    C522    1.406   .     S
C37    C88     1.392   .     A
C37    C271    1.406   .     A
C37    F171    1.358   .     S
C38    C99     1.392   .     A
C38    F172    1.358   .     S
C38    C272    1.406   .     S
C39    F173    1.358   .     S
C39    C110    1.392   .     A
C39    C273    1.406   .     A
C40    F174    1.358   .     S
C41    F175    1.358   .     S
C41    C527    1.406   .     S
C42    F177    1.358   .     S
C43    F178    1.358   .     S
C44    F143    1.358   .     S
C44    C50     1.402   .     S
C45    F179    1.358   .     S
C45    C274    1.406   .     A
C46    F180    1.358   .     S
C47    F181    1.358   .     S
C47    C529    1.406   .     A
C48    C570    1.402   1_545 A
C48    C49     1.465   1_554 S
C49    C48     1.465   1_556 S
C49    C581    1.402   1_545 S
C50    C340    1.402   1_455 A
C50    C51     1.465   1_554 S
C51    C351    1.402   1_455 A
C51    C50     1.465   1_556 S
C51    C55     1.402   .     S
C52    C362    1.402   1_455 A
C52    C53     1.465   .     S
C53    C279    1.402   1_455 A
C54    C517    1.402   1_545 A
C54    C56     1.465   .     S
C55    F154    1.358   .     S
C56    C533    1.402   1_545 A
C57    O733    1.282   1_545 A
C57    O236    1.282   .     S
C58    O233    1.282   .     A
C58    O690    1.282   1_545 S
C59    O439    1.282   1_455 A
C59    O234    1.282   .     S
C60    O188    1.282   .     A
C60    O487    1.282   1_455 S
C61    O189    1.282   .     S
C61    O193    1.282   .     S
C62    O190    1.282   .     A
C62    O194    1.282   .     S
C63    O191    1.282   .     A
C63    O195    1.282   .     A
C64    O192    1.282   .     S
C64    O197    1.282   .     S
C65    O198    1.280   .     A
C65    O226    1.280   .     A
C65    C120    1.456   .     S
C66    F165    1.358   .     S
C66    C552    1.402   .     A
C67    O199    1.280   .     A
C67    O227    1.280   .     A
C68    O200    1.280   .     A
C68    O224    1.280   .     A
C69    O201    1.280   .     A
C69    O225    1.280   .     A
C70    O231    1.280   .     A
C70    O202    1.280   .     A
C71    O203    1.280   .     A
C71    O232    1.280   .     A
C72    O228    1.280   .     A
C72    C118    1.456   .     S
C72    O204    1.280   .     A
C73    C119    1.456   .     S
C73    O230    1.280   .     A
C73    O205    1.280   .     A
C74    O206    1.280   .     A
C74    O217    1.280   .     A
C75    O219    1.280   .     A
C75    O208    1.280   .     A
C76    O209    1.280   .     A
C76    O215    1.280   .     A
C77    F176    1.358   .     S
C77    C553    1.402   .     S
C78    O210    1.280   .     A
C78    O216    1.280   .     A
C79    O222    1.280   .     A
C79    O211    1.280   .     A
C80    O212    1.280   .     A
C80    O223    1.280   .     A
C81    O213    1.280   .     A
C81    O220    1.280   .     A
C82    O221    1.280   .     A
C82    O214    1.280   .     A
C83    F129    1.359   .     S
C83    C100    1.387   .     A
C84    C98     1.387   .     A
C84    F130    1.359   .     S
C85    F131    1.359   .     S
C85    C97     1.387   .     A
C86    F133    1.358   .     S
C86    C96     1.387   .     A
C87    C95     1.387   .     A
C87    F134    1.359   .     S
C88    F182    1.358   .     S
C88    C302    1.402   .     A
C89    F135    1.359   .     S
C89    C94     1.387   .     A
C90    C93     1.387   .     A
C90    F136    1.358   .     S
C91    F137    1.359   .     S
C91    C92     1.387   .     A
C92    F138    1.359   .     S
C93    F139    1.358   .     S
C94    F140    1.359   .     S
C95    F141    1.359   .     S
C96    F142    1.358   .     S
C97    F144    1.359   .     S
C97    C120    1.405   .     A
C98    C119    1.405   .     A
C98    F145    1.359   .     S
C99    F183    1.358   .     S
C99    C303    1.402   .     A
C100   C118    1.405   .     A
C100   F146    1.359   .     S
C101   C119    1.405   .     A
C101   F147    1.359   .     S
C101   C117    1.387   .     A
C102   F148    1.359   .     S
C102   C118    1.405   .     A
C102   C116    1.387   .     A
C103   C115    1.387   .     A
C103   F149    1.358   .     S
C104   F150    1.359   .     S
C104   C120    1.405   .     A
C104   C114    1.387   .     A
C105   C113    1.387   .     A
C105   F151    1.359   .     S
C106   C112    1.387   .     A
C106   F152    1.359   .     S
C107   C111    1.387   .     A
C107   F153    1.358   .     S
C108   C109    1.387   .     A
C108   F155    1.358   .     S
C109   F156    1.358   .     S
C110   C304    1.402   .     A
C110   F184    1.358   .     S
C111   F157    1.358   .     S
C112   F158    1.358   .     S
C113   F159    1.359   .     S
C114   F160    1.359   .     S
C115   F161    1.358   .     S
C116   F162    1.359   .     S
C117   F163    1.359   .     S
O185   Zn240   1.946   .     S
O185   Zn237   1.946   .     S
O185   Zn248   1.946   .     S
O185   Zn748   1.946   1_545 S
O186   Zn239   1.938   .     S
O186   C562    1.282   .     S
O187   C311    1.282   .     A
O187   Zn242   1.938   .     S
O188   Zn241   1.938   .     S
O189   Zn251   1.938   .     S
O190   Zn250   1.938   .     S
O191   Zn245   1.938   .     S
O192   Zn237   1.938   .     S
O193   Zn247   1.938   .     S
O194   Zn246   1.938   .     S
O195   Zn249   1.938   .     S
O196   Zn245   1.946   .     S
O196   Zn249   1.946   .     S
O196   Zn743   1.946   1_545 S
O196   Zn243   1.946   .     S
O197   Zn248   1.938   .     S
O198   Zn240   1.938   .     S
O199   Zn239   1.938   .     S
O200   Zn242   1.938   .     S
O201   Zn241   1.938   .     S
O202   Zn244   1.938   .     S
O203   Zn243   1.938   .     S
O204   Zn238   1.938   .     S
O205   Zn252   1.938   .     S
O206   Zn239   1.938   .     S
O207   Zn494   1.946   1_455 S
O207   Zn246   1.946   .     S
O207   Zn250   1.946   .     S
O207   Zn238   1.946   .     S
O208   Zn240   1.938   .     S
O209   Zn252   1.938   .     S
O210   Zn238   1.938   .     S
O211   Zn243   1.938   .     S
O212   Zn244   1.938   .     S
O213   Zn241   1.938   .     S
O214   Zn242   1.938   .     S
O215   Zn499   1.938   .     S
O216   Zn246   1.938   .     S
O217   Zn753   1.938   .     S
O218   Zn241   1.946   .     S
O218   Zn247   1.946   .     S
O218   Zn251   1.946   .     S
O218   Zn504   1.946   1_455 S
O219   Zn248   1.938   .     S
O220   Zn251   1.938   .     S
O221   Zn502   1.938   .     S
O222   Zn245   1.938   .     S
O223   Zn741   1.938   .     S
O224   Zn498   1.938   .     S
O225   Zn247   1.938   .     S
O226   Zn237   1.938   .     S
O227   Zn749   1.938   .     S
O228   Zn250   1.938   .     S
O229   Zn244   1.938   .     S
O229   C561    1.282   .     A
O230   Zn503   1.938   .     S
O231   Zn752   1.938   .     S
O232   Zn249   1.938   .     S
O233   Zn243   1.938   .     S
O234   Zn238   1.938   .     S
O235   Zn252   1.938   .     S
O235   C312    1.282   .     S
O236   Zn240   1.938   .     S
Zn237  O727    1.938   1_545 S
Zn239  O700    1.946   .     S
Zn242  O459    1.946   .     S
Zn244  O689    1.946   .     S
Zn245  O731    1.938   1_545 S
Zn246  O476    1.938   1_455 S
Zn247  O467    1.938   1_455 S
Zn248  O735    1.938   1_545 S
Zn249  O721    1.938   1_545 S
Zn250  O473    1.938   1_455 S
Zn251  O482    1.938   1_455 S
Zn252  O470    1.946   .     S
C253   C282    1.392   .     A
C253   F373    1.358   .     S
C253   C300    1.402   .     S
C254   C292    1.392   .     A
C254   F374    1.358   .     S
C254   C305    1.402   .     S
C255   C355    1.405   .     A
C255   C348    1.405   .     A
C255   C319    1.456   .     S
C256   C320    1.456   .     S
C256   C358    1.405   .     A
C256   C347    1.405   .     A
C257   C346    1.405   .     A
C257   C321    1.456   .     S
C257   C357    1.405   .     A
C258   C345    1.405   .     A
C258   C322    1.456   .     S
C258   C360    1.405   .     A
C259   C323    1.456   .     S
C259   C344    1.405   .     A
C259   C359    1.405   .     A
C260   C333    1.456   .     S
C260   C363    1.405   .     A
C260   C343    1.405   .     A
C261   C361    1.405   .     A
C261   C334    1.456   .     S
C261   C342    1.405   .     A
C262   C341    1.405   .     A
C262   C365    1.405   .     A
C262   C326    1.456   .     S
C263   C339    1.405   .     A
C263   C364    1.405   .     A
C263   C327    1.456   .     S
C264   C338    1.405   .     A
C264   C367    1.405   .     A
C264   C328    1.456   .     S
C265   C293    1.392   .     A
C265   F375    1.358   .     S
C265   C810    1.402   .     A
C266   C366    1.405   .     A
C266   C337    1.405   .     A
C266   C330    1.456   .     S
C267   C331    1.456   .     S
C267   C369    1.405   .     A
C267   C336    1.405   .     A
C268   C368    1.405   .     A
C268   C335    1.405   .     A
C268   C332    1.456   .     S
C269   C316    1.465   .     S
C269   C282    1.406   .     A
C269   C791    1.406   1_545 S
C270   C283    1.406   .     A
C270   C792    1.406   1_545 S
C270   C315    1.465   .     S
C271   C284    1.406   .     S
C271   C314    1.465   .     S
C272   C286    1.406   .     A
C272   C313    1.465   .     S
C273   C295    1.406   .     S
C273   C312    1.465   .     S
C274   C311    1.465   .     S
C274   C292    1.406   .     S
C275   C298    1.406   .     A
C275   C310    1.465   .     S
C275   C797    1.406   1_545 S
C276   C294    1.392   .     A
C276   F376    1.358   .     S
C276   C308    1.402   .     S
C277   C309    1.465   .     S
C277   C803    1.406   1_545 A
C277   C294    1.406   .     S
C278   C295    1.392   .     A
C278   F377    1.358   .     S
C278   C304    1.402   .     S
C279   F378    1.358   .     S
C279   C297    1.392   .     A
C279   C53     1.402   1_655 A
C280   C298    1.392   .     A
C280   F379    1.358   .     S
C280   C306    1.402   .     S
C281   C299    1.392   .     A
C281   F380    1.358   .     S
C281   C812    1.402   .     A
C282   F416    1.358   .     S
C283   C285    1.392   .     A
C283   F418    1.358   .     S
C284   C296    1.392   .     A
C284   F419    1.358   .     S
C285   C301    1.402   .     A
C285   F384    1.358   .     S
C286   C307    1.392   .     A
C286   F420    1.358   .     S
C287   C318    1.392   .     A
C287   F421    1.358   .     S
C287   C773    1.406   .     S
C288   C329    1.392   .     A
C288   F422    1.358   .     S
C288   C774    1.406   .     S
C289   C340    1.392   .     A
C289   C19     1.406   1_655 A
C289   F423    1.358   .     S
C290   C351    1.392   .     A
C290   F424    1.358   .     S
C290   C20     1.406   1_655 S
C291   F425    1.358   .     S
C291   C362    1.392   .     A
C291   C21     1.406   1_655 A
C292   F426    1.358   .     S
C293   F427    1.358   .     S
C293   C779    1.406   .     S
C294   F429    1.358   .     S
C295   F430    1.358   .     S
C296   F395    1.358   .     S
C296   C302    1.402   .     S
C297   F431    1.358   .     S
C297   C22     1.406   1_655 A
C298   F432    1.358   .     S
C299   F433    1.358   .     S
C299   C781    1.406   .     A
C300   C822    1.402   1_545 A
C300   C301    1.465   1_554 S
C301   C300    1.465   1_556 S
C301   C833    1.402   1_545 S
C302   C303    1.465   1_554 S
C303   C302    1.465   1_556 S
C303   C307    1.402   .     S
C304   C305    1.465   .     S
C306   C769    1.402   1_545 A
C306   C308    1.465   .     S
C307   F406    1.358   .     S
C308   C785    1.402   1_545 A
C309   O985    1.282   1_545 A
C309   O488    1.282   .     S
C310   O485    1.282   .     A
C310   O942    1.282   1_545 S
C311   O486    1.282   .     S
C312   O440    1.282   .     A
C313   O441    1.282   .     S
C313   O445    1.282   .     S
C314   O442    1.282   .     A
C314   O446    1.282   .     S
C315   O443    1.282   .     A
C315   O447    1.282   .     A
C316   O444    1.282   .     S
C316   O449    1.282   .     S
C317   O450    1.280   .     A
C317   O478    1.280   .     A
C317   C372    1.456   .     S
C318   F417    1.358   .     S
C318   C804    1.402   .     A
C319   O451    1.280   .     A
C319   O479    1.280   .     A
C320   O452    1.280   .     A
C320   O476    1.280   .     A
C321   O453    1.280   .     A
C321   O477    1.280   .     A
C322   O483    1.280   .     A
C322   O454    1.280   .     A
C323   O455    1.280   .     A
C323   O484    1.280   .     A
C324   O480    1.280   .     A
C324   C370    1.456   .     S
C324   O456    1.280   .     A
C325   C371    1.456   .     S
C325   O482    1.280   .     A
C325   O457    1.280   .     A
C326   O458    1.280   .     A
C326   O469    1.280   .     A
C327   O471    1.280   .     A
C327   O460    1.280   .     A
C328   O461    1.280   .     A
C328   O467    1.280   .     A
C329   F428    1.358   .     S
C329   C805    1.402   .     S
C330   O462    1.280   .     A
C330   O468    1.280   .     A
C331   O474    1.280   .     A
C331   O463    1.280   .     A
C332   O464    1.280   .     A
C332   O475    1.280   .     A
C333   O465    1.280   .     A
C333   O472    1.280   .     A
C334   O473    1.280   .     A
C334   O466    1.280   .     A
C335   F381    1.359   .     S
C335   C352    1.387   .     A
C336   C350    1.387   .     A
C336   F382    1.359   .     S
C337   F383    1.359   .     S
C337   C349    1.387   .     A
C338   F385    1.358   .     S
C338   C348    1.387   .     A
C339   C347    1.387   .     A
C339   F386    1.359   .     S
C340   F434    1.358   .     S
C340   C50     1.402   1_655 A
C341   F387    1.359   .     S
C341   C346    1.387   .     A
C342   C345    1.387   .     A
C342   F388    1.358   .     S
C343   F389    1.359   .     S
C343   C344    1.387   .     A
C344   F390    1.359   .     S
C345   F391    1.358   .     S
C346   F392    1.359   .     S
C347   F393    1.359   .     S
C348   F394    1.358   .     S
C349   F396    1.359   .     S
C349   C372    1.405   .     A
C350   C371    1.405   .     A
C350   F397    1.359   .     S
C351   F435    1.358   .     S
C351   C51     1.402   1_655 A
C352   C370    1.405   .     A
C352   F398    1.359   .     S
C353   C371    1.405   .     A
C353   F399    1.359   .     S
C353   C369    1.387   .     A
C354   F400    1.359   .     S
C354   C370    1.405   .     A
C354   C368    1.387   .     A
C355   C367    1.387   .     A
C355   F401    1.358   .     S
C356   F402    1.359   .     S
C356   C372    1.405   .     A
C356   C366    1.387   .     A
C357   C365    1.387   .     A
C357   F403    1.359   .     S
C358   C364    1.387   .     A
C358   F404    1.359   .     S
C359   C363    1.387   .     A
C359   F405    1.358   .     S
C360   C361    1.387   .     A
C360   F407    1.358   .     S
C361   F408    1.358   .     S
C362   C52     1.402   1_655 A
C362   F436    1.358   .     S
C363   F409    1.358   .     S
C364   F410    1.358   .     S
C365   F411    1.359   .     S
C366   F412    1.359   .     S
C367   F413    1.358   .     S
C368   F414    1.359   .     S
C369   F415    1.359   .     S
O437   Zn492   1.946   .     S
O437   Zn489   1.946   .     S
O437   Zn500   1.946   .     S
O437   Zn1000  1.946   1_545 S
O438   Zn491   1.938   .     S
O438   C814    1.282   .     S
O439   C59     1.282   1_655 A
O439   Zn494   1.938   .     S
O440   Zn493   1.938   .     S
O441   Zn503   1.938   .     S
O442   Zn502   1.938   .     S
O443   Zn497   1.938   .     S
O444   Zn489   1.938   .     S
O445   Zn499   1.938   .     S
O446   Zn498   1.938   .     S
O447   Zn501   1.938   .     S
O448   Zn497   1.946   .     S
O448   Zn501   1.946   .     S
O448   Zn995   1.946   1_545 S
O448   Zn495   1.946   .     S
O449   Zn500   1.938   .     S
O450   Zn492   1.938   .     S
O451   Zn491   1.938   .     S
O452   Zn494   1.938   .     S
O453   Zn493   1.938   .     S
O454   Zn496   1.938   .     S
O455   Zn495   1.938   .     S
O456   Zn490   1.938   .     S
O457   Zn504   1.938   .     S
O458   Zn491   1.938   .     S
O459   Zn498   1.946   .     S
O459   Zn502   1.946   .     S
O459   Zn490   1.946   .     S
O460   Zn492   1.938   .     S
O461   Zn504   1.938   .     S
O462   Zn490   1.938   .     S
O463   Zn495   1.938   .     S
O464   Zn496   1.938   .     S
O465   Zn493   1.938   .     S
O466   Zn494   1.938   .     S
O467   Zn247   1.938   1_655 S
O468   Zn498   1.938   .     S
O469   Zn1005  1.938   .     S
O470   Zn493   1.946   .     S
O470   Zn499   1.946   .     S
O470   Zn503   1.946   .     S
O471   Zn500   1.938   .     S
O472   Zn503   1.938   .     S
O473   Zn250   1.938   1_655 S
O474   Zn497   1.938   .     S
O475   Zn993   1.938   .     S
O476   Zn246   1.938   1_655 S
O477   Zn499   1.938   .     S
O478   Zn489   1.938   .     S
O479   Zn1001  1.938   .     S
O480   Zn502   1.938   .     S
O481   Zn496   1.938   .     S
O481   C813    1.282   .     A
O482   Zn251   1.938   1_655 S
O483   Zn1004  1.938   .     S
O484   Zn501   1.938   .     S
O485   Zn495   1.938   .     S
O486   Zn490   1.938   .     S
O487   Zn504   1.938   .     S
O487   C60     1.282   1_655 S
O488   Zn492   1.938   .     S
Zn489  O979    1.938   1_545 S
Zn491  O952    1.946   .     S
Zn494  O207    1.946   1_655 S
Zn496  O941    1.946   .     S
Zn497  O983    1.938   1_545 S
Zn500  O987    1.938   1_545 S
Zn501  O973    1.938   1_545 S
Zn504  O218    1.946   1_655 S
C505   C534    1.392   .     A
C505   F625    1.358   .     S
C505   C552    1.402   .     S
C506   C544    1.392   .     A
C506   F626    1.358   .     S
C506   C557    1.402   .     S
C507   C607    1.405   .     A
C507   C600    1.405   .     A
C507   C571    1.456   .     S
C508   C572    1.456   .     S
C508   C610    1.405   .     A
C508   C599    1.405   .     A
C509   C598    1.405   .     A
C509   C573    1.456   .     S
C509   C609    1.405   .     A
C510   C597    1.405   .     A
C510   C574    1.456   .     S
C510   C612    1.405   .     A
C511   C575    1.456   .     S
C511   C596    1.405   .     A
C511   C611    1.405   .     A
C512   C585    1.456   .     S
C512   C615    1.405   .     A
C512   C595    1.405   .     A
C513   C613    1.405   .     A
C513   C586    1.456   .     S
C513   C594    1.405   .     A
C514   C593    1.405   .     A
C514   C617    1.405   .     A
C514   C578    1.456   .     S
C515   C591    1.405   .     A
C515   C616    1.405   .     A
C515   C579    1.456   .     S
C516   C590    1.405   .     A
C516   C619    1.405   .     A
C516   C580    1.456   .     S
C517   C545    1.392   .     A
C517   F627    1.358   .     S
C517   C54     1.402   1_565 A
C518   C618    1.405   .     A
C518   C589    1.405   .     A
C518   C582    1.456   .     S
C519   C583    1.456   .     S
C519   C621    1.405   .     A
C519   C588    1.405   .     A
C520   C620    1.405   .     A
C520   C587    1.405   .     A
C520   C584    1.456   .     S
C521   C568    1.465   .     S
C521   C534    1.406   .     A
C522   C535    1.406   .     A
C522   C567    1.465   .     S
C523   C793    1.406   1_455 A
C523   C536    1.406   .     S
C523   C566    1.465   .     S
C524   C538    1.406   .     A
C524   C794    1.406   1_455 S
C524   C565    1.465   .     S
C525   C795    1.406   1_455 A
C525   C547    1.406   .     S
C525   C564    1.465   .     S
C526   C563    1.465   .     S
C526   C801    1.406   1_455 A
C526   C544    1.406   .     S
C527   C550    1.406   .     A
C527   C562    1.465   .     S
C528   C546    1.392   .     A
C528   F628    1.358   .     S
C528   C560    1.402   .     S
C529   C561    1.465   .     S
C529   C546    1.406   .     S
C530   C547    1.392   .     A
C530   F629    1.358   .     S
C530   C556    1.402   .     S
C531   F630    1.358   .     S
C531   C549    1.392   .     A
C531   C809    1.402   .     A
C532   C550    1.392   .     A
C532   F631    1.358   .     S
C532   C558    1.402   .     S
C533   C551    1.392   .     A
C533   F632    1.358   .     S
C533   C56     1.402   1_565 A
C534   F668    1.358   .     S
C535   C537    1.392   .     A
C535   F670    1.358   .     S
C536   C548    1.392   .     A
C536   F671    1.358   .     S
C537   C553    1.402   .     A
C537   F636    1.358   .     S
C538   C559    1.392   .     A
C538   F672    1.358   .     S
C539   C570    1.392   .     A
C539   F673    1.358   .     S
C539   C17     1.406   1_565 S
C540   C581    1.392   .     A
C540   F674    1.358   .     S
C540   C18     1.406   1_565 S
C541   C592    1.392   .     A
C541   C775    1.406   .     A
C541   F675    1.358   .     S
C542   C603    1.392   .     A
C542   F676    1.358   .     S
C542   C776    1.406   .     S
C543   F677    1.358   .     S
C543   C614    1.392   .     A
C543   C777    1.406   .     A
C544   F678    1.358   .     S
C545   F679    1.358   .     S
C545   C23     1.406   1_565 S
C546   F681    1.358   .     S
C547   F682    1.358   .     S
C548   F647    1.358   .     S
C548   C554    1.402   .     S
C549   F683    1.358   .     S
C549   C778    1.406   .     A
C550   F684    1.358   .     S
C551   F685    1.358   .     S
C551   C25     1.406   1_565 A
C552   C553    1.465   1_554 S
C553   C552    1.465   1_556 S
C554   C844    1.402   1_455 A
C554   C555    1.465   1_554 S
C555   C855    1.402   1_455 A
C555   C554    1.465   1_556 S
C555   C559    1.402   .     S
C556   C866    1.402   1_455 A
C556   C557    1.465   .     S
C557   C783    1.402   1_455 A
C558   C560    1.465   .     S
C559   F658    1.358   .     S
C561   O740    1.282   .     S
C562   O737    1.282   .     A
C563   O943    1.282   1_455 A
C563   O738    1.282   .     S
C564   O692    1.282   .     A
C564   O991    1.282   1_455 S
C565   O693    1.282   .     S
C565   O697    1.282   .     S
C566   O694    1.282   .     A
C566   O698    1.282   .     S
C567   O695    1.282   .     A
C567   O699    1.282   .     A
C568   O696    1.282   .     S
C568   O701    1.282   .     S
C569   O702    1.280   .     A
C569   O730    1.280   .     A
C569   C624    1.456   .     S
C570   F669    1.358   .     S
C570   C48     1.402   1_565 A
C571   O703    1.280   .     A
C571   O731    1.280   .     A
C572   O704    1.280   .     A
C572   O728    1.280   .     A
C573   O705    1.280   .     A
C573   O729    1.280   .     A
C574   O735    1.280   .     A
C574   O706    1.280   .     A
C575   O707    1.280   .     A
C575   O736    1.280   .     A
C576   O732    1.280   .     A
C576   C622    1.456   .     S
C576   O708    1.280   .     A
C577   C623    1.456   .     S
C577   O734    1.280   .     A
C577   O709    1.280   .     A
C578   O710    1.280   .     A
C578   O721    1.280   .     A
C579   O723    1.280   .     A
C579   O712    1.280   .     A
C580   O713    1.280   .     A
C580   O719    1.280   .     A
C581   F680    1.358   .     S
C581   C49     1.402   1_565 S
C582   O714    1.280   .     A
C582   O720    1.280   .     A
C583   O726    1.280   .     A
C583   O715    1.280   .     A
C584   O716    1.280   .     A
C584   O727    1.280   .     A
C585   O717    1.280   .     A
C585   O724    1.280   .     A
C586   O725    1.280   .     A
C586   O718    1.280   .     A
C587   F633    1.359   .     S
C587   C604    1.387   .     A
C588   C602    1.387   .     A
C588   F634    1.359   .     S
C589   F635    1.359   .     S
C589   C601    1.387   .     A
C590   F637    1.358   .     S
C590   C600    1.387   .     A
C591   C599    1.387   .     A
C591   F638    1.359   .     S
C592   F686    1.358   .     S
C592   C806    1.402   .     A
C593   F639    1.359   .     S
C593   C598    1.387   .     A
C594   C597    1.387   .     A
C594   F640    1.358   .     S
C595   F641    1.359   .     S
C595   C596    1.387   .     A
C596   F642    1.359   .     S
C597   F643    1.358   .     S
C598   F644    1.359   .     S
C599   F645    1.359   .     S
C600   F646    1.358   .     S
C601   F648    1.359   .     S
C601   C624    1.405   .     A
C602   C623    1.405   .     A
C602   F649    1.359   .     S
C603   F687    1.358   .     S
C603   C807    1.402   .     A
C604   C622    1.405   .     A
C604   F650    1.359   .     S
C605   C623    1.405   .     A
C605   F651    1.359   .     S
C605   C621    1.387   .     A
C606   F652    1.359   .     S
C606   C622    1.405   .     A
C606   C620    1.387   .     A
C607   C619    1.387   .     A
C607   F653    1.358   .     S
C608   F654    1.359   .     S
C608   C624    1.405   .     A
C608   C618    1.387   .     A
C609   C617    1.387   .     A
C609   F655    1.359   .     S
C610   C616    1.387   .     A
C610   F656    1.359   .     S
C611   C615    1.387   .     A
C611   F657    1.358   .     S
C612   C613    1.387   .     A
C612   F659    1.358   .     S
C613   F660    1.358   .     S
C614   C808    1.402   .     A
C614   F688    1.358   .     S
C615   F661    1.358   .     S
C616   F662    1.358   .     S
C617   F663    1.359   .     S
C618   F664    1.359   .     S
C619   F665    1.358   .     S
C620   F666    1.359   .     S
C621   F667    1.359   .     S
O689   Zn744   1.946   .     S
O689   Zn741   1.946   .     S
O689   Zn752   1.946   .     S
O690   Zn743   1.938   .     S
O690   C58     1.282   1_565 S
O691   C815    1.282   .     A
O691   Zn746   1.938   .     S
O692   Zn745   1.938   .     S
O693   Zn755   1.938   .     S
O694   Zn754   1.938   .     S
O695   Zn749   1.938   .     S
O696   Zn741   1.938   .     S
O697   Zn751   1.938   .     S
O698   Zn750   1.938   .     S
O699   Zn753   1.938   .     S
O700   Zn749   1.946   .     S
O700   Zn753   1.946   .     S
O700   Zn747   1.946   .     S
O701   Zn752   1.938   .     S
O702   Zn744   1.938   .     S
O703   Zn743   1.938   .     S
O704   Zn746   1.938   .     S
O705   Zn745   1.938   .     S
O706   Zn748   1.938   .     S
O707   Zn747   1.938   .     S
O708   Zn742   1.938   .     S
O709   Zn756   1.938   .     S
O710   Zn743   1.938   .     S
O711   Zn998   1.946   1_455 S
O711   Zn750   1.946   .     S
O711   Zn754   1.946   .     S
O711   Zn742   1.946   .     S
O712   Zn744   1.938   .     S
O713   Zn756   1.938   .     S
O714   Zn742   1.938   .     S
O715   Zn747   1.938   .     S
O716   Zn748   1.938   .     S
O717   Zn745   1.938   .     S
O718   Zn746   1.938   .     S
O719   Zn1003  1.938   .     S
O720   Zn750   1.938   .     S
O721   Zn249   1.938   1_565 S
O722   Zn745   1.946   .     S
O722   Zn751   1.946   .     S
O722   Zn755   1.946   .     S
O722   Zn1008  1.946   1_455 S
O723   Zn752   1.938   .     S
O724   Zn755   1.938   .     S
O725   Zn1006  1.938   .     S
O726   Zn749   1.938   .     S
O727   Zn237   1.938   1_565 S
O728   Zn1002  1.938   .     S
O729   Zn751   1.938   .     S
O730   Zn741   1.938   .     S
O731   Zn245   1.938   1_565 S
O732   Zn754   1.938   .     S
O733   Zn748   1.938   .     S
O733   C57     1.282   1_565 A
O734   Zn1007  1.938   .     S
O735   Zn248   1.938   1_565 S
O736   Zn753   1.938   .     S
O737   Zn747   1.938   .     S
O738   Zn742   1.938   .     S
O739   Zn756   1.938   .     S
O739   C816    1.282   .     S
O740   Zn744   1.938   .     S
Zn743  O196    1.946   1_565 S
Zn746  O963    1.946   .     S
Zn748  O185    1.946   1_565 S
Zn750  O980    1.938   1_455 S
Zn751  O971    1.938   1_455 S
Zn754  O977    1.938   1_455 S
Zn755  O986    1.938   1_455 S
Zn756  O974    1.946   .     S
C757   C786    1.392   .     A
C757   F877    1.358   .     S
C757   C804    1.402   .     S
C758   C796    1.392   .     A
C758   F878    1.358   .     S
C758   C809    1.402   .     S
C759   C859    1.405   .     A
C759   C852    1.405   .     A
C759   C823    1.456   .     S
C760   C824    1.456   .     S
C760   C862    1.405   .     A
C760   C851    1.405   .     A
C761   C850    1.405   .     A
C761   C825    1.456   .     S
C761   C861    1.405   .     A
C762   C849    1.405   .     A
C762   C826    1.456   .     S
C762   C864    1.405   .     A
C763   C827    1.456   .     S
C763   C848    1.405   .     A
C763   C863    1.405   .     A
C764   C837    1.456   .     S
C764   C867    1.405   .     A
C764   C847    1.405   .     A
C765   C865    1.405   .     A
C765   C838    1.456   .     S
C765   C846    1.405   .     A
C766   C845    1.405   .     A
C766   C869    1.405   .     A
C766   C830    1.456   .     S
C767   C843    1.405   .     A
C767   C868    1.405   .     A
C767   C831    1.456   .     S
C768   C842    1.405   .     A
C768   C871    1.405   .     A
C768   C832    1.456   .     S
C769   C797    1.392   .     A
C769   F879    1.358   .     S
C769   C306    1.402   1_565 A
C770   C870    1.405   .     A
C770   C841    1.405   .     A
C770   C834    1.456   .     S
C771   C835    1.456   .     S
C771   C873    1.405   .     A
C771   C840    1.405   .     A
C772   C872    1.405   .     A
C772   C839    1.405   .     A
C772   C836    1.456   .     S
C773   C820    1.465   .     S
C773   C786    1.406   .     A
C774   C787    1.406   .     A
C774   C819    1.465   .     S
C775   C788    1.406   .     S
C775   C818    1.465   .     S
C776   C790    1.406   .     A
C776   C817    1.465   .     S
C777   C799    1.406   .     S
C777   C816    1.465   .     S
C778   C815    1.465   .     S
C778   C796    1.406   .     S
C779   C802    1.406   .     A
C779   C814    1.465   .     S
C780   C798    1.392   .     A
C780   F880    1.358   .     S
C780   C812    1.402   .     S
C781   C813    1.465   .     S
C781   C798    1.406   .     S
C782   C799    1.392   .     A
C782   F881    1.358   .     S
C782   C808    1.402   .     S
C783   F882    1.358   .     S
C783   C801    1.392   .     A
C783   C557    1.402   1_655 A
C784   C802    1.392   .     A
C784   F883    1.358   .     S
C784   C810    1.402   .     S
C785   C803    1.392   .     A
C785   F884    1.358   .     S
C785   C308    1.402   1_565 A
C786   F920    1.358   .     S
C787   C789    1.392   .     A
C787   F922    1.358   .     S
C788   C800    1.392   .     A
C788   F923    1.358   .     S
C789   C805    1.402   .     A
C789   F888    1.358   .     S
C790   C811    1.392   .     A
C790   F924    1.358   .     S
C791   C822    1.392   .     A
C791   F925    1.358   .     S
C791   C269    1.406   1_565 S
C792   C833    1.392   .     A
C792   F926    1.358   .     S
C792   C270    1.406   1_565 S
C793   C844    1.392   .     A
C793   C523    1.406   1_655 A
C793   F927    1.358   .     S
C794   C855    1.392   .     A
C794   F928    1.358   .     S
C794   C524    1.406   1_655 S
C795   F929    1.358   .     S
C795   C866    1.392   .     A
C795   C525    1.406   1_655 A
C796   F930    1.358   .     S
C797   F931    1.358   .     S
C797   C275    1.406   1_565 S
C798   F933    1.358   .     S
C799   F934    1.358   .     S
C800   F899    1.358   .     S
C800   C806    1.402   .     S
C801   F935    1.358   .     S
C801   C526    1.406   1_655 A
C802   F936    1.358   .     S
C803   F937    1.358   .     S
C803   C277    1.406   1_565 A
C804   C805    1.465   1_554 S
C805   C804    1.465   1_556 S
C806   C807    1.465   1_554 S
C807   C806    1.465   1_556 S
C807   C811    1.402   .     S
C808   C809    1.465   .     S
C810   C812    1.465   .     S
C811   F910    1.358   .     S
C813   O992    1.282   .     S
C814   O989    1.282   .     A
C815   O990    1.282   .     S
C816   O944    1.282   .     A
C817   O945    1.282   .     S
C817   O949    1.282   .     S
C818   O946    1.282   .     A
C818   O950    1.282   .     S
C819   O947    1.282   .     A
C819   O951    1.282   .     A
C820   O948    1.282   .     S
C820   O953    1.282   .     S
C821   O954    1.280   .     A
C821   O982    1.280   .     A
C821   C876    1.456   .     S
C822   F921    1.358   .     S
C822   C300    1.402   1_565 A
C823   O955    1.280   .     A
C823   O983    1.280   .     A
C824   O956    1.280   .     A
C824   O980    1.280   .     A
C825   O957    1.280   .     A
C825   O981    1.280   .     A
C826   O987    1.280   .     A
C826   O958    1.280   .     A
C827   O959    1.280   .     A
C827   O988    1.280   .     A
C828   O984    1.280   .     A
C828   C874    1.456   .     S
C828   O960    1.280   .     A
C829   C875    1.456   .     S
C829   O986    1.280   .     A
C829   O961    1.280   .     A
C830   O962    1.280   .     A
C830   O973    1.280   .     A
C831   O975    1.280   .     A
C831   O964    1.280   .     A
C832   O965    1.280   .     A
C832   O971    1.280   .     A
C833   F932    1.358   .     S
C833   C301    1.402   1_565 S
C834   O966    1.280   .     A
C834   O972    1.280   .     A
C835   O978    1.280   .     A
C835   O967    1.280   .     A
C836   O968    1.280   .     A
C836   O979    1.280   .     A
C837   O969    1.280   .     A
C837   O976    1.280   .     A
C838   O977    1.280   .     A
C838   O970    1.280   .     A
C839   F885    1.359   .     S
C839   C856    1.387   .     A
C840   C854    1.387   .     A
C840   F886    1.359   .     S
C841   F887    1.359   .     S
C841   C853    1.387   .     A
C842   F889    1.358   .     S
C842   C852    1.387   .     A
C843   C851    1.387   .     A
C843   F890    1.359   .     S
C844   F938    1.358   .     S
C844   C554    1.402   1_655 A
C845   F891    1.359   .     S
C845   C850    1.387   .     A
C846   C849    1.387   .     A
C846   F892    1.358   .     S
C847   F893    1.359   .     S
C847   C848    1.387   .     A
C848   F894    1.359   .     S
C849   F895    1.358   .     S
C850   F896    1.359   .     S
C851   F897    1.359   .     S
C852   F898    1.358   .     S
C853   F900    1.359   .     S
C853   C876    1.405   .     A
C854   C875    1.405   .     A
C854   F901    1.359   .     S
C855   F939    1.358   .     S
C855   C555    1.402   1_655 A
C856   C874    1.405   .     A
C856   F902    1.359   .     S
C857   C875    1.405   .     A
C857   F903    1.359   .     S
C857   C873    1.387   .     A
C858   F904    1.359   .     S
C858   C874    1.405   .     A
C858   C872    1.387   .     A
C859   C871    1.387   .     A
C859   F905    1.358   .     S
C860   F906    1.359   .     S
C860   C876    1.405   .     A
C860   C870    1.387   .     A
C861   C869    1.387   .     A
C861   F907    1.359   .     S
C862   C868    1.387   .     A
C862   F908    1.359   .     S
C863   C867    1.387   .     A
C863   F909    1.358   .     S
C864   C865    1.387   .     A
C864   F911    1.358   .     S
C865   F912    1.358   .     S
C866   C556    1.402   1_655 A
C866   F940    1.358   .     S
C867   F913    1.358   .     S
C868   F914    1.358   .     S
C869   F915    1.359   .     S
C870   F916    1.359   .     S
C871   F917    1.358   .     S
C872   F918    1.359   .     S
C873   F919    1.359   .     S
O941   Zn996   1.946   .     S
O941   Zn993   1.946   .     S
O941   Zn1004  1.946   .     S
O942   Zn995   1.938   .     S
O942   C310    1.282   1_565 S
O943   C563    1.282   1_655 A
O943   Zn998   1.938   .     S
O944   Zn997   1.938   .     S
O945   Zn1007  1.938   .     S
O946   Zn1006  1.938   .     S
O947   Zn1001  1.938   .     S
O948   Zn993   1.938   .     S
O949   Zn1003  1.938   .     S
O950   Zn1002  1.938   .     S
O951   Zn1005  1.938   .     S
O952   Zn1001  1.946   .     S
O952   Zn1005  1.946   .     S
O952   Zn999   1.946   .     S
O953   Zn1004  1.938   .     S
O954   Zn996   1.938   .     S
O955   Zn995   1.938   .     S
O956   Zn998   1.938   .     S
O957   Zn997   1.938   .     S
O958   Zn1000  1.938   .     S
O959   Zn999   1.938   .     S
O960   Zn994   1.938   .     S
O961   Zn1008  1.938   .     S
O962   Zn995   1.938   .     S
O963   Zn1002  1.946   .     S
O963   Zn1006  1.946   .     S
O963   Zn994   1.946   .     S
O964   Zn996   1.938   .     S
O965   Zn1008  1.938   .     S
O966   Zn994   1.938   .     S
O967   Zn999   1.938   .     S
O968   Zn1000  1.938   .     S
O969   Zn997   1.938   .     S
O970   Zn998   1.938   .     S
O971   Zn751   1.938   1_655 S
O972   Zn1002  1.938   .     S
O973   Zn501   1.938   1_565 S
O974   Zn997   1.946   .     S
O974   Zn1003  1.946   .     S
O974   Zn1007  1.946   .     S
O975   Zn1004  1.938   .     S
O976   Zn1007  1.938   .     S
O977   Zn754   1.938   1_655 S
O978   Zn1001  1.938   .     S
O979   Zn489   1.938   1_565 S
O980   Zn750   1.938   1_655 S
O981   Zn1003  1.938   .     S
O982   Zn993   1.938   .     S
O983   Zn497   1.938   1_565 S
O984   Zn1006  1.938   .     S
O985   Zn1000  1.938   .     S
O985   C309    1.282   1_565 A
O986   Zn755   1.938   1_655 S
O987   Zn500   1.938   1_565 S
O988   Zn1005  1.938   .     S
O989   Zn999   1.938   .     S
O990   Zn994   1.938   .     S
O991   Zn1008  1.938   .     S
O991   C564    1.282   1_655 S
O992   Zn996   1.938   .     S
Zn995  O448    1.946   1_565 S
Zn998  O711    1.946   1_655 S
Zn1000 O437    1.946   1_565 S
Zn1008 O722    1.946   1_655 S
