data_str_m1_o10_o18_pcu_sym.96
_audit_creation_date              2020-01-03
_audit_creation_method            'Materials Studio'
_symmetry_space_group_name_H-M    'P1'
_symmetry_Int_Tables_number       1
_symmetry_cell_setting            triclinic
loop_
_symmetry_equiv_pos_as_xyz
  x,y,z
_cell_length_a                    32.5561
_cell_length_b                    32.6860
_cell_length_c                    35.7893
_cell_angle_alpha                 98.4973
_cell_angle_beta                  72.5572
_cell_angle_gamma                 98.8856
loop_
_atom_site_label
_atom_site_type_symbol
_atom_site_fract_x
_atom_site_fract_y
_atom_site_fract_z
_atom_site_U_iso_or_equiv
_atom_site_adp_type
_atom_site_occupancy
Br1    Br    0.23604   0.03846   0.01777   0.00000  Uiso   1.00
Br2    Br    0.23366   0.01335   0.20404   0.00000  Uiso   1.00
Br3    Br    0.09427   0.32667   0.29553   0.00000  Uiso   1.00
Br4    Br    0.24973   0.14582   0.40431   0.00000  Uiso   1.00
C5     C     0.05236   0.15957   0.25924   0.00000  Uiso   1.00
C6     C     0.21251   0.14345   0.45746   0.00000  Uiso   1.00
C7     C     0.22216   0.11565   0.47866   0.00000  Uiso   1.00
C8     C     0.28122   0.17374   0.24099   0.00000  Uiso   1.00
C9     C     0.20928   0.12072   0.01980   0.00000  Uiso   1.00
C10    C     0.19108   0.15747   0.03962   0.00000  Uiso   1.00
C11    C     0.21617   0.09118   0.04161   0.00000  Uiso   1.00
C12    C     0.20640   0.09908   0.08243   0.00000  Uiso   1.00
C13    C     0.19174   0.16912   0.07931   0.00000  Uiso   1.00
C14    C     0.32775   0.17688   0.23680   0.00000  Uiso   1.00
C15    C     0.00721   0.15807   0.26165   0.00000  Uiso   1.00
C16    C     0.11749   0.23354   0.41858   0.00000  Uiso   1.00
C17    C     0.18123   0.32239   0.23952   0.00000  Uiso   1.00
C18    C     0.15031   0.01266   0.26181   0.00000  Uiso   1.00
C19    C     0.15606   0.05633   0.25855   0.00000  Uiso   1.00
C20    C     0.17672   0.27771   0.24146   0.00000  Uiso   1.00
C21    C     0.18779   0.14581   0.14393   0.00000  Uiso   1.00
C22    C     0.14561   0.18804   0.35608   0.00000  Uiso   1.00
C23    C     0.13977   0.19977   0.39845   0.00000  Uiso   1.00
C24    C     0.19566   0.13817   0.10123   0.00000  Uiso   1.00
C25    C     0.11340   0.24450   0.45854   0.00000  Uiso   1.00
C26    C     0.02693   0.20077   0.20517   0.00000  Uiso   1.00
C27    C     0.15869   0.17798   0.41852   0.00000  Uiso   1.00
C28    C     0.19497   0.21438   0.09665   0.00000  Uiso   1.00
C29    C     0.15947   0.19151   0.45740   0.00000  Uiso   1.00
C30    C     0.13344   0.22319   0.47824   0.00000  Uiso   1.00
C31    C     0.18188   0.17185   0.47717   0.00000  Uiso   1.00
C32    C     0.17257   0.18017   0.01891   0.00000  Uiso   1.00
C33    C     0.14214   0.20814   0.03909   0.00000  Uiso   1.00
C34    C     0.12513   0.23117   0.01893   0.00000  Uiso   1.00
H35    H     0.10316   0.25349   0.03554   0.00000  Uiso   1.00
H36    H     0.04573   0.22669   0.21898   0.00000  Uiso   1.00
H37    H     0.04959   0.17964   0.18497   0.00000  Uiso   1.00
H38    H     0.20002   0.23636   0.07446   0.00000  Uiso   1.00
H39    H     0.16568   0.22026   0.12146   0.00000  Uiso   1.00
H40    H     0.22408   0.22202   0.10750   0.00000  Uiso   1.00
H41    H     0.31749   0.14105   0.28451   0.00000  Uiso   1.00
H42    H     0.20973   0.07551   0.09935   0.00000  Uiso   1.00
H43    H     0.24241   0.09180   0.46265   0.00000  Uiso   1.00
H44    H     0.09420   0.26933   0.47414   0.00000  Uiso   1.00
H45    H     0.10251   0.25088   0.40370   0.00000  Uiso   1.00
H46    H     0.17090   0.14927   0.40391   0.00000  Uiso   1.00
H47    H     0.13008   0.21184   0.07082   0.00000  Uiso   1.00
H48    H     0.01107   0.21435   0.18723   0.00000  Uiso   1.00
O49    O     0.16667   0.16667   0.25000   0.00000  Uiso   1.00
O50    O     0.15693   0.12393   0.16625   0.00000  Uiso   1.00
O51    O     0.12687   0.20646   0.33749   0.00000  Uiso   1.00
O52    O     0.21088   0.17493   0.15877   0.00000  Uiso   1.00
O53    O     0.17198   0.16135   0.33749   0.00000  Uiso   1.00
O54    O     0.17849   0.08101   0.27821   0.00000  Uiso   1.00
O55    O     0.14581   0.26136   0.26767   0.00000  Uiso   1.00
O56    O     0.07452   0.13251   0.23607   0.00000  Uiso   1.00
O57    O     0.26785   0.19179   0.21806   0.00000  Uiso   1.00
O58    O     0.06990   0.18960   0.27820   0.00000  Uiso   1.00
O59    O     0.25440   0.15277   0.26768   0.00000  Uiso   1.00
O60    O     0.13800   0.06903   0.23607   0.00000  Uiso   1.00
O61    O     0.20437   0.25527   0.21806   0.00000  Uiso   1.00
Zn62   Zn    0.19244   0.14090   0.28278   0.00000  Uiso   1.00
Zn63   Zn    0.13459   0.12378   0.22258   0.00000  Uiso   1.00
Zn64   Zn    0.21166   0.19664   0.21188   0.00000  Uiso   1.00
Zn65   Zn    0.12798   0.20535   0.28277   0.00000  Uiso   1.00
Br66   Br    0.56937   0.03846   0.01777   0.00000  Uiso   1.00
Br67   Br    0.56699   0.01335   0.20404   0.00000  Uiso   1.00
Br68   Br    0.42761   0.32667   0.29553   0.00000  Uiso   1.00
Br69   Br    0.58306   0.14582   0.40431   0.00000  Uiso   1.00
C70    C     0.38570   0.15957   0.25924   0.00000  Uiso   1.00
C71    C     0.54584   0.14345   0.45746   0.00000  Uiso   1.00
C72    C     0.55549   0.11565   0.47866   0.00000  Uiso   1.00
C73    C     0.61456   0.17374   0.24099   0.00000  Uiso   1.00
C74    C     0.54262   0.12072   0.01980   0.00000  Uiso   1.00
C75    C     0.52442   0.15747   0.03962   0.00000  Uiso   1.00
C76    C     0.54950   0.09118   0.04161   0.00000  Uiso   1.00
C77    C     0.53974   0.09908   0.08243   0.00000  Uiso   1.00
C78    C     0.52508   0.16912   0.07931   0.00000  Uiso   1.00
C79    C     0.66109   0.17688   0.23680   0.00000  Uiso   1.00
C80    C     0.34054   0.15807   0.26165   0.00000  Uiso   1.00
C81    C     0.45082   0.23354   0.41858   0.00000  Uiso   1.00
C82    C     0.51456   0.32239   0.23952   0.00000  Uiso   1.00
C83    C     0.48365   0.01266   0.26181   0.00000  Uiso   1.00
C84    C     0.48940   0.05633   0.25855   0.00000  Uiso   1.00
C85    C     0.51005   0.27771   0.24146   0.00000  Uiso   1.00
C86    C     0.52112   0.14581   0.14393   0.00000  Uiso   1.00
C87    C     0.47895   0.18804   0.35608   0.00000  Uiso   1.00
C88    C     0.47310   0.19977   0.39845   0.00000  Uiso   1.00
C89    C     0.52899   0.13817   0.10123   0.00000  Uiso   1.00
C90    C     0.44673   0.24450   0.45854   0.00000  Uiso   1.00
C91    C     0.36027   0.20077   0.20517   0.00000  Uiso   1.00
C92    C     0.49202   0.17798   0.41852   0.00000  Uiso   1.00
C93    C     0.52830   0.21438   0.09665   0.00000  Uiso   1.00
C94    C     0.49280   0.19151   0.45740   0.00000  Uiso   1.00
C95    C     0.46677   0.22319   0.47824   0.00000  Uiso   1.00
C96    C     0.51521   0.17185   0.47717   0.00000  Uiso   1.00
C97    C     0.50590   0.18017   0.01891   0.00000  Uiso   1.00
C98    C     0.47547   0.20814   0.03909   0.00000  Uiso   1.00
C99    C     0.45847   0.23117   0.01893   0.00000  Uiso   1.00
H100   H     0.43650   0.25349   0.03554   0.00000  Uiso   1.00
H101   H     0.37906   0.22669   0.21898   0.00000  Uiso   1.00
H102   H     0.38292   0.17964   0.18497   0.00000  Uiso   1.00
H103   H     0.53336   0.23636   0.07446   0.00000  Uiso   1.00
H104   H     0.49901   0.22026   0.12146   0.00000  Uiso   1.00
H105   H     0.55742   0.22202   0.10750   0.00000  Uiso   1.00
H106   H     0.65082   0.14105   0.28451   0.00000  Uiso   1.00
H107   H     0.54306   0.07551   0.09935   0.00000  Uiso   1.00
H108   H     0.57574   0.09180   0.46265   0.00000  Uiso   1.00
H109   H     0.42754   0.26933   0.47414   0.00000  Uiso   1.00
H110   H     0.43585   0.25088   0.40370   0.00000  Uiso   1.00
H111   H     0.50424   0.14927   0.40391   0.00000  Uiso   1.00
H112   H     0.46342   0.21184   0.07082   0.00000  Uiso   1.00
H113   H     0.34440   0.21435   0.18723   0.00000  Uiso   1.00
O114   O     0.50000   0.16667   0.25000   0.00000  Uiso   1.00
O115   O     0.49027   0.12393   0.16625   0.00000  Uiso   1.00
O116   O     0.46020   0.20646   0.33749   0.00000  Uiso   1.00
O117   O     0.54421   0.17493   0.15877   0.00000  Uiso   1.00
O118   O     0.50532   0.16135   0.33749   0.00000  Uiso   1.00
O119   O     0.51182   0.08101   0.27821   0.00000  Uiso   1.00
O120   O     0.47914   0.26136   0.26767   0.00000  Uiso   1.00
O121   O     0.40785   0.13251   0.23607   0.00000  Uiso   1.00
O122   O     0.60119   0.19179   0.21806   0.00000  Uiso   1.00
O123   O     0.40323   0.18960   0.27820   0.00000  Uiso   1.00
O124   O     0.58773   0.15277   0.26768   0.00000  Uiso   1.00
O125   O     0.47133   0.06903   0.23607   0.00000  Uiso   1.00
O126   O     0.53771   0.25527   0.21806   0.00000  Uiso   1.00
Zn127  Zn    0.52577   0.14090   0.28278   0.00000  Uiso   1.00
Zn128  Zn    0.46792   0.12378   0.22258   0.00000  Uiso   1.00
Zn129  Zn    0.54500   0.19664   0.21188   0.00000  Uiso   1.00
Zn130  Zn    0.46131   0.20535   0.28277   0.00000  Uiso   1.00
Br131  Br    0.90271   0.03846   0.01777   0.00000  Uiso   1.00
Br132  Br    0.90033   0.01335   0.20404   0.00000  Uiso   1.00
Br133  Br    0.76094   0.32667   0.29553   0.00000  Uiso   1.00
Br134  Br    0.91640   0.14582   0.40431   0.00000  Uiso   1.00
C135   C     0.71903   0.15957   0.25924   0.00000  Uiso   1.00
C136   C     0.87917   0.14345   0.45746   0.00000  Uiso   1.00
C137   C     0.88882   0.11565   0.47866   0.00000  Uiso   1.00
C138   C     0.94789   0.17374   0.24099   0.00000  Uiso   1.00
C139   C     0.87595   0.12072   0.01980   0.00000  Uiso   1.00
C140   C     0.85775   0.15747   0.03962   0.00000  Uiso   1.00
C141   C     0.88284   0.09118   0.04161   0.00000  Uiso   1.00
C142   C     0.87307   0.09908   0.08243   0.00000  Uiso   1.00
C143   C     0.85841   0.16912   0.07931   0.00000  Uiso   1.00
C144   C     0.99442   0.17688   0.23680   0.00000  Uiso   1.00
C145   C     0.67388   0.15807   0.26165   0.00000  Uiso   1.00
C146   C     0.78415   0.23354   0.41858   0.00000  Uiso   1.00
C147   C     0.84790   0.32239   0.23952   0.00000  Uiso   1.00
C148   C     0.81698   0.01266   0.26181   0.00000  Uiso   1.00
C149   C     0.82273   0.05633   0.25855   0.00000  Uiso   1.00
C150   C     0.84338   0.27771   0.24146   0.00000  Uiso   1.00
C151   C     0.85446   0.14581   0.14393   0.00000  Uiso   1.00
C152   C     0.81228   0.18804   0.35608   0.00000  Uiso   1.00
C153   C     0.80643   0.19977   0.39845   0.00000  Uiso   1.00
C154   C     0.86232   0.13817   0.10123   0.00000  Uiso   1.00
C155   C     0.78007   0.24450   0.45854   0.00000  Uiso   1.00
C156   C     0.69360   0.20077   0.20517   0.00000  Uiso   1.00
C157   C     0.82535   0.17798   0.41852   0.00000  Uiso   1.00
C158   C     0.86164   0.21438   0.09665   0.00000  Uiso   1.00
C159   C     0.82613   0.19151   0.45740   0.00000  Uiso   1.00
C160   C     0.80011   0.22319   0.47824   0.00000  Uiso   1.00
C161   C     0.84854   0.17185   0.47717   0.00000  Uiso   1.00
C162   C     0.83923   0.18017   0.01891   0.00000  Uiso   1.00
C163   C     0.80881   0.20814   0.03909   0.00000  Uiso   1.00
C164   C     0.79180   0.23117   0.01893   0.00000  Uiso   1.00
H165   H     0.76983   0.25349   0.03554   0.00000  Uiso   1.00
H166   H     0.71239   0.22669   0.21898   0.00000  Uiso   1.00
H167   H     0.71625   0.17964   0.18497   0.00000  Uiso   1.00
H168   H     0.86669   0.23636   0.07446   0.00000  Uiso   1.00
H169   H     0.83234   0.22026   0.12146   0.00000  Uiso   1.00
H170   H     0.89075   0.22202   0.10750   0.00000  Uiso   1.00
H171   H     0.98416   0.14105   0.28451   0.00000  Uiso   1.00
H172   H     0.87639   0.07551   0.09935   0.00000  Uiso   1.00
H173   H     0.90907   0.09180   0.46265   0.00000  Uiso   1.00
H174   H     0.76087   0.26933   0.47414   0.00000  Uiso   1.00
H175   H     0.76918   0.25088   0.40370   0.00000  Uiso   1.00
H176   H     0.83757   0.14927   0.40391   0.00000  Uiso   1.00
H177   H     0.79675   0.21184   0.07082   0.00000  Uiso   1.00
H178   H     0.67773   0.21435   0.18723   0.00000  Uiso   1.00
O179   O     0.83333   0.16667   0.25000   0.00000  Uiso   1.00
O180   O     0.82360   0.12393   0.16625   0.00000  Uiso   1.00
O181   O     0.79354   0.20646   0.33749   0.00000  Uiso   1.00
O182   O     0.87755   0.17493   0.15877   0.00000  Uiso   1.00
O183   O     0.83865   0.16135   0.33749   0.00000  Uiso   1.00
O184   O     0.84515   0.08101   0.27821   0.00000  Uiso   1.00
O185   O     0.81247   0.26136   0.26767   0.00000  Uiso   1.00
O186   O     0.74119   0.13251   0.23607   0.00000  Uiso   1.00
O187   O     0.93452   0.19179   0.21806   0.00000  Uiso   1.00
O188   O     0.73656   0.18960   0.27820   0.00000  Uiso   1.00
O189   O     0.92106   0.15277   0.26768   0.00000  Uiso   1.00
O190   O     0.80467   0.06903   0.23607   0.00000  Uiso   1.00
O191   O     0.87104   0.25527   0.21806   0.00000  Uiso   1.00
Zn192  Zn    0.85910   0.14090   0.28278   0.00000  Uiso   1.00
Zn193  Zn    0.80125   0.12378   0.22258   0.00000  Uiso   1.00
Zn194  Zn    0.87833   0.19664   0.21188   0.00000  Uiso   1.00
Zn195  Zn    0.79465   0.20535   0.28277   0.00000  Uiso   1.00
Br196  Br    0.23604   0.37179   0.01777   0.00000  Uiso   1.00
Br197  Br    0.23366   0.34669   0.20404   0.00000  Uiso   1.00
Br198  Br    0.09427   0.66000   0.29553   0.00000  Uiso   1.00
Br199  Br    0.24973   0.47915   0.40431   0.00000  Uiso   1.00
C200   C     0.05236   0.49291   0.25924   0.00000  Uiso   1.00
C201   C     0.21251   0.47679   0.45746   0.00000  Uiso   1.00
C202   C     0.22216   0.44898   0.47866   0.00000  Uiso   1.00
C203   C     0.28122   0.50708   0.24099   0.00000  Uiso   1.00
C204   C     0.20928   0.45406   0.01980   0.00000  Uiso   1.00
C205   C     0.19108   0.49080   0.03962   0.00000  Uiso   1.00
C206   C     0.21617   0.42451   0.04161   0.00000  Uiso   1.00
C207   C     0.20640   0.43241   0.08243   0.00000  Uiso   1.00
C208   C     0.19174   0.50245   0.07931   0.00000  Uiso   1.00
C209   C     0.32775   0.51022   0.23680   0.00000  Uiso   1.00
C210   C     0.00721   0.49141   0.26165   0.00000  Uiso   1.00
C211   C     0.11749   0.56687   0.41858   0.00000  Uiso   1.00
C212   C     0.18123   0.65572   0.23952   0.00000  Uiso   1.00
C213   C     0.15031   0.34599   0.26181   0.00000  Uiso   1.00
C214   C     0.15606   0.38966   0.25855   0.00000  Uiso   1.00
C215   C     0.17672   0.61104   0.24146   0.00000  Uiso   1.00
C216   C     0.18779   0.47915   0.14393   0.00000  Uiso   1.00
C217   C     0.14561   0.52137   0.35608   0.00000  Uiso   1.00
C218   C     0.13977   0.53311   0.39845   0.00000  Uiso   1.00
C219   C     0.19566   0.47151   0.10123   0.00000  Uiso   1.00
C220   C     0.11340   0.57783   0.45854   0.00000  Uiso   1.00
C221   C     0.02693   0.53410   0.20517   0.00000  Uiso   1.00
C222   C     0.15869   0.51132   0.41852   0.00000  Uiso   1.00
C223   C     0.19497   0.54771   0.09665   0.00000  Uiso   1.00
C224   C     0.15947   0.52484   0.45740   0.00000  Uiso   1.00
C225   C     0.13344   0.55652   0.47824   0.00000  Uiso   1.00
C226   C     0.18188   0.50518   0.47717   0.00000  Uiso   1.00
C227   C     0.17257   0.51350   0.01891   0.00000  Uiso   1.00
C228   C     0.14214   0.54147   0.03909   0.00000  Uiso   1.00
C229   C     0.12513   0.56450   0.01893   0.00000  Uiso   1.00
H230   H     0.10316   0.58682   0.03554   0.00000  Uiso   1.00
H231   H     0.04573   0.56002   0.21898   0.00000  Uiso   1.00
H232   H     0.04959   0.51298   0.18497   0.00000  Uiso   1.00
H233   H     0.20002   0.56969   0.07446   0.00000  Uiso   1.00
H234   H     0.16568   0.55359   0.12146   0.00000  Uiso   1.00
H235   H     0.22408   0.55536   0.10750   0.00000  Uiso   1.00
H236   H     0.31749   0.47438   0.28451   0.00000  Uiso   1.00
H237   H     0.20973   0.40884   0.09935   0.00000  Uiso   1.00
H238   H     0.24241   0.42514   0.46265   0.00000  Uiso   1.00
H239   H     0.09420   0.60266   0.47414   0.00000  Uiso   1.00
H240   H     0.10251   0.58422   0.40370   0.00000  Uiso   1.00
H241   H     0.17090   0.48261   0.40391   0.00000  Uiso   1.00
H242   H     0.13008   0.54517   0.07082   0.00000  Uiso   1.00
H243   H     0.01107   0.54769   0.18723   0.00000  Uiso   1.00
O244   O     0.16667   0.50000   0.25000   0.00000  Uiso   1.00
O245   O     0.15693   0.45726   0.16625   0.00000  Uiso   1.00
O246   O     0.12687   0.53979   0.33749   0.00000  Uiso   1.00
O247   O     0.21088   0.50826   0.15877   0.00000  Uiso   1.00
O248   O     0.17198   0.49468   0.33749   0.00000  Uiso   1.00
O249   O     0.17849   0.41434   0.27821   0.00000  Uiso   1.00
O250   O     0.14581   0.59469   0.26767   0.00000  Uiso   1.00
O251   O     0.07452   0.46584   0.23607   0.00000  Uiso   1.00
O252   O     0.26785   0.52512   0.21806   0.00000  Uiso   1.00
O253   O     0.06990   0.52293   0.27820   0.00000  Uiso   1.00
O254   O     0.25440   0.48610   0.26768   0.00000  Uiso   1.00
O255   O     0.13800   0.40236   0.23607   0.00000  Uiso   1.00
O256   O     0.20437   0.58860   0.21806   0.00000  Uiso   1.00
Zn257  Zn    0.19244   0.47423   0.28278   0.00000  Uiso   1.00
Zn258  Zn    0.13459   0.45711   0.22258   0.00000  Uiso   1.00
Zn259  Zn    0.21166   0.52997   0.21188   0.00000  Uiso   1.00
Zn260  Zn    0.12798   0.53868   0.28277   0.00000  Uiso   1.00
Br261  Br    0.56937   0.37179   0.01777   0.00000  Uiso   1.00
Br262  Br    0.56699   0.34669   0.20404   0.00000  Uiso   1.00
Br263  Br    0.42761   0.66000   0.29553   0.00000  Uiso   1.00
Br264  Br    0.58306   0.47915   0.40431   0.00000  Uiso   1.00
C265   C     0.38570   0.49291   0.25924   0.00000  Uiso   1.00
C266   C     0.54584   0.47679   0.45746   0.00000  Uiso   1.00
C267   C     0.55549   0.44898   0.47866   0.00000  Uiso   1.00
C268   C     0.61456   0.50708   0.24099   0.00000  Uiso   1.00
C269   C     0.54262   0.45406   0.01980   0.00000  Uiso   1.00
C270   C     0.52442   0.49080   0.03962   0.00000  Uiso   1.00
C271   C     0.54950   0.42451   0.04161   0.00000  Uiso   1.00
C272   C     0.53974   0.43241   0.08243   0.00000  Uiso   1.00
C273   C     0.52508   0.50245   0.07931   0.00000  Uiso   1.00
C274   C     0.66109   0.51022   0.23680   0.00000  Uiso   1.00
C275   C     0.34054   0.49141   0.26165   0.00000  Uiso   1.00
C276   C     0.45082   0.56687   0.41858   0.00000  Uiso   1.00
C277   C     0.51456   0.65572   0.23952   0.00000  Uiso   1.00
C278   C     0.48365   0.34599   0.26181   0.00000  Uiso   1.00
C279   C     0.48940   0.38966   0.25855   0.00000  Uiso   1.00
C280   C     0.51005   0.61104   0.24146   0.00000  Uiso   1.00
C281   C     0.52112   0.47915   0.14393   0.00000  Uiso   1.00
C282   C     0.47895   0.52137   0.35608   0.00000  Uiso   1.00
C283   C     0.47310   0.53311   0.39845   0.00000  Uiso   1.00
C284   C     0.52899   0.47151   0.10123   0.00000  Uiso   1.00
C285   C     0.44673   0.57783   0.45854   0.00000  Uiso   1.00
C286   C     0.36027   0.53410   0.20517   0.00000  Uiso   1.00
C287   C     0.49202   0.51132   0.41852   0.00000  Uiso   1.00
C288   C     0.52830   0.54771   0.09665   0.00000  Uiso   1.00
C289   C     0.49280   0.52484   0.45740   0.00000  Uiso   1.00
C290   C     0.46677   0.55652   0.47824   0.00000  Uiso   1.00
C291   C     0.51521   0.50518   0.47717   0.00000  Uiso   1.00
C292   C     0.50590   0.51350   0.01891   0.00000  Uiso   1.00
C293   C     0.47547   0.54147   0.03909   0.00000  Uiso   1.00
C294   C     0.45847   0.56450   0.01893   0.00000  Uiso   1.00
H295   H     0.43650   0.58682   0.03554   0.00000  Uiso   1.00
H296   H     0.37906   0.56002   0.21898   0.00000  Uiso   1.00
H297   H     0.38292   0.51298   0.18497   0.00000  Uiso   1.00
H298   H     0.53336   0.56969   0.07446   0.00000  Uiso   1.00
H299   H     0.49901   0.55359   0.12146   0.00000  Uiso   1.00
H300   H     0.55742   0.55536   0.10750   0.00000  Uiso   1.00
H301   H     0.65082   0.47438   0.28451   0.00000  Uiso   1.00
H302   H     0.54306   0.40884   0.09935   0.00000  Uiso   1.00
H303   H     0.57574   0.42514   0.46265   0.00000  Uiso   1.00
H304   H     0.42754   0.60266   0.47414   0.00000  Uiso   1.00
H305   H     0.43585   0.58422   0.40370   0.00000  Uiso   1.00
H306   H     0.50424   0.48261   0.40391   0.00000  Uiso   1.00
H307   H     0.46342   0.54517   0.07082   0.00000  Uiso   1.00
H308   H     0.34440   0.54769   0.18723   0.00000  Uiso   1.00
O309   O     0.50000   0.50000   0.25000   0.00000  Uiso   1.00
O310   O     0.49027   0.45726   0.16625   0.00000  Uiso   1.00
O311   O     0.46020   0.53979   0.33749   0.00000  Uiso   1.00
O312   O     0.54421   0.50826   0.15877   0.00000  Uiso   1.00
O313   O     0.50532   0.49468   0.33749   0.00000  Uiso   1.00
O314   O     0.51182   0.41434   0.27821   0.00000  Uiso   1.00
O315   O     0.47914   0.59469   0.26767   0.00000  Uiso   1.00
O316   O     0.40785   0.46584   0.23607   0.00000  Uiso   1.00
O317   O     0.60119   0.52512   0.21806   0.00000  Uiso   1.00
O318   O     0.40323   0.52293   0.27820   0.00000  Uiso   1.00
O319   O     0.58773   0.48610   0.26768   0.00000  Uiso   1.00
O320   O     0.47133   0.40236   0.23607   0.00000  Uiso   1.00
O321   O     0.53771   0.58860   0.21806   0.00000  Uiso   1.00
Zn322  Zn    0.52577   0.47423   0.28278   0.00000  Uiso   1.00
Zn323  Zn    0.46792   0.45711   0.22258   0.00000  Uiso   1.00
Zn324  Zn    0.54500   0.52997   0.21188   0.00000  Uiso   1.00
Zn325  Zn    0.46131   0.53868   0.28277   0.00000  Uiso   1.00
Br326  Br    0.90271   0.37179   0.01777   0.00000  Uiso   1.00
Br327  Br    0.90033   0.34669   0.20404   0.00000  Uiso   1.00
Br328  Br    0.76094   0.66000   0.29553   0.00000  Uiso   1.00
Br329  Br    0.91640   0.47915   0.40431   0.00000  Uiso   1.00
C330   C     0.71903   0.49291   0.25924   0.00000  Uiso   1.00
C331   C     0.87917   0.47679   0.45746   0.00000  Uiso   1.00
C332   C     0.88882   0.44898   0.47866   0.00000  Uiso   1.00
C333   C     0.94789   0.50708   0.24099   0.00000  Uiso   1.00
C334   C     0.87595   0.45406   0.01980   0.00000  Uiso   1.00
C335   C     0.85775   0.49080   0.03962   0.00000  Uiso   1.00
C336   C     0.88284   0.42451   0.04161   0.00000  Uiso   1.00
C337   C     0.87307   0.43241   0.08243   0.00000  Uiso   1.00
C338   C     0.85841   0.50245   0.07931   0.00000  Uiso   1.00
C339   C     0.99442   0.51022   0.23680   0.00000  Uiso   1.00
C340   C     0.67388   0.49141   0.26165   0.00000  Uiso   1.00
C341   C     0.78415   0.56687   0.41858   0.00000  Uiso   1.00
C342   C     0.84790   0.65572   0.23952   0.00000  Uiso   1.00
C343   C     0.81698   0.34599   0.26181   0.00000  Uiso   1.00
C344   C     0.82273   0.38966   0.25855   0.00000  Uiso   1.00
C345   C     0.84338   0.61104   0.24146   0.00000  Uiso   1.00
C346   C     0.85446   0.47915   0.14393   0.00000  Uiso   1.00
C347   C     0.81228   0.52137   0.35608   0.00000  Uiso   1.00
C348   C     0.80643   0.53311   0.39845   0.00000  Uiso   1.00
C349   C     0.86232   0.47151   0.10123   0.00000  Uiso   1.00
C350   C     0.78007   0.57783   0.45854   0.00000  Uiso   1.00
C351   C     0.69360   0.53410   0.20517   0.00000  Uiso   1.00
C352   C     0.82535   0.51132   0.41852   0.00000  Uiso   1.00
C353   C     0.86164   0.54771   0.09665   0.00000  Uiso   1.00
C354   C     0.82613   0.52484   0.45740   0.00000  Uiso   1.00
C355   C     0.80011   0.55652   0.47824   0.00000  Uiso   1.00
C356   C     0.84854   0.50518   0.47717   0.00000  Uiso   1.00
C357   C     0.83923   0.51350   0.01891   0.00000  Uiso   1.00
C358   C     0.80881   0.54147   0.03909   0.00000  Uiso   1.00
C359   C     0.79180   0.56450   0.01893   0.00000  Uiso   1.00
H360   H     0.76983   0.58682   0.03554   0.00000  Uiso   1.00
H361   H     0.71239   0.56002   0.21898   0.00000  Uiso   1.00
H362   H     0.71625   0.51298   0.18497   0.00000  Uiso   1.00
H363   H     0.86669   0.56969   0.07446   0.00000  Uiso   1.00
H364   H     0.83234   0.55359   0.12146   0.00000  Uiso   1.00
H365   H     0.89075   0.55536   0.10750   0.00000  Uiso   1.00
H366   H     0.98416   0.47438   0.28451   0.00000  Uiso   1.00
H367   H     0.87639   0.40884   0.09935   0.00000  Uiso   1.00
H368   H     0.90907   0.42514   0.46265   0.00000  Uiso   1.00
H369   H     0.76087   0.60266   0.47414   0.00000  Uiso   1.00
H370   H     0.76918   0.58422   0.40370   0.00000  Uiso   1.00
H371   H     0.83757   0.48261   0.40391   0.00000  Uiso   1.00
H372   H     0.79675   0.54517   0.07082   0.00000  Uiso   1.00
H373   H     0.67773   0.54769   0.18723   0.00000  Uiso   1.00
O374   O     0.83333   0.50000   0.25000   0.00000  Uiso   1.00
O375   O     0.82360   0.45726   0.16625   0.00000  Uiso   1.00
O376   O     0.79354   0.53979   0.33749   0.00000  Uiso   1.00
O377   O     0.87755   0.50826   0.15877   0.00000  Uiso   1.00
O378   O     0.83865   0.49468   0.33749   0.00000  Uiso   1.00
O379   O     0.84515   0.41434   0.27821   0.00000  Uiso   1.00
O380   O     0.81247   0.59469   0.26767   0.00000  Uiso   1.00
O381   O     0.74119   0.46584   0.23607   0.00000  Uiso   1.00
O382   O     0.93452   0.52512   0.21806   0.00000  Uiso   1.00
O383   O     0.73656   0.52293   0.27820   0.00000  Uiso   1.00
O384   O     0.92106   0.48610   0.26768   0.00000  Uiso   1.00
O385   O     0.80467   0.40236   0.23607   0.00000  Uiso   1.00
O386   O     0.87104   0.58860   0.21806   0.00000  Uiso   1.00
Zn387  Zn    0.85910   0.47423   0.28278   0.00000  Uiso   1.00
Zn388  Zn    0.80125   0.45711   0.22258   0.00000  Uiso   1.00
Zn389  Zn    0.87833   0.52997   0.21188   0.00000  Uiso   1.00
Zn390  Zn    0.79465   0.53868   0.28277   0.00000  Uiso   1.00
Br391  Br    0.23604   0.70512   0.01777   0.00000  Uiso   1.00
Br392  Br    0.23366   0.68002   0.20404   0.00000  Uiso   1.00
Br393  Br    0.09427   0.99334   0.29553   0.00000  Uiso   1.00
Br394  Br    0.24973   0.81248   0.40431   0.00000  Uiso   1.00
C395   C     0.05236   0.82624   0.25924   0.00000  Uiso   1.00
C396   C     0.21251   0.81012   0.45746   0.00000  Uiso   1.00
C397   C     0.22216   0.78231   0.47866   0.00000  Uiso   1.00
C398   C     0.28122   0.84041   0.24099   0.00000  Uiso   1.00
C399   C     0.20928   0.78739   0.01980   0.00000  Uiso   1.00
C400   C     0.19108   0.82414   0.03962   0.00000  Uiso   1.00
C401   C     0.21617   0.75785   0.04161   0.00000  Uiso   1.00
C402   C     0.20640   0.76574   0.08243   0.00000  Uiso   1.00
C403   C     0.19174   0.83579   0.07931   0.00000  Uiso   1.00
C404   C     0.32775   0.84355   0.23680   0.00000  Uiso   1.00
C405   C     0.00721   0.82474   0.26165   0.00000  Uiso   1.00
C406   C     0.11749   0.90020   0.41858   0.00000  Uiso   1.00
C407   C     0.18123   0.98905   0.23952   0.00000  Uiso   1.00
C408   C     0.15031   0.67933   0.26181   0.00000  Uiso   1.00
C409   C     0.15606   0.72300   0.25855   0.00000  Uiso   1.00
C410   C     0.17672   0.94438   0.24146   0.00000  Uiso   1.00
C411   C     0.18779   0.81248   0.14393   0.00000  Uiso   1.00
C412   C     0.14561   0.85470   0.35608   0.00000  Uiso   1.00
C413   C     0.13977   0.86644   0.39845   0.00000  Uiso   1.00
C414   C     0.19566   0.80484   0.10123   0.00000  Uiso   1.00
C415   C     0.11340   0.91116   0.45854   0.00000  Uiso   1.00
C416   C     0.02693   0.86744   0.20517   0.00000  Uiso   1.00
C417   C     0.15869   0.84465   0.41852   0.00000  Uiso   1.00
C418   C     0.19497   0.88105   0.09665   0.00000  Uiso   1.00
C419   C     0.15947   0.85817   0.45740   0.00000  Uiso   1.00
C420   C     0.13344   0.88986   0.47824   0.00000  Uiso   1.00
C421   C     0.18188   0.83852   0.47717   0.00000  Uiso   1.00
C422   C     0.17257   0.84684   0.01891   0.00000  Uiso   1.00
C423   C     0.14214   0.87481   0.03909   0.00000  Uiso   1.00
C424   C     0.12513   0.89783   0.01893   0.00000  Uiso   1.00
H425   H     0.10316   0.92015   0.03554   0.00000  Uiso   1.00
H426   H     0.04573   0.89336   0.21898   0.00000  Uiso   1.00
H427   H     0.04959   0.84631   0.18497   0.00000  Uiso   1.00
H428   H     0.20002   0.90303   0.07446   0.00000  Uiso   1.00
H429   H     0.16568   0.88692   0.12146   0.00000  Uiso   1.00
H430   H     0.22408   0.88869   0.10750   0.00000  Uiso   1.00
H431   H     0.31749   0.80771   0.28451   0.00000  Uiso   1.00
H432   H     0.20973   0.74218   0.09935   0.00000  Uiso   1.00
H433   H     0.24241   0.75847   0.46265   0.00000  Uiso   1.00
H434   H     0.09420   0.93599   0.47414   0.00000  Uiso   1.00
H435   H     0.10251   0.91755   0.40370   0.00000  Uiso   1.00
H436   H     0.17090   0.81594   0.40391   0.00000  Uiso   1.00
H437   H     0.13008   0.87851   0.07082   0.00000  Uiso   1.00
H438   H     0.01107   0.88102   0.18723   0.00000  Uiso   1.00
O439   O     0.16667   0.83333   0.25000   0.00000  Uiso   1.00
O440   O     0.15693   0.79060   0.16625   0.00000  Uiso   1.00
O441   O     0.12687   0.87313   0.33749   0.00000  Uiso   1.00
O442   O     0.21088   0.84159   0.15877   0.00000  Uiso   1.00
O443   O     0.17198   0.82802   0.33749   0.00000  Uiso   1.00
O444   O     0.17849   0.74768   0.27821   0.00000  Uiso   1.00
O445   O     0.14581   0.92803   0.26767   0.00000  Uiso   1.00
O446   O     0.07452   0.79917   0.23607   0.00000  Uiso   1.00
O447   O     0.26785   0.85845   0.21806   0.00000  Uiso   1.00
O448   O     0.06990   0.85627   0.27820   0.00000  Uiso   1.00
O449   O     0.25440   0.81944   0.26768   0.00000  Uiso   1.00
O450   O     0.13800   0.73570   0.23607   0.00000  Uiso   1.00
O451   O     0.20437   0.92193   0.21806   0.00000  Uiso   1.00
Zn452  Zn    0.19244   0.80756   0.28278   0.00000  Uiso   1.00
Zn453  Zn    0.13459   0.79044   0.22258   0.00000  Uiso   1.00
Zn454  Zn    0.21166   0.86331   0.21188   0.00000  Uiso   1.00
Zn455  Zn    0.12798   0.87202   0.28277   0.00000  Uiso   1.00
Br456  Br    0.56937   0.70512   0.01777   0.00000  Uiso   1.00
Br457  Br    0.56699   0.68002   0.20404   0.00000  Uiso   1.00
Br458  Br    0.42761   0.99334   0.29553   0.00000  Uiso   1.00
Br459  Br    0.58306   0.81248   0.40431   0.00000  Uiso   1.00
C460   C     0.38570   0.82624   0.25924   0.00000  Uiso   1.00
C461   C     0.54584   0.81012   0.45746   0.00000  Uiso   1.00
C462   C     0.55549   0.78231   0.47866   0.00000  Uiso   1.00
C463   C     0.61456   0.84041   0.24099   0.00000  Uiso   1.00
C464   C     0.54262   0.78739   0.01980   0.00000  Uiso   1.00
C465   C     0.52442   0.82414   0.03962   0.00000  Uiso   1.00
C466   C     0.54950   0.75785   0.04161   0.00000  Uiso   1.00
C467   C     0.53974   0.76574   0.08243   0.00000  Uiso   1.00
C468   C     0.52508   0.83579   0.07931   0.00000  Uiso   1.00
C469   C     0.66109   0.84355   0.23680   0.00000  Uiso   1.00
C470   C     0.34054   0.82474   0.26165   0.00000  Uiso   1.00
C471   C     0.45082   0.90020   0.41858   0.00000  Uiso   1.00
C472   C     0.51456   0.98905   0.23952   0.00000  Uiso   1.00
C473   C     0.48365   0.67933   0.26181   0.00000  Uiso   1.00
C474   C     0.48940   0.72300   0.25855   0.00000  Uiso   1.00
C475   C     0.51005   0.94438   0.24146   0.00000  Uiso   1.00
C476   C     0.52112   0.81248   0.14393   0.00000  Uiso   1.00
C477   C     0.47895   0.85470   0.35608   0.00000  Uiso   1.00
C478   C     0.47310   0.86644   0.39845   0.00000  Uiso   1.00
C479   C     0.52899   0.80484   0.10123   0.00000  Uiso   1.00
C480   C     0.44673   0.91116   0.45854   0.00000  Uiso   1.00
C481   C     0.36027   0.86744   0.20517   0.00000  Uiso   1.00
C482   C     0.49202   0.84465   0.41852   0.00000  Uiso   1.00
C483   C     0.52830   0.88105   0.09665   0.00000  Uiso   1.00
C484   C     0.49280   0.85817   0.45740   0.00000  Uiso   1.00
C485   C     0.46677   0.88986   0.47824   0.00000  Uiso   1.00
C486   C     0.51521   0.83852   0.47717   0.00000  Uiso   1.00
C487   C     0.50590   0.84684   0.01891   0.00000  Uiso   1.00
C488   C     0.47547   0.87481   0.03909   0.00000  Uiso   1.00
C489   C     0.45847   0.89783   0.01893   0.00000  Uiso   1.00
H490   H     0.43650   0.92015   0.03554   0.00000  Uiso   1.00
H491   H     0.37906   0.89336   0.21898   0.00000  Uiso   1.00
H492   H     0.38292   0.84631   0.18497   0.00000  Uiso   1.00
H493   H     0.53336   0.90303   0.07446   0.00000  Uiso   1.00
H494   H     0.49901   0.88692   0.12146   0.00000  Uiso   1.00
H495   H     0.55742   0.88869   0.10750   0.00000  Uiso   1.00
H496   H     0.65082   0.80771   0.28451   0.00000  Uiso   1.00
H497   H     0.54306   0.74218   0.09935   0.00000  Uiso   1.00
H498   H     0.57574   0.75847   0.46265   0.00000  Uiso   1.00
H499   H     0.42754   0.93599   0.47414   0.00000  Uiso   1.00
H500   H     0.43585   0.91755   0.40370   0.00000  Uiso   1.00
H501   H     0.50424   0.81594   0.40391   0.00000  Uiso   1.00
H502   H     0.46342   0.87851   0.07082   0.00000  Uiso   1.00
H503   H     0.34440   0.88102   0.18723   0.00000  Uiso   1.00
O504   O     0.50000   0.83333   0.25000   0.00000  Uiso   1.00
O505   O     0.49027   0.79060   0.16625   0.00000  Uiso   1.00
O506   O     0.46020   0.87313   0.33749   0.00000  Uiso   1.00
O507   O     0.54421   0.84159   0.15877   0.00000  Uiso   1.00
O508   O     0.50532   0.82802   0.33749   0.00000  Uiso   1.00
O509   O     0.51182   0.74768   0.27821   0.00000  Uiso   1.00
O510   O     0.47914   0.92803   0.26767   0.00000  Uiso   1.00
O511   O     0.40785   0.79917   0.23607   0.00000  Uiso   1.00
O512   O     0.60119   0.85845   0.21806   0.00000  Uiso   1.00
O513   O     0.40323   0.85627   0.27820   0.00000  Uiso   1.00
O514   O     0.58773   0.81944   0.26768   0.00000  Uiso   1.00
O515   O     0.47133   0.73570   0.23607   0.00000  Uiso   1.00
O516   O     0.53771   0.92193   0.21806   0.00000  Uiso   1.00
Zn517  Zn    0.52577   0.80756   0.28278   0.00000  Uiso   1.00
Zn518  Zn    0.46792   0.79044   0.22258   0.00000  Uiso   1.00
Zn519  Zn    0.54500   0.86331   0.21188   0.00000  Uiso   1.00
Zn520  Zn    0.46131   0.87202   0.28277   0.00000  Uiso   1.00
Br521  Br    0.90271   0.70512   0.01777   0.00000  Uiso   1.00
Br522  Br    0.90033   0.68002   0.20404   0.00000  Uiso   1.00
Br523  Br    0.76094   0.99334   0.29553   0.00000  Uiso   1.00
Br524  Br    0.91640   0.81248   0.40431   0.00000  Uiso   1.00
C525   C     0.71903   0.82624   0.25924   0.00000  Uiso   1.00
C526   C     0.87917   0.81012   0.45746   0.00000  Uiso   1.00
C527   C     0.88882   0.78231   0.47866   0.00000  Uiso   1.00
C528   C     0.94789   0.84041   0.24099   0.00000  Uiso   1.00
C529   C     0.87595   0.78739   0.01980   0.00000  Uiso   1.00
C530   C     0.85775   0.82414   0.03962   0.00000  Uiso   1.00
C531   C     0.88284   0.75785   0.04161   0.00000  Uiso   1.00
C532   C     0.87307   0.76574   0.08243   0.00000  Uiso   1.00
C533   C     0.85841   0.83579   0.07931   0.00000  Uiso   1.00
C534   C     0.99442   0.84355   0.23680   0.00000  Uiso   1.00
C535   C     0.67388   0.82474   0.26165   0.00000  Uiso   1.00
C536   C     0.78415   0.90020   0.41858   0.00000  Uiso   1.00
C537   C     0.84790   0.98905   0.23952   0.00000  Uiso   1.00
C538   C     0.81698   0.67933   0.26181   0.00000  Uiso   1.00
C539   C     0.82273   0.72300   0.25855   0.00000  Uiso   1.00
C540   C     0.84338   0.94438   0.24146   0.00000  Uiso   1.00
C541   C     0.85446   0.81248   0.14393   0.00000  Uiso   1.00
C542   C     0.81228   0.85470   0.35608   0.00000  Uiso   1.00
C543   C     0.80643   0.86644   0.39845   0.00000  Uiso   1.00
C544   C     0.86232   0.80484   0.10123   0.00000  Uiso   1.00
C545   C     0.78007   0.91116   0.45854   0.00000  Uiso   1.00
C546   C     0.69360   0.86744   0.20517   0.00000  Uiso   1.00
C547   C     0.82535   0.84465   0.41852   0.00000  Uiso   1.00
C548   C     0.86164   0.88105   0.09665   0.00000  Uiso   1.00
C549   C     0.82613   0.85817   0.45740   0.00000  Uiso   1.00
C550   C     0.80011   0.88986   0.47824   0.00000  Uiso   1.00
C551   C     0.84854   0.83852   0.47717   0.00000  Uiso   1.00
C552   C     0.83923   0.84684   0.01891   0.00000  Uiso   1.00
C553   C     0.80881   0.87481   0.03909   0.00000  Uiso   1.00
C554   C     0.79180   0.89783   0.01893   0.00000  Uiso   1.00
H555   H     0.76983   0.92015   0.03554   0.00000  Uiso   1.00
H556   H     0.71239   0.89336   0.21898   0.00000  Uiso   1.00
H557   H     0.71625   0.84631   0.18497   0.00000  Uiso   1.00
H558   H     0.86669   0.90303   0.07446   0.00000  Uiso   1.00
H559   H     0.83234   0.88692   0.12146   0.00000  Uiso   1.00
H560   H     0.89075   0.88869   0.10750   0.00000  Uiso   1.00
H561   H     0.98416   0.80771   0.28451   0.00000  Uiso   1.00
H562   H     0.87639   0.74218   0.09935   0.00000  Uiso   1.00
H563   H     0.90907   0.75847   0.46265   0.00000  Uiso   1.00
H564   H     0.76087   0.93599   0.47414   0.00000  Uiso   1.00
H565   H     0.76918   0.91755   0.40370   0.00000  Uiso   1.00
H566   H     0.83757   0.81594   0.40391   0.00000  Uiso   1.00
H567   H     0.79675   0.87851   0.07082   0.00000  Uiso   1.00
H568   H     0.67773   0.88102   0.18723   0.00000  Uiso   1.00
O569   O     0.83333   0.83333   0.25000   0.00000  Uiso   1.00
O570   O     0.82360   0.79060   0.16625   0.00000  Uiso   1.00
O571   O     0.79354   0.87313   0.33749   0.00000  Uiso   1.00
O572   O     0.87755   0.84159   0.15877   0.00000  Uiso   1.00
O573   O     0.83865   0.82802   0.33749   0.00000  Uiso   1.00
O574   O     0.84515   0.74768   0.27821   0.00000  Uiso   1.00
O575   O     0.81247   0.92803   0.26767   0.00000  Uiso   1.00
O576   O     0.74119   0.79917   0.23607   0.00000  Uiso   1.00
O577   O     0.93452   0.85845   0.21806   0.00000  Uiso   1.00
O578   O     0.73656   0.85627   0.27820   0.00000  Uiso   1.00
O579   O     0.92106   0.81944   0.26768   0.00000  Uiso   1.00
O580   O     0.80467   0.73570   0.23607   0.00000  Uiso   1.00
O581   O     0.87104   0.92193   0.21806   0.00000  Uiso   1.00
Zn582  Zn    0.85910   0.80756   0.28278   0.00000  Uiso   1.00
Zn583  Zn    0.80125   0.79044   0.22258   0.00000  Uiso   1.00
Zn584  Zn    0.87833   0.86331   0.21188   0.00000  Uiso   1.00
Zn585  Zn    0.79465   0.87202   0.28277   0.00000  Uiso   1.00
Br586  Br    0.23604   0.03846   0.51777   0.00000  Uiso   1.00
Br587  Br    0.23366   0.01335   0.70404   0.00000  Uiso   1.00
Br588  Br    0.09427   0.32667   0.79553   0.00000  Uiso   1.00
Br589  Br    0.24973   0.14582   0.90431   0.00000  Uiso   1.00
C590   C     0.05236   0.15957   0.75924   0.00000  Uiso   1.00
C591   C     0.21251   0.14345   0.95746   0.00000  Uiso   1.00
C592   C     0.22216   0.11565   0.97866   0.00000  Uiso   1.00
C593   C     0.28122   0.17374   0.74099   0.00000  Uiso   1.00
C594   C     0.20928   0.12072   0.51980   0.00000  Uiso   1.00
C595   C     0.19108   0.15747   0.53962   0.00000  Uiso   1.00
C596   C     0.21617   0.09118   0.54161   0.00000  Uiso   1.00
C597   C     0.20640   0.09908   0.58243   0.00000  Uiso   1.00
C598   C     0.19174   0.16912   0.57931   0.00000  Uiso   1.00
C599   C     0.32775   0.17688   0.73680   0.00000  Uiso   1.00
C600   C     0.00721   0.15807   0.76165   0.00000  Uiso   1.00
C601   C     0.11749   0.23354   0.91858   0.00000  Uiso   1.00
C602   C     0.18123   0.32239   0.73952   0.00000  Uiso   1.00
C603   C     0.15031   0.01266   0.76181   0.00000  Uiso   1.00
C604   C     0.15606   0.05633   0.75855   0.00000  Uiso   1.00
C605   C     0.17672   0.27771   0.74146   0.00000  Uiso   1.00
C606   C     0.18779   0.14581   0.64393   0.00000  Uiso   1.00
C607   C     0.14561   0.18804   0.85608   0.00000  Uiso   1.00
C608   C     0.13977   0.19977   0.89845   0.00000  Uiso   1.00
C609   C     0.19566   0.13817   0.60123   0.00000  Uiso   1.00
C610   C     0.11340   0.24450   0.95854   0.00000  Uiso   1.00
C611   C     0.02693   0.20077   0.70517   0.00000  Uiso   1.00
C612   C     0.15869   0.17798   0.91852   0.00000  Uiso   1.00
C613   C     0.19497   0.21438   0.59665   0.00000  Uiso   1.00
C614   C     0.15947   0.19151   0.95740   0.00000  Uiso   1.00
C615   C     0.13344   0.22319   0.97824   0.00000  Uiso   1.00
C616   C     0.18188   0.17185   0.97717   0.00000  Uiso   1.00
C617   C     0.17257   0.18017   0.51891   0.00000  Uiso   1.00
C618   C     0.14214   0.20814   0.53909   0.00000  Uiso   1.00
C619   C     0.12513   0.23117   0.51893   0.00000  Uiso   1.00
H620   H     0.10316   0.25349   0.53554   0.00000  Uiso   1.00
H621   H     0.04573   0.22669   0.71898   0.00000  Uiso   1.00
H622   H     0.04959   0.17964   0.68497   0.00000  Uiso   1.00
H623   H     0.20002   0.23636   0.57446   0.00000  Uiso   1.00
H624   H     0.16568   0.22026   0.62146   0.00000  Uiso   1.00
H625   H     0.22408   0.22202   0.60750   0.00000  Uiso   1.00
H626   H     0.31749   0.14105   0.78451   0.00000  Uiso   1.00
H627   H     0.20973   0.07551   0.59935   0.00000  Uiso   1.00
H628   H     0.24241   0.09180   0.96265   0.00000  Uiso   1.00
H629   H     0.09420   0.26933   0.97414   0.00000  Uiso   1.00
H630   H     0.10251   0.25088   0.90370   0.00000  Uiso   1.00
H631   H     0.17090   0.14927   0.90391   0.00000  Uiso   1.00
H632   H     0.13008   0.21184   0.57082   0.00000  Uiso   1.00
H633   H     0.01107   0.21435   0.68723   0.00000  Uiso   1.00
O634   O     0.16667   0.16667   0.75000   0.00000  Uiso   1.00
O635   O     0.15693   0.12393   0.66625   0.00000  Uiso   1.00
O636   O     0.12687   0.20646   0.83749   0.00000  Uiso   1.00
O637   O     0.21088   0.17493   0.65877   0.00000  Uiso   1.00
O638   O     0.17198   0.16135   0.83749   0.00000  Uiso   1.00
O639   O     0.17849   0.08101   0.77821   0.00000  Uiso   1.00
O640   O     0.14581   0.26136   0.76767   0.00000  Uiso   1.00
O641   O     0.07452   0.13251   0.73607   0.00000  Uiso   1.00
O642   O     0.26785   0.19179   0.71806   0.00000  Uiso   1.00
O643   O     0.06990   0.18960   0.77820   0.00000  Uiso   1.00
O644   O     0.25440   0.15277   0.76768   0.00000  Uiso   1.00
O645   O     0.13800   0.06903   0.73607   0.00000  Uiso   1.00
O646   O     0.20437   0.25527   0.71806   0.00000  Uiso   1.00
Zn647  Zn    0.19244   0.14090   0.78278   0.00000  Uiso   1.00
Zn648  Zn    0.13459   0.12378   0.72258   0.00000  Uiso   1.00
Zn649  Zn    0.21166   0.19664   0.71188   0.00000  Uiso   1.00
Zn650  Zn    0.12798   0.20535   0.78277   0.00000  Uiso   1.00
Br651  Br    0.56937   0.03846   0.51777   0.00000  Uiso   1.00
Br652  Br    0.56699   0.01335   0.70404   0.00000  Uiso   1.00
Br653  Br    0.42761   0.32667   0.79553   0.00000  Uiso   1.00
Br654  Br    0.58306   0.14582   0.90431   0.00000  Uiso   1.00
C655   C     0.38570   0.15957   0.75924   0.00000  Uiso   1.00
C656   C     0.54584   0.14345   0.95746   0.00000  Uiso   1.00
C657   C     0.55549   0.11565   0.97866   0.00000  Uiso   1.00
C658   C     0.61456   0.17374   0.74099   0.00000  Uiso   1.00
C659   C     0.54262   0.12072   0.51980   0.00000  Uiso   1.00
C660   C     0.52442   0.15747   0.53962   0.00000  Uiso   1.00
C661   C     0.54950   0.09118   0.54161   0.00000  Uiso   1.00
C662   C     0.53974   0.09908   0.58243   0.00000  Uiso   1.00
C663   C     0.52508   0.16912   0.57931   0.00000  Uiso   1.00
C664   C     0.66109   0.17688   0.73680   0.00000  Uiso   1.00
C665   C     0.34054   0.15807   0.76165   0.00000  Uiso   1.00
C666   C     0.45082   0.23354   0.91858   0.00000  Uiso   1.00
C667   C     0.51456   0.32239   0.73952   0.00000  Uiso   1.00
C668   C     0.48365   0.01266   0.76181   0.00000  Uiso   1.00
C669   C     0.48940   0.05633   0.75855   0.00000  Uiso   1.00
C670   C     0.51005   0.27771   0.74146   0.00000  Uiso   1.00
C671   C     0.52112   0.14581   0.64393   0.00000  Uiso   1.00
C672   C     0.47895   0.18804   0.85608   0.00000  Uiso   1.00
C673   C     0.47310   0.19977   0.89845   0.00000  Uiso   1.00
C674   C     0.52899   0.13817   0.60123   0.00000  Uiso   1.00
C675   C     0.44673   0.24450   0.95854   0.00000  Uiso   1.00
C676   C     0.36027   0.20077   0.70517   0.00000  Uiso   1.00
C677   C     0.49202   0.17798   0.91852   0.00000  Uiso   1.00
C678   C     0.52830   0.21438   0.59665   0.00000  Uiso   1.00
C679   C     0.49280   0.19151   0.95740   0.00000  Uiso   1.00
C680   C     0.46677   0.22319   0.97824   0.00000  Uiso   1.00
C681   C     0.51521   0.17185   0.97717   0.00000  Uiso   1.00
C682   C     0.50590   0.18017   0.51891   0.00000  Uiso   1.00
C683   C     0.47547   0.20814   0.53909   0.00000  Uiso   1.00
C684   C     0.45847   0.23117   0.51893   0.00000  Uiso   1.00
H685   H     0.43650   0.25349   0.53554   0.00000  Uiso   1.00
H686   H     0.37906   0.22669   0.71898   0.00000  Uiso   1.00
H687   H     0.38292   0.17964   0.68497   0.00000  Uiso   1.00
H688   H     0.53336   0.23636   0.57446   0.00000  Uiso   1.00
H689   H     0.49901   0.22026   0.62146   0.00000  Uiso   1.00
H690   H     0.55742   0.22202   0.60750   0.00000  Uiso   1.00
H691   H     0.65082   0.14105   0.78451   0.00000  Uiso   1.00
H692   H     0.54306   0.07551   0.59935   0.00000  Uiso   1.00
H693   H     0.57574   0.09180   0.96265   0.00000  Uiso   1.00
H694   H     0.42754   0.26933   0.97414   0.00000  Uiso   1.00
H695   H     0.43585   0.25088   0.90370   0.00000  Uiso   1.00
H696   H     0.50424   0.14927   0.90391   0.00000  Uiso   1.00
H697   H     0.46342   0.21184   0.57082   0.00000  Uiso   1.00
H698   H     0.34440   0.21435   0.68723   0.00000  Uiso   1.00
O699   O     0.50000   0.16667   0.75000   0.00000  Uiso   1.00
O700   O     0.49027   0.12393   0.66625   0.00000  Uiso   1.00
O701   O     0.46020   0.20646   0.83749   0.00000  Uiso   1.00
O702   O     0.54421   0.17493   0.65877   0.00000  Uiso   1.00
O703   O     0.50532   0.16135   0.83749   0.00000  Uiso   1.00
O704   O     0.51182   0.08101   0.77821   0.00000  Uiso   1.00
O705   O     0.47914   0.26136   0.76767   0.00000  Uiso   1.00
O706   O     0.40785   0.13251   0.73607   0.00000  Uiso   1.00
O707   O     0.60119   0.19179   0.71806   0.00000  Uiso   1.00
O708   O     0.40323   0.18960   0.77820   0.00000  Uiso   1.00
O709   O     0.58773   0.15277   0.76768   0.00000  Uiso   1.00
O710   O     0.47133   0.06903   0.73607   0.00000  Uiso   1.00
O711   O     0.53771   0.25527   0.71806   0.00000  Uiso   1.00
Zn712  Zn    0.52577   0.14090   0.78278   0.00000  Uiso   1.00
Zn713  Zn    0.46792   0.12378   0.72258   0.00000  Uiso   1.00
Zn714  Zn    0.54500   0.19664   0.71188   0.00000  Uiso   1.00
Zn715  Zn    0.46131   0.20535   0.78277   0.00000  Uiso   1.00
Br716  Br    0.90271   0.03846   0.51777   0.00000  Uiso   1.00
Br717  Br    0.90033   0.01335   0.70404   0.00000  Uiso   1.00
Br718  Br    0.76094   0.32667   0.79553   0.00000  Uiso   1.00
Br719  Br    0.91640   0.14582   0.90431   0.00000  Uiso   1.00
C720   C     0.71903   0.15957   0.75924   0.00000  Uiso   1.00
C721   C     0.87917   0.14345   0.95746   0.00000  Uiso   1.00
C722   C     0.88882   0.11565   0.97866   0.00000  Uiso   1.00
C723   C     0.94789   0.17374   0.74099   0.00000  Uiso   1.00
C724   C     0.87595   0.12072   0.51980   0.00000  Uiso   1.00
C725   C     0.85775   0.15747   0.53962   0.00000  Uiso   1.00
C726   C     0.88284   0.09118   0.54161   0.00000  Uiso   1.00
C727   C     0.87307   0.09908   0.58243   0.00000  Uiso   1.00
C728   C     0.85841   0.16912   0.57931   0.00000  Uiso   1.00
C729   C     0.99442   0.17688   0.73680   0.00000  Uiso   1.00
C730   C     0.67388   0.15807   0.76165   0.00000  Uiso   1.00
C731   C     0.78415   0.23354   0.91858   0.00000  Uiso   1.00
C732   C     0.84790   0.32239   0.73952   0.00000  Uiso   1.00
C733   C     0.81698   0.01266   0.76181   0.00000  Uiso   1.00
C734   C     0.82273   0.05633   0.75855   0.00000  Uiso   1.00
C735   C     0.84338   0.27771   0.74146   0.00000  Uiso   1.00
C736   C     0.85446   0.14581   0.64393   0.00000  Uiso   1.00
C737   C     0.81228   0.18804   0.85608   0.00000  Uiso   1.00
C738   C     0.80643   0.19977   0.89845   0.00000  Uiso   1.00
C739   C     0.86232   0.13817   0.60123   0.00000  Uiso   1.00
C740   C     0.78007   0.24450   0.95854   0.00000  Uiso   1.00
C741   C     0.69360   0.20077   0.70517   0.00000  Uiso   1.00
C742   C     0.82535   0.17798   0.91852   0.00000  Uiso   1.00
C743   C     0.86164   0.21438   0.59665   0.00000  Uiso   1.00
C744   C     0.82613   0.19151   0.95740   0.00000  Uiso   1.00
C745   C     0.80011   0.22319   0.97824   0.00000  Uiso   1.00
C746   C     0.84854   0.17185   0.97717   0.00000  Uiso   1.00
C747   C     0.83923   0.18017   0.51891   0.00000  Uiso   1.00
C748   C     0.80881   0.20814   0.53909   0.00000  Uiso   1.00
C749   C     0.79180   0.23117   0.51893   0.00000  Uiso   1.00
H750   H     0.76983   0.25349   0.53554   0.00000  Uiso   1.00
H751   H     0.71239   0.22669   0.71898   0.00000  Uiso   1.00
H752   H     0.71625   0.17964   0.68497   0.00000  Uiso   1.00
H753   H     0.86669   0.23636   0.57446   0.00000  Uiso   1.00
H754   H     0.83234   0.22026   0.62146   0.00000  Uiso   1.00
H755   H     0.89075   0.22202   0.60750   0.00000  Uiso   1.00
H756   H     0.98416   0.14105   0.78451   0.00000  Uiso   1.00
H757   H     0.87639   0.07551   0.59935   0.00000  Uiso   1.00
H758   H     0.90907   0.09180   0.96265   0.00000  Uiso   1.00
H759   H     0.76087   0.26933   0.97414   0.00000  Uiso   1.00
H760   H     0.76918   0.25088   0.90370   0.00000  Uiso   1.00
H761   H     0.83757   0.14927   0.90391   0.00000  Uiso   1.00
H762   H     0.79675   0.21184   0.57082   0.00000  Uiso   1.00
H763   H     0.67773   0.21435   0.68723   0.00000  Uiso   1.00
O764   O     0.83333   0.16667   0.75000   0.00000  Uiso   1.00
O765   O     0.82360   0.12393   0.66625   0.00000  Uiso   1.00
O766   O     0.79354   0.20646   0.83749   0.00000  Uiso   1.00
O767   O     0.87755   0.17493   0.65877   0.00000  Uiso   1.00
O768   O     0.83865   0.16135   0.83749   0.00000  Uiso   1.00
O769   O     0.84515   0.08101   0.77821   0.00000  Uiso   1.00
O770   O     0.81247   0.26136   0.76767   0.00000  Uiso   1.00
O771   O     0.74119   0.13251   0.73607   0.00000  Uiso   1.00
O772   O     0.93452   0.19179   0.71806   0.00000  Uiso   1.00
O773   O     0.73656   0.18960   0.77820   0.00000  Uiso   1.00
O774   O     0.92106   0.15277   0.76768   0.00000  Uiso   1.00
O775   O     0.80467   0.06903   0.73607   0.00000  Uiso   1.00
O776   O     0.87104   0.25527   0.71806   0.00000  Uiso   1.00
Zn777  Zn    0.85910   0.14090   0.78278   0.00000  Uiso   1.00
Zn778  Zn    0.80125   0.12378   0.72258   0.00000  Uiso   1.00
Zn779  Zn    0.87833   0.19664   0.71188   0.00000  Uiso   1.00
Zn780  Zn    0.79465   0.20535   0.78277   0.00000  Uiso   1.00
Br781  Br    0.23604   0.37179   0.51777   0.00000  Uiso   1.00
Br782  Br    0.23366   0.34669   0.70404   0.00000  Uiso   1.00
Br783  Br    0.09427   0.66000   0.79553   0.00000  Uiso   1.00
Br784  Br    0.24973   0.47915   0.90431   0.00000  Uiso   1.00
C785   C     0.05236   0.49291   0.75924   0.00000  Uiso   1.00
C786   C     0.21251   0.47679   0.95746   0.00000  Uiso   1.00
C787   C     0.22216   0.44898   0.97866   0.00000  Uiso   1.00
C788   C     0.28122   0.50708   0.74099   0.00000  Uiso   1.00
C789   C     0.20928   0.45406   0.51980   0.00000  Uiso   1.00
C790   C     0.19108   0.49080   0.53962   0.00000  Uiso   1.00
C791   C     0.21617   0.42451   0.54161   0.00000  Uiso   1.00
C792   C     0.20640   0.43241   0.58243   0.00000  Uiso   1.00
C793   C     0.19174   0.50245   0.57931   0.00000  Uiso   1.00
C794   C     0.32775   0.51022   0.73680   0.00000  Uiso   1.00
C795   C     0.00721   0.49141   0.76165   0.00000  Uiso   1.00
C796   C     0.11749   0.56687   0.91858   0.00000  Uiso   1.00
C797   C     0.18123   0.65572   0.73952   0.00000  Uiso   1.00
C798   C     0.15031   0.34599   0.76181   0.00000  Uiso   1.00
C799   C     0.15606   0.38966   0.75855   0.00000  Uiso   1.00
C800   C     0.17672   0.61104   0.74146   0.00000  Uiso   1.00
C801   C     0.18779   0.47915   0.64393   0.00000  Uiso   1.00
C802   C     0.14561   0.52137   0.85608   0.00000  Uiso   1.00
C803   C     0.13977   0.53311   0.89845   0.00000  Uiso   1.00
C804   C     0.19566   0.47151   0.60123   0.00000  Uiso   1.00
C805   C     0.11340   0.57783   0.95854   0.00000  Uiso   1.00
C806   C     0.02693   0.53410   0.70517   0.00000  Uiso   1.00
C807   C     0.15869   0.51132   0.91852   0.00000  Uiso   1.00
C808   C     0.19497   0.54771   0.59665   0.00000  Uiso   1.00
C809   C     0.15947   0.52484   0.95740   0.00000  Uiso   1.00
C810   C     0.13344   0.55652   0.97824   0.00000  Uiso   1.00
C811   C     0.18188   0.50518   0.97717   0.00000  Uiso   1.00
C812   C     0.17257   0.51350   0.51891   0.00000  Uiso   1.00
C813   C     0.14214   0.54147   0.53909   0.00000  Uiso   1.00
C814   C     0.12513   0.56450   0.51893   0.00000  Uiso   1.00
H815   H     0.10316   0.58682   0.53554   0.00000  Uiso   1.00
H816   H     0.04573   0.56002   0.71898   0.00000  Uiso   1.00
H817   H     0.04959   0.51298   0.68497   0.00000  Uiso   1.00
H818   H     0.20002   0.56969   0.57446   0.00000  Uiso   1.00
H819   H     0.16568   0.55359   0.62146   0.00000  Uiso   1.00
H820   H     0.22408   0.55536   0.60750   0.00000  Uiso   1.00
H821   H     0.31749   0.47438   0.78451   0.00000  Uiso   1.00
H822   H     0.20973   0.40884   0.59935   0.00000  Uiso   1.00
H823   H     0.24241   0.42514   0.96265   0.00000  Uiso   1.00
H824   H     0.09420   0.60266   0.97414   0.00000  Uiso   1.00
H825   H     0.10251   0.58422   0.90370   0.00000  Uiso   1.00
H826   H     0.17090   0.48261   0.90391   0.00000  Uiso   1.00
H827   H     0.13008   0.54517   0.57082   0.00000  Uiso   1.00
H828   H     0.01107   0.54769   0.68723   0.00000  Uiso   1.00
O829   O     0.16667   0.50000   0.75000   0.00000  Uiso   1.00
O830   O     0.15693   0.45726   0.66625   0.00000  Uiso   1.00
O831   O     0.12687   0.53979   0.83749   0.00000  Uiso   1.00
O832   O     0.21088   0.50826   0.65877   0.00000  Uiso   1.00
O833   O     0.17198   0.49468   0.83749   0.00000  Uiso   1.00
O834   O     0.17849   0.41434   0.77821   0.00000  Uiso   1.00
O835   O     0.14581   0.59469   0.76767   0.00000  Uiso   1.00
O836   O     0.07452   0.46584   0.73607   0.00000  Uiso   1.00
O837   O     0.26785   0.52512   0.71806   0.00000  Uiso   1.00
O838   O     0.06990   0.52293   0.77820   0.00000  Uiso   1.00
O839   O     0.25440   0.48610   0.76768   0.00000  Uiso   1.00
O840   O     0.13800   0.40236   0.73607   0.00000  Uiso   1.00
O841   O     0.20437   0.58860   0.71806   0.00000  Uiso   1.00
Zn842  Zn    0.19244   0.47423   0.78278   0.00000  Uiso   1.00
Zn843  Zn    0.13459   0.45711   0.72258   0.00000  Uiso   1.00
Zn844  Zn    0.21166   0.52997   0.71188   0.00000  Uiso   1.00
Zn845  Zn    0.12798   0.53868   0.78277   0.00000  Uiso   1.00
Br846  Br    0.56937   0.37179   0.51777   0.00000  Uiso   1.00
Br847  Br    0.56699   0.34669   0.70404   0.00000  Uiso   1.00
Br848  Br    0.42761   0.66000   0.79553   0.00000  Uiso   1.00
Br849  Br    0.58306   0.47915   0.90431   0.00000  Uiso   1.00
C850   C     0.38570   0.49291   0.75924   0.00000  Uiso   1.00
C851   C     0.54584   0.47679   0.95746   0.00000  Uiso   1.00
C852   C     0.55549   0.44898   0.97866   0.00000  Uiso   1.00
C853   C     0.61456   0.50708   0.74099   0.00000  Uiso   1.00
C854   C     0.54262   0.45406   0.51980   0.00000  Uiso   1.00
C855   C     0.52442   0.49080   0.53962   0.00000  Uiso   1.00
C856   C     0.54950   0.42451   0.54161   0.00000  Uiso   1.00
C857   C     0.53974   0.43241   0.58243   0.00000  Uiso   1.00
C858   C     0.52508   0.50245   0.57931   0.00000  Uiso   1.00
C859   C     0.66109   0.51022   0.73680   0.00000  Uiso   1.00
C860   C     0.34054   0.49141   0.76165   0.00000  Uiso   1.00
C861   C     0.45082   0.56687   0.91858   0.00000  Uiso   1.00
C862   C     0.51456   0.65572   0.73952   0.00000  Uiso   1.00
C863   C     0.48365   0.34599   0.76181   0.00000  Uiso   1.00
C864   C     0.48940   0.38966   0.75855   0.00000  Uiso   1.00
C865   C     0.51005   0.61104   0.74146   0.00000  Uiso   1.00
C866   C     0.52112   0.47915   0.64393   0.00000  Uiso   1.00
C867   C     0.47895   0.52137   0.85608   0.00000  Uiso   1.00
C868   C     0.47310   0.53311   0.89845   0.00000  Uiso   1.00
C869   C     0.52899   0.47151   0.60123   0.00000  Uiso   1.00
C870   C     0.44673   0.57783   0.95854   0.00000  Uiso   1.00
C871   C     0.36027   0.53410   0.70517   0.00000  Uiso   1.00
C872   C     0.49202   0.51132   0.91852   0.00000  Uiso   1.00
C873   C     0.52830   0.54771   0.59665   0.00000  Uiso   1.00
C874   C     0.49280   0.52484   0.95740   0.00000  Uiso   1.00
C875   C     0.46677   0.55652   0.97824   0.00000  Uiso   1.00
C876   C     0.51521   0.50518   0.97717   0.00000  Uiso   1.00
C877   C     0.50590   0.51350   0.51891   0.00000  Uiso   1.00
C878   C     0.47547   0.54147   0.53909   0.00000  Uiso   1.00
C879   C     0.45847   0.56450   0.51893   0.00000  Uiso   1.00
H880   H     0.43650   0.58682   0.53554   0.00000  Uiso   1.00
H881   H     0.37906   0.56002   0.71898   0.00000  Uiso   1.00
H882   H     0.38292   0.51298   0.68497   0.00000  Uiso   1.00
H883   H     0.53336   0.56969   0.57446   0.00000  Uiso   1.00
H884   H     0.49901   0.55359   0.62146   0.00000  Uiso   1.00
H885   H     0.55742   0.55536   0.60750   0.00000  Uiso   1.00
H886   H     0.65082   0.47438   0.78451   0.00000  Uiso   1.00
H887   H     0.54306   0.40884   0.59935   0.00000  Uiso   1.00
H888   H     0.57574   0.42514   0.96265   0.00000  Uiso   1.00
H889   H     0.42754   0.60266   0.97414   0.00000  Uiso   1.00
H890   H     0.43585   0.58422   0.90370   0.00000  Uiso   1.00
H891   H     0.50424   0.48261   0.90391   0.00000  Uiso   1.00
H892   H     0.46342   0.54517   0.57082   0.00000  Uiso   1.00
H893   H     0.34440   0.54769   0.68723   0.00000  Uiso   1.00
O894   O     0.50000   0.50000   0.75000   0.00000  Uiso   1.00
O895   O     0.49027   0.45726   0.66625   0.00000  Uiso   1.00
O896   O     0.46020   0.53979   0.83749   0.00000  Uiso   1.00
O897   O     0.54421   0.50826   0.65877   0.00000  Uiso   1.00
O898   O     0.50532   0.49468   0.83749   0.00000  Uiso   1.00
O899   O     0.51182   0.41434   0.77821   0.00000  Uiso   1.00
O900   O     0.47914   0.59469   0.76767   0.00000  Uiso   1.00
O901   O     0.40785   0.46584   0.73607   0.00000  Uiso   1.00
O902   O     0.60119   0.52512   0.71806   0.00000  Uiso   1.00
O903   O     0.40323   0.52293   0.77820   0.00000  Uiso   1.00
O904   O     0.58773   0.48610   0.76768   0.00000  Uiso   1.00
O905   O     0.47133   0.40236   0.73607   0.00000  Uiso   1.00
O906   O     0.53771   0.58860   0.71806   0.00000  Uiso   1.00
Zn907  Zn    0.52577   0.47423   0.78278   0.00000  Uiso   1.00
Zn908  Zn    0.46792   0.45711   0.72258   0.00000  Uiso   1.00
Zn909  Zn    0.54500   0.52997   0.71188   0.00000  Uiso   1.00
Zn910  Zn    0.46131   0.53868   0.78277   0.00000  Uiso   1.00
Br911  Br    0.90271   0.37179   0.51777   0.00000  Uiso   1.00
Br912  Br    0.90033   0.34669   0.70404   0.00000  Uiso   1.00
Br913  Br    0.76094   0.66000   0.79553   0.00000  Uiso   1.00
Br914  Br    0.91640   0.47915   0.90431   0.00000  Uiso   1.00
C915   C     0.71903   0.49291   0.75924   0.00000  Uiso   1.00
C916   C     0.87917   0.47679   0.95746   0.00000  Uiso   1.00
C917   C     0.88882   0.44898   0.97866   0.00000  Uiso   1.00
C918   C     0.94789   0.50708   0.74099   0.00000  Uiso   1.00
C919   C     0.87595   0.45406   0.51980   0.00000  Uiso   1.00
C920   C     0.85775   0.49080   0.53962   0.00000  Uiso   1.00
C921   C     0.88284   0.42451   0.54161   0.00000  Uiso   1.00
C922   C     0.87307   0.43241   0.58243   0.00000  Uiso   1.00
C923   C     0.85841   0.50245   0.57931   0.00000  Uiso   1.00
C924   C     0.99442   0.51022   0.73680   0.00000  Uiso   1.00
C925   C     0.67388   0.49141   0.76165   0.00000  Uiso   1.00
C926   C     0.78415   0.56687   0.91858   0.00000  Uiso   1.00
C927   C     0.84790   0.65572   0.73952   0.00000  Uiso   1.00
C928   C     0.81698   0.34599   0.76181   0.00000  Uiso   1.00
C929   C     0.82273   0.38966   0.75855   0.00000  Uiso   1.00
C930   C     0.84338   0.61104   0.74146   0.00000  Uiso   1.00
C931   C     0.85446   0.47915   0.64393   0.00000  Uiso   1.00
C932   C     0.81228   0.52137   0.85608   0.00000  Uiso   1.00
C933   C     0.80643   0.53311   0.89845   0.00000  Uiso   1.00
C934   C     0.86232   0.47151   0.60123   0.00000  Uiso   1.00
C935   C     0.78007   0.57783   0.95854   0.00000  Uiso   1.00
C936   C     0.69360   0.53410   0.70517   0.00000  Uiso   1.00
C937   C     0.82535   0.51132   0.91852   0.00000  Uiso   1.00
C938   C     0.86164   0.54771   0.59665   0.00000  Uiso   1.00
C939   C     0.82613   0.52484   0.95740   0.00000  Uiso   1.00
C940   C     0.80011   0.55652   0.97824   0.00000  Uiso   1.00
C941   C     0.84854   0.50518   0.97717   0.00000  Uiso   1.00
C942   C     0.83923   0.51350   0.51891   0.00000  Uiso   1.00
C943   C     0.80881   0.54147   0.53909   0.00000  Uiso   1.00
C944   C     0.79180   0.56450   0.51893   0.00000  Uiso   1.00
H945   H     0.76983   0.58682   0.53554   0.00000  Uiso   1.00
H946   H     0.71239   0.56002   0.71898   0.00000  Uiso   1.00
H947   H     0.71625   0.51298   0.68497   0.00000  Uiso   1.00
H948   H     0.86669   0.56969   0.57446   0.00000  Uiso   1.00
H949   H     0.83234   0.55359   0.62146   0.00000  Uiso   1.00
H950   H     0.89075   0.55536   0.60750   0.00000  Uiso   1.00
H951   H     0.98416   0.47438   0.78451   0.00000  Uiso   1.00
H952   H     0.87639   0.40884   0.59935   0.00000  Uiso   1.00
H953   H     0.90907   0.42514   0.96265   0.00000  Uiso   1.00
H954   H     0.76087   0.60266   0.97414   0.00000  Uiso   1.00
H955   H     0.76918   0.58422   0.90370   0.00000  Uiso   1.00
H956   H     0.83757   0.48261   0.90391   0.00000  Uiso   1.00
H957   H     0.79675   0.54517   0.57082   0.00000  Uiso   1.00
H958   H     0.67773   0.54769   0.68723   0.00000  Uiso   1.00
O959   O     0.83333   0.50000   0.75000   0.00000  Uiso   1.00
O960   O     0.82360   0.45726   0.66625   0.00000  Uiso   1.00
O961   O     0.79354   0.53979   0.83749   0.00000  Uiso   1.00
O962   O     0.87755   0.50826   0.65877   0.00000  Uiso   1.00
O963   O     0.83865   0.49468   0.83749   0.00000  Uiso   1.00
O964   O     0.84515   0.41434   0.77821   0.00000  Uiso   1.00
O965   O     0.81247   0.59469   0.76767   0.00000  Uiso   1.00
O966   O     0.74119   0.46584   0.73607   0.00000  Uiso   1.00
O967   O     0.93452   0.52512   0.71806   0.00000  Uiso   1.00
O968   O     0.73656   0.52293   0.77820   0.00000  Uiso   1.00
O969   O     0.92106   0.48610   0.76768   0.00000  Uiso   1.00
O970   O     0.80467   0.40236   0.73607   0.00000  Uiso   1.00
O971   O     0.87104   0.58860   0.71806   0.00000  Uiso   1.00
Zn972  Zn    0.85910   0.47423   0.78278   0.00000  Uiso   1.00
Zn973  Zn    0.80125   0.45711   0.72258   0.00000  Uiso   1.00
Zn974  Zn    0.87833   0.52997   0.71188   0.00000  Uiso   1.00
Zn975  Zn    0.79465   0.53868   0.78277   0.00000  Uiso   1.00
Br976  Br    0.23604   0.70512   0.51777   0.00000  Uiso   1.00
Br977  Br    0.23366   0.68002   0.70404   0.00000  Uiso   1.00
Br978  Br    0.09427   0.99334   0.79553   0.00000  Uiso   1.00
Br979  Br    0.24973   0.81248   0.90431   0.00000  Uiso   1.00
C980   C     0.05236   0.82624   0.75924   0.00000  Uiso   1.00
C981   C     0.21251   0.81012   0.95746   0.00000  Uiso   1.00
C982   C     0.22216   0.78231   0.97866   0.00000  Uiso   1.00
C983   C     0.28122   0.84041   0.74099   0.00000  Uiso   1.00
C984   C     0.20928   0.78739   0.51980   0.00000  Uiso   1.00
C985   C     0.19108   0.82414   0.53962   0.00000  Uiso   1.00
C986   C     0.21617   0.75785   0.54161   0.00000  Uiso   1.00
C987   C     0.20640   0.76574   0.58243   0.00000  Uiso   1.00
C988   C     0.19174   0.83579   0.57931   0.00000  Uiso   1.00
C989   C     0.32775   0.84355   0.73680   0.00000  Uiso   1.00
C990   C     0.00721   0.82474   0.76165   0.00000  Uiso   1.00
C991   C     0.11749   0.90020   0.91858   0.00000  Uiso   1.00
C992   C     0.18123   0.98905   0.73952   0.00000  Uiso   1.00
C993   C     0.15031   0.67933   0.76181   0.00000  Uiso   1.00
C994   C     0.15606   0.72300   0.75855   0.00000  Uiso   1.00
C995   C     0.17672   0.94438   0.74146   0.00000  Uiso   1.00
C996   C     0.18779   0.81248   0.64393   0.00000  Uiso   1.00
C997   C     0.14561   0.85470   0.85608   0.00000  Uiso   1.00
C998   C     0.13977   0.86644   0.89845   0.00000  Uiso   1.00
C999   C     0.19566   0.80484   0.60123   0.00000  Uiso   1.00
C1000  C     0.11340   0.91116   0.95854   0.00000  Uiso   1.00
C1001  C     0.02693   0.86744   0.70517   0.00000  Uiso   1.00
C1002  C     0.15869   0.84465   0.91852   0.00000  Uiso   1.00
C1003  C     0.19497   0.88105   0.59665   0.00000  Uiso   1.00
C1004  C     0.15947   0.85817   0.95740   0.00000  Uiso   1.00
C1005  C     0.13344   0.88986   0.97824   0.00000  Uiso   1.00
C1006  C     0.18188   0.83852   0.97717   0.00000  Uiso   1.00
C1007  C     0.17257   0.84684   0.51891   0.00000  Uiso   1.00
C1008  C     0.14214   0.87481   0.53909   0.00000  Uiso   1.00
C1009  C     0.12513   0.89783   0.51893   0.00000  Uiso   1.00
H1010  H     0.10316   0.92015   0.53554   0.00000  Uiso   1.00
H1011  H     0.04573   0.89336   0.71898   0.00000  Uiso   1.00
H1012  H     0.04959   0.84631   0.68497   0.00000  Uiso   1.00
H1013  H     0.20002   0.90303   0.57446   0.00000  Uiso   1.00
H1014  H     0.16568   0.88692   0.62146   0.00000  Uiso   1.00
H1015  H     0.22408   0.88869   0.60750   0.00000  Uiso   1.00
H1016  H     0.31749   0.80771   0.78451   0.00000  Uiso   1.00
H1017  H     0.20973   0.74218   0.59935   0.00000  Uiso   1.00
H1018  H     0.24241   0.75847   0.96265   0.00000  Uiso   1.00
H1019  H     0.09420   0.93599   0.97414   0.00000  Uiso   1.00
H1020  H     0.10251   0.91755   0.90370   0.00000  Uiso   1.00
H1021  H     0.17090   0.81594   0.90391   0.00000  Uiso   1.00
H1022  H     0.13008   0.87851   0.57082   0.00000  Uiso   1.00
H1023  H     0.01107   0.88102   0.68723   0.00000  Uiso   1.00
O1024  O     0.16667   0.83333   0.75000   0.00000  Uiso   1.00
O1025  O     0.15693   0.79060   0.66625   0.00000  Uiso   1.00
O1026  O     0.12687   0.87313   0.83749   0.00000  Uiso   1.00
O1027  O     0.21088   0.84159   0.65877   0.00000  Uiso   1.00
O1028  O     0.17198   0.82802   0.83749   0.00000  Uiso   1.00
O1029  O     0.17849   0.74768   0.77821   0.00000  Uiso   1.00
O1030  O     0.14581   0.92803   0.76767   0.00000  Uiso   1.00
O1031  O     0.07452   0.79917   0.73607   0.00000  Uiso   1.00
O1032  O     0.26785   0.85845   0.71806   0.00000  Uiso   1.00
O1033  O     0.06990   0.85627   0.77820   0.00000  Uiso   1.00
O1034  O     0.25440   0.81944   0.76768   0.00000  Uiso   1.00
O1035  O     0.13800   0.73570   0.73607   0.00000  Uiso   1.00
O1036  O     0.20437   0.92193   0.71806   0.00000  Uiso   1.00
Zn1037 Zn    0.19244   0.80756   0.78278   0.00000  Uiso   1.00
Zn1038 Zn    0.13459   0.79044   0.72258   0.00000  Uiso   1.00
Zn1039 Zn    0.21166   0.86331   0.71188   0.00000  Uiso   1.00
Zn1040 Zn    0.12798   0.87202   0.78277   0.00000  Uiso   1.00
Br1041 Br    0.56937   0.70512   0.51777   0.00000  Uiso   1.00
Br1042 Br    0.56699   0.68002   0.70404   0.00000  Uiso   1.00
Br1043 Br    0.42761   0.99334   0.79553   0.00000  Uiso   1.00
Br1044 Br    0.58306   0.81248   0.90431   0.00000  Uiso   1.00
C1045  C     0.38570   0.82624   0.75924   0.00000  Uiso   1.00
C1046  C     0.54584   0.81012   0.95746   0.00000  Uiso   1.00
C1047  C     0.55549   0.78231   0.97866   0.00000  Uiso   1.00
C1048  C     0.61456   0.84041   0.74099   0.00000  Uiso   1.00
C1049  C     0.54262   0.78739   0.51980   0.00000  Uiso   1.00
C1050  C     0.52442   0.82414   0.53962   0.00000  Uiso   1.00
C1051  C     0.54950   0.75785   0.54161   0.00000  Uiso   1.00
C1052  C     0.53974   0.76574   0.58243   0.00000  Uiso   1.00
C1053  C     0.52508   0.83579   0.57931   0.00000  Uiso   1.00
C1054  C     0.66109   0.84355   0.73680   0.00000  Uiso   1.00
C1055  C     0.34054   0.82474   0.76165   0.00000  Uiso   1.00
C1056  C     0.45082   0.90020   0.91858   0.00000  Uiso   1.00
C1057  C     0.51456   0.98905   0.73952   0.00000  Uiso   1.00
C1058  C     0.48365   0.67933   0.76181   0.00000  Uiso   1.00
C1059  C     0.48940   0.72300   0.75855   0.00000  Uiso   1.00
C1060  C     0.51005   0.94438   0.74146   0.00000  Uiso   1.00
C1061  C     0.52112   0.81248   0.64393   0.00000  Uiso   1.00
C1062  C     0.47895   0.85470   0.85608   0.00000  Uiso   1.00
C1063  C     0.47310   0.86644   0.89845   0.00000  Uiso   1.00
C1064  C     0.52899   0.80484   0.60123   0.00000  Uiso   1.00
C1065  C     0.44673   0.91116   0.95854   0.00000  Uiso   1.00
C1066  C     0.36027   0.86744   0.70517   0.00000  Uiso   1.00
C1067  C     0.49202   0.84465   0.91852   0.00000  Uiso   1.00
C1068  C     0.52830   0.88105   0.59665   0.00000  Uiso   1.00
C1069  C     0.49280   0.85817   0.95740   0.00000  Uiso   1.00
C1070  C     0.46677   0.88986   0.97824   0.00000  Uiso   1.00
C1071  C     0.51521   0.83852   0.97717   0.00000  Uiso   1.00
C1072  C     0.50590   0.84684   0.51891   0.00000  Uiso   1.00
C1073  C     0.47547   0.87481   0.53909   0.00000  Uiso   1.00
C1074  C     0.45847   0.89783   0.51893   0.00000  Uiso   1.00
H1075  H     0.43650   0.92015   0.53554   0.00000  Uiso   1.00
H1076  H     0.37906   0.89336   0.71898   0.00000  Uiso   1.00
H1077  H     0.38292   0.84631   0.68497   0.00000  Uiso   1.00
H1078  H     0.53336   0.90303   0.57446   0.00000  Uiso   1.00
H1079  H     0.49901   0.88692   0.62146   0.00000  Uiso   1.00
H1080  H     0.55742   0.88869   0.60750   0.00000  Uiso   1.00
H1081  H     0.65082   0.80771   0.78451   0.00000  Uiso   1.00
H1082  H     0.54306   0.74218   0.59935   0.00000  Uiso   1.00
H1083  H     0.57574   0.75847   0.96265   0.00000  Uiso   1.00
H1084  H     0.42754   0.93599   0.97414   0.00000  Uiso   1.00
H1085  H     0.43585   0.91755   0.90370   0.00000  Uiso   1.00
H1086  H     0.50424   0.81594   0.90391   0.00000  Uiso   1.00
H1087  H     0.46342   0.87851   0.57082   0.00000  Uiso   1.00
H1088  H     0.34440   0.88102   0.68723   0.00000  Uiso   1.00
O1089  O     0.50000   0.83333   0.75000   0.00000  Uiso   1.00
O1090  O     0.49027   0.79060   0.66625   0.00000  Uiso   1.00
O1091  O     0.46020   0.87313   0.83749   0.00000  Uiso   1.00
O1092  O     0.54421   0.84159   0.65877   0.00000  Uiso   1.00
O1093  O     0.50532   0.82802   0.83749   0.00000  Uiso   1.00
O1094  O     0.51182   0.74768   0.77821   0.00000  Uiso   1.00
O1095  O     0.47914   0.92803   0.76767   0.00000  Uiso   1.00
O1096  O     0.40785   0.79917   0.73607   0.00000  Uiso   1.00
O1097  O     0.60119   0.85845   0.71806   0.00000  Uiso   1.00
O1098  O     0.40323   0.85627   0.77820   0.00000  Uiso   1.00
O1099  O     0.58773   0.81944   0.76768   0.00000  Uiso   1.00
O1100  O     0.47133   0.73570   0.73607   0.00000  Uiso   1.00
O1101  O     0.53771   0.92193   0.71806   0.00000  Uiso   1.00
Zn1102 Zn    0.52577   0.80756   0.78278   0.00000  Uiso   1.00
Zn1103 Zn    0.46792   0.79044   0.72258   0.00000  Uiso   1.00
Zn1104 Zn    0.54500   0.86331   0.71188   0.00000  Uiso   1.00
Zn1105 Zn    0.46131   0.87202   0.78277   0.00000  Uiso   1.00
Br1106 Br    0.90271   0.70512   0.51777   0.00000  Uiso   1.00
Br1107 Br    0.90033   0.68002   0.70404   0.00000  Uiso   1.00
Br1108 Br    0.76094   0.99334   0.79553   0.00000  Uiso   1.00
Br1109 Br    0.91640   0.81248   0.90431   0.00000  Uiso   1.00
C1110  C     0.71903   0.82624   0.75924   0.00000  Uiso   1.00
C1111  C     0.87917   0.81012   0.95746   0.00000  Uiso   1.00
C1112  C     0.88882   0.78231   0.97866   0.00000  Uiso   1.00
C1113  C     0.94789   0.84041   0.74099   0.00000  Uiso   1.00
C1114  C     0.87595   0.78739   0.51980   0.00000  Uiso   1.00
C1115  C     0.85775   0.82414   0.53962   0.00000  Uiso   1.00
C1116  C     0.88284   0.75785   0.54161   0.00000  Uiso   1.00
C1117  C     0.87307   0.76574   0.58243   0.00000  Uiso   1.00
C1118  C     0.85841   0.83579   0.57931   0.00000  Uiso   1.00
C1119  C     0.99442   0.84355   0.73680   0.00000  Uiso   1.00
C1120  C     0.67388   0.82474   0.76165   0.00000  Uiso   1.00
C1121  C     0.78415   0.90020   0.91858   0.00000  Uiso   1.00
C1122  C     0.84790   0.98905   0.73952   0.00000  Uiso   1.00
C1123  C     0.81698   0.67933   0.76181   0.00000  Uiso   1.00
C1124  C     0.82273   0.72300   0.75855   0.00000  Uiso   1.00
C1125  C     0.84338   0.94438   0.74146   0.00000  Uiso   1.00
C1126  C     0.85446   0.81248   0.64393   0.00000  Uiso   1.00
C1127  C     0.81228   0.85470   0.85608   0.00000  Uiso   1.00
C1128  C     0.80643   0.86644   0.89845   0.00000  Uiso   1.00
C1129  C     0.86232   0.80484   0.60123   0.00000  Uiso   1.00
C1130  C     0.78007   0.91116   0.95854   0.00000  Uiso   1.00
C1131  C     0.69360   0.86744   0.70517   0.00000  Uiso   1.00
C1132  C     0.82535   0.84465   0.91852   0.00000  Uiso   1.00
C1133  C     0.86164   0.88105   0.59665   0.00000  Uiso   1.00
C1134  C     0.82613   0.85817   0.95740   0.00000  Uiso   1.00
C1135  C     0.80011   0.88986   0.97824   0.00000  Uiso   1.00
C1136  C     0.84854   0.83852   0.97717   0.00000  Uiso   1.00
C1137  C     0.83923   0.84684   0.51891   0.00000  Uiso   1.00
C1138  C     0.80881   0.87481   0.53909   0.00000  Uiso   1.00
C1139  C     0.79180   0.89783   0.51893   0.00000  Uiso   1.00
H1140  H     0.76983   0.92015   0.53554   0.00000  Uiso   1.00
H1141  H     0.71239   0.89336   0.71898   0.00000  Uiso   1.00
H1142  H     0.71625   0.84631   0.68497   0.00000  Uiso   1.00
H1143  H     0.86669   0.90303   0.57446   0.00000  Uiso   1.00
H1144  H     0.83234   0.88692   0.62146   0.00000  Uiso   1.00
H1145  H     0.89075   0.88869   0.60750   0.00000  Uiso   1.00
H1146  H     0.98416   0.80771   0.78451   0.00000  Uiso   1.00
H1147  H     0.87639   0.74218   0.59935   0.00000  Uiso   1.00
H1148  H     0.90907   0.75847   0.96265   0.00000  Uiso   1.00
H1149  H     0.76087   0.93599   0.97414   0.00000  Uiso   1.00
H1150  H     0.76918   0.91755   0.90370   0.00000  Uiso   1.00
H1151  H     0.83757   0.81594   0.90391   0.00000  Uiso   1.00
H1152  H     0.79675   0.87851   0.57082   0.00000  Uiso   1.00
H1153  H     0.67773   0.88102   0.68723   0.00000  Uiso   1.00
O1154  O     0.83333   0.83333   0.75000   0.00000  Uiso   1.00
O1155  O     0.82360   0.79060   0.66625   0.00000  Uiso   1.00
O1156  O     0.79354   0.87313   0.83749   0.00000  Uiso   1.00
O1157  O     0.87755   0.84159   0.65877   0.00000  Uiso   1.00
O1158  O     0.83865   0.82802   0.83749   0.00000  Uiso   1.00
O1159  O     0.84515   0.74768   0.77821   0.00000  Uiso   1.00
O1160  O     0.81247   0.92803   0.76767   0.00000  Uiso   1.00
O1161  O     0.74119   0.79917   0.73607   0.00000  Uiso   1.00
O1162  O     0.93452   0.85845   0.71806   0.00000  Uiso   1.00
O1163  O     0.73656   0.85627   0.77820   0.00000  Uiso   1.00
O1164  O     0.92106   0.81944   0.76768   0.00000  Uiso   1.00
O1165  O     0.80467   0.73570   0.73607   0.00000  Uiso   1.00
O1166  O     0.87104   0.92193   0.71806   0.00000  Uiso   1.00
Zn1167 Zn    0.85910   0.80756   0.78278   0.00000  Uiso   1.00
Zn1168 Zn    0.80125   0.79044   0.72258   0.00000  Uiso   1.00
Zn1169 Zn    0.87833   0.86331   0.71188   0.00000  Uiso   1.00
Zn1170 Zn    0.79465   0.87202   0.78277   0.00000  Uiso   1.00
loop_
_geom_bond_atom_site_label_1
_geom_bond_atom_site_label_2
_geom_bond_distance
_geom_bond_site_symmetry_2
_ccdc_geom_bond_type
Br1    C11     1.922   .     S
Br2    C407    1.933   1_545 S
Br3    C213    1.932   .     S
Br4    C6      1.930   .     S
C5     O56     1.270   .     A
C5     O58     1.270   .     A
C5     C15     1.440   .     S
C6     C7      1.391   .     A
C6     C31     1.423   .     A
C7     H43     1.082   .     S
C7     C594    1.397   .     S
C8     C14     1.466   .     S
C8     O57     1.283   .     A
C8     O59     1.286   .     A
C9     C10     1.419   .     A
C9     C11     1.409   .     A
C9     C592    1.397   1_554 S
C10    C32     1.425   .     A
C10    C13     1.421   .     A
C11    C12     1.392   .     A
C12    C24     1.397   .     A
C12    H42     1.084   .     S
C13    C28     1.518   .     S
C13    C24     1.410   .     A
C14    C80     1.343   .     S
C14    C91     1.516   .     S
C15    C144    1.343   1_455 S
C15    H171    1.086   1_455 S
C16    H45     1.083   .     S
C16    C23     1.401   .     A
C16    C25     1.393   .     A
C17    C20     1.455   .     S
C17    Br197   1.933   .     S
C17    C213    1.350   .     S
C18    C19     1.428   .     S
C18    C407    1.350   1_545 S
C18    Br393   1.932   1_545 S
C19    O54     1.279   .     A
C19    O60     1.274   .     A
C20    O55     1.263   .     A
C20    O61     1.273   .     A
C21    O50     1.275   .     A
C21    C24     1.461   .     S
C21    O52     1.274   .     A
C22    O53     1.288   .     A
C22    C23     1.470   .     S
C22    O51     1.286   .     A
C23    C27     1.398   .     A
C25    C30     1.403   .     A
C25    H44     1.084   .     S
C26    H48     1.109   .     S
C26    H37     1.111   .     S
C26    H36     1.111   .     S
C26    C144    1.516   1_455 S
C27    C29     1.403   .     A
C27    H46     1.076   .     S
C28    H38     1.108   .     S
C28    H40     1.109   .     S
C28    H39     1.111   .     S
C29    C30     1.418   .     A
C29    C31     1.426   .     A
C30    C619    1.391   .     S
C31    C617    1.425   .     S
C32    C33     1.412   .     A
C32    C616    1.425   1_554 S
C33    C34     1.387   .     A
C33    H47     1.079   .     S
C34    H35     1.084   .     S
C34    C615    1.391   1_554 S
H41    C80     1.086   .     S
O49    Zn63    1.943   .     S
O49    Zn64    1.929   .     S
O49    Zn65    1.931   .     S
O49    Zn62    1.972   .     S
O50    Zn63    1.928   .     S
O51    Zn65    1.943   .     S
O52    Zn64    1.934   .     S
O53    Zn62    1.922   .     S
O54    Zn62    1.934   .     S
O55    Zn65    1.938   .     S
O56    Zn63    1.925   .     S
O57    Zn64    1.940   .     S
O58    Zn65    1.931   .     S
O59    Zn62    1.918   .     S
O60    Zn63    1.949   .     S
O61    Zn64    1.939   .     S
Br66   C76     1.922   .     S
Br67   C472    1.933   1_545 S
Br68   C278    1.932   .     S
Br69   C71     1.930   .     S
C70    O121    1.270   .     A
C70    O123    1.270   .     A
C70    C80     1.440   .     S
C71    C72     1.391   .     A
C71    C96     1.423   .     A
C72    H108    1.082   .     S
C72    C659    1.397   .     S
C73    C79     1.466   .     S
C73    O122    1.283   .     A
C73    O124    1.286   .     A
C74    C75     1.419   .     A
C74    C76     1.409   .     A
C74    C657    1.397   1_554 S
C75    C97     1.425   .     A
C75    C78     1.421   .     A
C76    C77     1.392   .     A
C77    C89     1.397   .     A
C77    H107    1.084   .     S
C78    C93     1.518   .     S
C78    C89     1.410   .     A
C79    C145    1.343   .     S
C79    C156    1.516   .     S
C81    H110    1.083   .     S
C81    C88     1.401   .     A
C81    C90     1.393   .     A
C82    C85     1.455   .     S
C82    Br262   1.933   .     S
C82    C278    1.350   .     S
C83    C84     1.428   .     S
C83    C472    1.350   1_545 S
C83    Br458   1.932   1_545 S
C84    O119    1.279   .     A
C84    O125    1.274   .     A
C85    O120    1.263   .     A
C85    O126    1.273   .     A
C86    O115    1.275   .     A
C86    C89     1.461   .     S
C86    O117    1.274   .     A
C87    O118    1.288   .     A
C87    C88     1.470   .     S
C87    O116    1.286   .     A
C88    C92     1.398   .     A
C90    C95     1.403   .     A
C90    H109    1.084   .     S
C91    H113    1.109   .     S
C91    H102    1.111   .     S
C91    H101    1.111   .     S
C92    C94     1.403   .     A
C92    H111    1.076   .     S
C93    H103    1.108   .     S
C93    H105    1.109   .     S
C93    H104    1.111   .     S
C94    C95     1.418   .     A
C94    C96     1.426   .     A
C95    C684    1.391   .     S
C96    C682    1.425   .     S
C97    C98     1.412   .     A
C97    C681    1.425   1_554 S
C98    C99     1.387   .     A
C98    H112    1.079   .     S
C99    H100    1.084   .     S
C99    C680    1.391   1_554 S
H106   C145    1.086   .     S
O114   Zn128   1.943   .     S
O114   Zn129   1.929   .     S
O114   Zn130   1.931   .     S
O114   Zn127   1.972   .     S
O115   Zn128   1.928   .     S
O116   Zn130   1.943   .     S
O117   Zn129   1.934   .     S
O118   Zn127   1.922   .     S
O119   Zn127   1.934   .     S
O120   Zn130   1.938   .     S
O121   Zn128   1.925   .     S
O122   Zn129   1.940   .     S
O123   Zn130   1.931   .     S
O124   Zn127   1.918   .     S
O125   Zn128   1.949   .     S
O126   Zn129   1.939   .     S
Br131  C141    1.922   .     S
Br132  C537    1.933   1_545 S
Br133  C343    1.932   .     S
Br134  C136    1.930   .     S
C135   O186    1.270   .     A
C135   O188    1.270   .     A
C135   C145    1.440   .     S
C136   C137    1.391   .     A
C136   C161    1.423   .     A
C137   H173    1.082   .     S
C137   C724    1.397   .     S
C138   C144    1.466   .     S
C138   O187    1.283   .     A
C138   O189    1.286   .     A
C139   C140    1.419   .     A
C139   C141    1.409   .     A
C139   C722    1.397   1_554 S
C140   C162    1.425   .     A
C140   C143    1.421   .     A
C141   C142    1.392   .     A
C142   C154    1.397   .     A
C142   H172    1.084   .     S
C143   C158    1.518   .     S
C143   C154    1.410   .     A
C144   C15     1.343   1_655 S
C144   C26     1.516   1_655 S
C146   H175    1.083   .     S
C146   C153    1.401   .     A
C146   C155    1.393   .     A
C147   C150    1.455   .     S
C147   Br327   1.933   .     S
C147   C343    1.350   .     S
C148   C149    1.428   .     S
C148   C537    1.350   1_545 S
C148   Br523   1.932   1_545 S
C149   O184    1.279   .     A
C149   O190    1.274   .     A
C150   O185    1.263   .     A
C150   O191    1.273   .     A
C151   O180    1.275   .     A
C151   C154    1.461   .     S
C151   O182    1.274   .     A
C152   O183    1.288   .     A
C152   C153    1.470   .     S
C152   O181    1.286   .     A
C153   C157    1.398   .     A
C155   C160    1.403   .     A
C155   H174    1.084   .     S
C156   H178    1.109   .     S
C156   H167    1.111   .     S
C156   H166    1.111   .     S
C157   C159    1.403   .     A
C157   H176    1.076   .     S
C158   H168    1.108   .     S
C158   H170    1.109   .     S
C158   H169    1.111   .     S
C159   C160    1.418   .     A
C159   C161    1.426   .     A
C160   C749    1.391   .     S
C161   C747    1.425   .     S
C162   C163    1.412   .     A
C162   C746    1.425   1_554 S
C163   C164    1.387   .     A
C163   H177    1.079   .     S
C164   H165    1.084   .     S
C164   C745    1.391   1_554 S
H171   C15     1.086   1_655 S
O179   Zn193   1.943   .     S
O179   Zn194   1.929   .     S
O179   Zn195   1.931   .     S
O179   Zn192   1.972   .     S
O180   Zn193   1.928   .     S
O181   Zn195   1.943   .     S
O182   Zn194   1.934   .     S
O183   Zn192   1.922   .     S
O184   Zn192   1.934   .     S
O185   Zn195   1.938   .     S
O186   Zn193   1.925   .     S
O187   Zn194   1.940   .     S
O188   Zn195   1.931   .     S
O189   Zn192   1.918   .     S
O190   Zn193   1.949   .     S
O191   Zn194   1.939   .     S
Br196  C206    1.922   .     S
Br198  C408    1.932   .     S
Br199  C201    1.930   .     S
C200   O251    1.270   .     A
C200   O253    1.270   .     A
C200   C210    1.440   .     S
C201   C202    1.391   .     A
C201   C226    1.423   .     A
C202   H238    1.082   .     S
C202   C789    1.397   .     S
C203   C209    1.466   .     S
C203   O252    1.283   .     A
C203   O254    1.286   .     A
C204   C205    1.419   .     A
C204   C206    1.409   .     A
C204   C787    1.397   1_554 S
C205   C227    1.425   .     A
C205   C208    1.421   .     A
C206   C207    1.392   .     A
C207   C219    1.397   .     A
C207   H237    1.084   .     S
C208   C223    1.518   .     S
C208   C219    1.410   .     A
C209   C275    1.343   .     S
C209   C286    1.516   .     S
C210   C339    1.343   1_455 S
C210   H366    1.086   1_455 S
C211   H240    1.083   .     S
C211   C218    1.401   .     A
C211   C220    1.393   .     A
C212   C215    1.455   .     S
C212   Br392   1.933   .     S
C212   C408    1.350   .     S
C213   C214    1.428   .     S
C214   O249    1.279   .     A
C214   O255    1.274   .     A
C215   O250    1.263   .     A
C215   O256    1.273   .     A
C216   O245    1.275   .     A
C216   C219    1.461   .     S
C216   O247    1.274   .     A
C217   O248    1.288   .     A
C217   C218    1.470   .     S
C217   O246    1.286   .     A
C218   C222    1.398   .     A
C220   C225    1.403   .     A
C220   H239    1.084   .     S
C221   H243    1.109   .     S
C221   H232    1.111   .     S
C221   H231    1.111   .     S
C221   C339    1.516   1_455 S
C222   C224    1.403   .     A
C222   H241    1.076   .     S
C223   H233    1.108   .     S
C223   H235    1.109   .     S
C223   H234    1.111   .     S
C224   C225    1.418   .     A
C224   C226    1.426   .     A
C225   C814    1.391   .     S
C226   C812    1.425   .     S
C227   C228    1.412   .     A
C227   C811    1.425   1_554 S
C228   C229    1.387   .     A
C228   H242    1.079   .     S
C229   H230    1.084   .     S
C229   C810    1.391   1_554 S
H236   C275    1.086   .     S
O244   Zn258   1.943   .     S
O244   Zn259   1.929   .     S
O244   Zn260   1.931   .     S
O244   Zn257   1.972   .     S
O245   Zn258   1.928   .     S
O246   Zn260   1.943   .     S
O247   Zn259   1.934   .     S
O248   Zn257   1.922   .     S
O249   Zn257   1.934   .     S
O250   Zn260   1.938   .     S
O251   Zn258   1.925   .     S
O252   Zn259   1.940   .     S
O253   Zn260   1.931   .     S
O254   Zn257   1.918   .     S
O255   Zn258   1.949   .     S
O256   Zn259   1.939   .     S
Br261  C271    1.922   .     S
Br263  C473    1.932   .     S
Br264  C266    1.930   .     S
C265   O316    1.270   .     A
C265   O318    1.270   .     A
C265   C275    1.440   .     S
C266   C267    1.391   .     A
C266   C291    1.423   .     A
C267   H303    1.082   .     S
C267   C854    1.397   .     S
C268   C274    1.466   .     S
C268   O317    1.283   .     A
C268   O319    1.286   .     A
C269   C270    1.419   .     A
C269   C271    1.409   .     A
C269   C852    1.397   1_554 S
C270   C292    1.425   .     A
C270   C273    1.421   .     A
C271   C272    1.392   .     A
C272   C284    1.397   .     A
C272   H302    1.084   .     S
C273   C288    1.518   .     S
C273   C284    1.410   .     A
C274   C340    1.343   .     S
C274   C351    1.516   .     S
C276   H305    1.083   .     S
C276   C283    1.401   .     A
C276   C285    1.393   .     A
C277   C280    1.455   .     S
C277   Br457   1.933   .     S
C277   C473    1.350   .     S
C278   C279    1.428   .     S
C279   O314    1.279   .     A
C279   O320    1.274   .     A
C280   O315    1.263   .     A
C280   O321    1.273   .     A
C281   O310    1.275   .     A
C281   C284    1.461   .     S
C281   O312    1.274   .     A
C282   O313    1.288   .     A
C282   C283    1.470   .     S
C282   O311    1.286   .     A
C283   C287    1.398   .     A
C285   C290    1.403   .     A
C285   H304    1.084   .     S
C286   H308    1.109   .     S
C286   H297    1.111   .     S
C286   H296    1.111   .     S
C287   C289    1.403   .     A
C287   H306    1.076   .     S
C288   H298    1.108   .     S
C288   H300    1.109   .     S
C288   H299    1.111   .     S
C289   C290    1.418   .     A
C289   C291    1.426   .     A
C290   C879    1.391   .     S
C291   C877    1.425   .     S
C292   C293    1.412   .     A
C292   C876    1.425   1_554 S
C293   C294    1.387   .     A
C293   H307    1.079   .     S
C294   H295    1.084   .     S
C294   C875    1.391   1_554 S
H301   C340    1.086   .     S
O309   Zn323   1.943   .     S
O309   Zn324   1.929   .     S
O309   Zn325   1.931   .     S
O309   Zn322   1.972   .     S
O310   Zn323   1.928   .     S
O311   Zn325   1.943   .     S
O312   Zn324   1.934   .     S
O313   Zn322   1.922   .     S
O314   Zn322   1.934   .     S
O315   Zn325   1.938   .     S
O316   Zn323   1.925   .     S
O317   Zn324   1.940   .     S
O318   Zn325   1.931   .     S
O319   Zn322   1.918   .     S
O320   Zn323   1.949   .     S
O321   Zn324   1.939   .     S
Br326  C336    1.922   .     S
Br328  C538    1.932   .     S
Br329  C331    1.930   .     S
C330   O381    1.270   .     A
C330   O383    1.270   .     A
C330   C340    1.440   .     S
C331   C332    1.391   .     A
C331   C356    1.423   .     A
C332   H368    1.082   .     S
C332   C919    1.397   .     S
C333   C339    1.466   .     S
C333   O382    1.283   .     A
C333   O384    1.286   .     A
C334   C335    1.419   .     A
C334   C336    1.409   .     A
C334   C917    1.397   1_554 S
C335   C357    1.425   .     A
C335   C338    1.421   .     A
C336   C337    1.392   .     A
C337   C349    1.397   .     A
C337   H367    1.084   .     S
C338   C353    1.518   .     S
C338   C349    1.410   .     A
C339   C210    1.343   1_655 S
C339   C221    1.516   1_655 S
C341   H370    1.083   .     S
C341   C348    1.401   .     A
C341   C350    1.393   .     A
C342   C345    1.455   .     S
C342   Br522   1.933   .     S
C342   C538    1.350   .     S
C343   C344    1.428   .     S
C344   O379    1.279   .     A
C344   O385    1.274   .     A
C345   O380    1.263   .     A
C345   O386    1.273   .     A
C346   O375    1.275   .     A
C346   C349    1.461   .     S
C346   O377    1.274   .     A
C347   O378    1.288   .     A
C347   C348    1.470   .     S
C347   O376    1.286   .     A
C348   C352    1.398   .     A
C350   C355    1.403   .     A
C350   H369    1.084   .     S
C351   H373    1.109   .     S
C351   H362    1.111   .     S
C351   H361    1.111   .     S
C352   C354    1.403   .     A
C352   H371    1.076   .     S
C353   H363    1.108   .     S
C353   H365    1.109   .     S
C353   H364    1.111   .     S
C354   C355    1.418   .     A
C354   C356    1.426   .     A
C355   C944    1.391   .     S
C356   C942    1.425   .     S
C357   C358    1.412   .     A
C357   C941    1.425   1_554 S
C358   C359    1.387   .     A
C358   H372    1.079   .     S
C359   H360    1.084   .     S
C359   C940    1.391   1_554 S
H366   C210    1.086   1_655 S
O374   Zn388   1.943   .     S
O374   Zn389   1.929   .     S
O374   Zn390   1.931   .     S
O374   Zn387   1.972   .     S
O375   Zn388   1.928   .     S
O376   Zn390   1.943   .     S
O377   Zn389   1.934   .     S
O378   Zn387   1.922   .     S
O379   Zn387   1.934   .     S
O380   Zn390   1.938   .     S
O381   Zn388   1.925   .     S
O382   Zn389   1.940   .     S
O383   Zn390   1.931   .     S
O384   Zn387   1.918   .     S
O385   Zn388   1.949   .     S
O386   Zn389   1.939   .     S
Br391  C401    1.922   .     S
Br393  C18     1.932   1_565 S
Br394  C396    1.930   .     S
C395   O446    1.270   .     A
C395   O448    1.270   .     A
C395   C405    1.440   .     S
C396   C397    1.391   .     A
C396   C421    1.423   .     A
C397   H433    1.082   .     S
C397   C984    1.397   .     S
C398   C404    1.466   .     S
C398   O447    1.283   .     A
C398   O449    1.286   .     A
C399   C400    1.419   .     A
C399   C401    1.409   .     A
C399   C982    1.397   1_554 S
C400   C422    1.425   .     A
C400   C403    1.421   .     A
C401   C402    1.392   .     A
C402   C414    1.397   .     A
C402   H432    1.084   .     S
C403   C418    1.518   .     S
C403   C414    1.410   .     A
C404   C470    1.343   .     S
C404   C481    1.516   .     S
C405   C534    1.343   1_455 S
C405   H561    1.086   1_455 S
C406   H435    1.083   .     S
C406   C413    1.401   .     A
C406   C415    1.393   .     A
C407   C410    1.455   .     S
C407   Br2     1.933   1_565 S
C407   C18     1.350   1_565 S
C408   C409    1.428   .     S
C409   O444    1.279   .     A
C409   O450    1.274   .     A
C410   O445    1.263   .     A
C410   O451    1.273   .     A
C411   O440    1.275   .     A
C411   C414    1.461   .     S
C411   O442    1.274   .     A
C412   O443    1.288   .     A
C412   C413    1.470   .     S
C412   O441    1.286   .     A
C413   C417    1.398   .     A
C415   C420    1.403   .     A
C415   H434    1.084   .     S
C416   H438    1.109   .     S
C416   H427    1.111   .     S
C416   H426    1.111   .     S
C416   C534    1.516   1_455 S
C417   C419    1.403   .     A
C417   H436    1.076   .     S
C418   H428    1.108   .     S
C418   H430    1.109   .     S
C418   H429    1.111   .     S
C419   C420    1.418   .     A
C419   C421    1.426   .     A
C420   C1009   1.391   .     S
C421   C1007   1.425   .     S
C422   C423    1.412   .     A
C422   C1006   1.425   1_554 S
C423   C424    1.387   .     A
C423   H437    1.079   .     S
C424   H425    1.084   .     S
C424   C1005   1.391   1_554 S
H431   C470    1.086   .     S
O439   Zn453   1.943   .     S
O439   Zn454   1.929   .     S
O439   Zn455   1.931   .     S
O439   Zn452   1.972   .     S
O440   Zn453   1.928   .     S
O441   Zn455   1.943   .     S
O442   Zn454   1.934   .     S
O443   Zn452   1.922   .     S
O444   Zn452   1.934   .     S
O445   Zn455   1.938   .     S
O446   Zn453   1.925   .     S
O447   Zn454   1.940   .     S
O448   Zn455   1.931   .     S
O449   Zn452   1.918   .     S
O450   Zn453   1.949   .     S
O451   Zn454   1.939   .     S
Br456  C466    1.922   .     S
Br458  C83     1.932   1_565 S
Br459  C461    1.930   .     S
C460   O511    1.270   .     A
C460   O513    1.270   .     A
C460   C470    1.440   .     S
C461   C462    1.391   .     A
C461   C486    1.423   .     A
C462   H498    1.082   .     S
C462   C1049   1.397   .     S
C463   C469    1.466   .     S
C463   O512    1.283   .     A
C463   O514    1.286   .     A
C464   C465    1.419   .     A
C464   C466    1.409   .     A
C464   C1047   1.397   1_554 S
C465   C487    1.425   .     A
C465   C468    1.421   .     A
C466   C467    1.392   .     A
C467   C479    1.397   .     A
C467   H497    1.084   .     S
C468   C483    1.518   .     S
C468   C479    1.410   .     A
C469   C535    1.343   .     S
C469   C546    1.516   .     S
C471   H500    1.083   .     S
C471   C478    1.401   .     A
C471   C480    1.393   .     A
C472   C475    1.455   .     S
C472   Br67    1.933   1_565 S
C472   C83     1.350   1_565 S
C473   C474    1.428   .     S
C474   O509    1.279   .     A
C474   O515    1.274   .     A
C475   O510    1.263   .     A
C475   O516    1.273   .     A
C476   O505    1.275   .     A
C476   C479    1.461   .     S
C476   O507    1.274   .     A
C477   O508    1.288   .     A
C477   C478    1.470   .     S
C477   O506    1.286   .     A
C478   C482    1.398   .     A
C480   C485    1.403   .     A
C480   H499    1.084   .     S
C481   H503    1.109   .     S
C481   H492    1.111   .     S
C481   H491    1.111   .     S
C482   C484    1.403   .     A
C482   H501    1.076   .     S
C483   H493    1.108   .     S
C483   H495    1.109   .     S
C483   H494    1.111   .     S
C484   C485    1.418   .     A
C484   C486    1.426   .     A
C485   C1074   1.391   .     S
C486   C1072   1.425   .     S
C487   C488    1.412   .     A
C487   C1071   1.425   1_554 S
C488   C489    1.387   .     A
C488   H502    1.079   .     S
C489   H490    1.084   .     S
C489   C1070   1.391   1_554 S
H496   C535    1.086   .     S
O504   Zn518   1.943   .     S
O504   Zn519   1.929   .     S
O504   Zn520   1.931   .     S
O504   Zn517   1.972   .     S
O505   Zn518   1.928   .     S
O506   Zn520   1.943   .     S
O507   Zn519   1.934   .     S
O508   Zn517   1.922   .     S
O509   Zn517   1.934   .     S
O510   Zn520   1.938   .     S
O511   Zn518   1.925   .     S
O512   Zn519   1.940   .     S
O513   Zn520   1.931   .     S
O514   Zn517   1.918   .     S
O515   Zn518   1.949   .     S
O516   Zn519   1.939   .     S
Br521  C531    1.922   .     S
Br523  C148    1.932   1_565 S
Br524  C526    1.930   .     S
C525   O576    1.270   .     A
C525   O578    1.270   .     A
C525   C535    1.440   .     S
C526   C527    1.391   .     A
C526   C551    1.423   .     A
C527   H563    1.082   .     S
C527   C1114   1.397   .     S
C528   C534    1.466   .     S
C528   O577    1.283   .     A
C528   O579    1.286   .     A
C529   C530    1.419   .     A
C529   C531    1.409   .     A
C529   C1112   1.397   1_554 S
C530   C552    1.425   .     A
C530   C533    1.421   .     A
C531   C532    1.392   .     A
C532   C544    1.397   .     A
C532   H562    1.084   .     S
C533   C548    1.518   .     S
C533   C544    1.410   .     A
C534   C405    1.343   1_655 S
C534   C416    1.516   1_655 S
C536   H565    1.083   .     S
C536   C543    1.401   .     A
C536   C545    1.393   .     A
C537   C540    1.455   .     S
C537   Br132   1.933   1_565 S
C537   C148    1.350   1_565 S
C538   C539    1.428   .     S
C539   O574    1.279   .     A
C539   O580    1.274   .     A
C540   O575    1.263   .     A
C540   O581    1.273   .     A
C541   O570    1.275   .     A
C541   C544    1.461   .     S
C541   O572    1.274   .     A
C542   O573    1.288   .     A
C542   C543    1.470   .     S
C542   O571    1.286   .     A
C543   C547    1.398   .     A
C545   C550    1.403   .     A
C545   H564    1.084   .     S
C546   H568    1.109   .     S
C546   H557    1.111   .     S
C546   H556    1.111   .     S
C547   C549    1.403   .     A
C547   H566    1.076   .     S
C548   H558    1.108   .     S
C548   H560    1.109   .     S
C548   H559    1.111   .     S
C549   C550    1.418   .     A
C549   C551    1.426   .     A
C550   C1139   1.391   .     S
C551   C1137   1.425   .     S
C552   C553    1.412   .     A
C552   C1136   1.425   1_554 S
C553   C554    1.387   .     A
C553   H567    1.079   .     S
C554   H555    1.084   .     S
C554   C1135   1.391   1_554 S
H561   C405    1.086   1_655 S
O569   Zn583   1.943   .     S
O569   Zn584   1.929   .     S
O569   Zn585   1.931   .     S
O569   Zn582   1.972   .     S
O570   Zn583   1.928   .     S
O571   Zn585   1.943   .     S
O572   Zn584   1.934   .     S
O573   Zn582   1.922   .     S
O574   Zn582   1.934   .     S
O575   Zn585   1.938   .     S
O576   Zn583   1.925   .     S
O577   Zn584   1.940   .     S
O578   Zn585   1.931   .     S
O579   Zn582   1.918   .     S
O580   Zn583   1.949   .     S
O581   Zn584   1.939   .     S
Br586  C596    1.922   .     S
Br587  C992    1.933   1_545 S
Br588  C798    1.932   .     S
Br589  C591    1.930   .     S
C590   O641    1.270   .     A
C590   O643    1.270   .     A
C590   C600    1.440   .     S
C591   C592    1.391   .     A
C591   C616    1.423   .     A
C592   H628    1.082   .     S
C592   C9      1.397   1_556 S
C593   C599    1.466   .     S
C593   O642    1.283   .     A
C593   O644    1.286   .     A
C594   C595    1.419   .     A
C594   C596    1.409   .     A
C595   C617    1.425   .     A
C595   C598    1.421   .     A
C596   C597    1.392   .     A
C597   C609    1.397   .     A
C597   H627    1.084   .     S
C598   C613    1.518   .     S
C598   C609    1.410   .     A
C599   C665    1.343   .     S
C599   C676    1.516   .     S
C600   C729    1.343   1_455 S
C600   H756    1.086   1_455 S
C601   H630    1.083   .     S
C601   C608    1.401   .     A
C601   C610    1.393   .     A
C602   C605    1.455   .     S
C602   Br782   1.933   .     S
C602   C798    1.350   .     S
C603   C604    1.428   .     S
C603   C992    1.350   1_545 S
C603   Br978   1.932   1_545 S
C604   O639    1.279   .     A
C604   O645    1.274   .     A
C605   O640    1.263   .     A
C605   O646    1.273   .     A
C606   O635    1.275   .     A
C606   C609    1.461   .     S
C606   O637    1.274   .     A
C607   O638    1.288   .     A
C607   C608    1.470   .     S
C607   O636    1.286   .     A
C608   C612    1.398   .     A
C610   C615    1.403   .     A
C610   H629    1.084   .     S
C611   H633    1.109   .     S
C611   H622    1.111   .     S
C611   H621    1.111   .     S
C611   C729    1.516   1_455 S
C612   C614    1.403   .     A
C612   H631    1.076   .     S
C613   H623    1.108   .     S
C613   H625    1.109   .     S
C613   H624    1.111   .     S
C614   C615    1.418   .     A
C614   C616    1.426   .     A
C615   C34     1.391   1_556 S
C616   C32     1.425   1_556 S
C617   C618    1.412   .     A
C618   C619    1.387   .     A
C618   H632    1.079   .     S
C619   H620    1.084   .     S
H626   C665    1.086   .     S
O634   Zn648   1.943   .     S
O634   Zn649   1.929   .     S
O634   Zn650   1.931   .     S
O634   Zn647   1.972   .     S
O635   Zn648   1.928   .     S
O636   Zn650   1.943   .     S
O637   Zn649   1.934   .     S
O638   Zn647   1.922   .     S
O639   Zn647   1.934   .     S
O640   Zn650   1.938   .     S
O641   Zn648   1.925   .     S
O642   Zn649   1.940   .     S
O643   Zn650   1.931   .     S
O644   Zn647   1.918   .     S
O645   Zn648   1.949   .     S
O646   Zn649   1.939   .     S
Br651  C661    1.922   .     S
Br652  C1057   1.933   1_545 S
Br653  C863    1.932   .     S
Br654  C656    1.930   .     S
C655   O706    1.270   .     A
C655   O708    1.270   .     A
C655   C665    1.440   .     S
C656   C657    1.391   .     A
C656   C681    1.423   .     A
C657   H693    1.082   .     S
C657   C74     1.397   1_556 S
C658   C664    1.466   .     S
C658   O707    1.283   .     A
C658   O709    1.286   .     A
C659   C660    1.419   .     A
C659   C661    1.409   .     A
C660   C682    1.425   .     A
C660   C663    1.421   .     A
C661   C662    1.392   .     A
C662   C674    1.397   .     A
C662   H692    1.084   .     S
C663   C678    1.518   .     S
C663   C674    1.410   .     A
C664   C730    1.343   .     S
C664   C741    1.516   .     S
C666   H695    1.083   .     S
C666   C673    1.401   .     A
C666   C675    1.393   .     A
C667   C670    1.455   .     S
C667   Br847   1.933   .     S
C667   C863    1.350   .     S
C668   C669    1.428   .     S
C668   C1057   1.350   1_545 S
C668   Br1043  1.932   1_545 S
C669   O704    1.279   .     A
C669   O710    1.274   .     A
C670   O705    1.263   .     A
C670   O711    1.273   .     A
C671   O700    1.275   .     A
C671   C674    1.461   .     S
C671   O702    1.274   .     A
C672   O703    1.288   .     A
C672   C673    1.470   .     S
C672   O701    1.286   .     A
C673   C677    1.398   .     A
C675   C680    1.403   .     A
C675   H694    1.084   .     S
C676   H698    1.109   .     S
C676   H687    1.111   .     S
C676   H686    1.111   .     S
C677   C679    1.403   .     A
C677   H696    1.076   .     S
C678   H688    1.108   .     S
C678   H690    1.109   .     S
C678   H689    1.111   .     S
C679   C680    1.418   .     A
C679   C681    1.426   .     A
C680   C99     1.391   1_556 S
C681   C97     1.425   1_556 S
C682   C683    1.412   .     A
C683   C684    1.387   .     A
C683   H697    1.079   .     S
C684   H685    1.084   .     S
H691   C730    1.086   .     S
O699   Zn713   1.943   .     S
O699   Zn714   1.929   .     S
O699   Zn715   1.931   .     S
O699   Zn712   1.972   .     S
O700   Zn713   1.928   .     S
O701   Zn715   1.943   .     S
O702   Zn714   1.934   .     S
O703   Zn712   1.922   .     S
O704   Zn712   1.934   .     S
O705   Zn715   1.938   .     S
O706   Zn713   1.925   .     S
O707   Zn714   1.940   .     S
O708   Zn715   1.931   .     S
O709   Zn712   1.918   .     S
O710   Zn713   1.949   .     S
O711   Zn714   1.939   .     S
Br716  C726    1.922   .     S
Br717  C1122   1.933   1_545 S
Br718  C928    1.932   .     S
Br719  C721    1.930   .     S
C720   O771    1.270   .     A
C720   O773    1.270   .     A
C720   C730    1.440   .     S
C721   C722    1.391   .     A
C721   C746    1.423   .     A
C722   H758    1.082   .     S
C722   C139    1.397   1_556 S
C723   C729    1.466   .     S
C723   O772    1.283   .     A
C723   O774    1.286   .     A
C724   C725    1.419   .     A
C724   C726    1.409   .     A
C725   C747    1.425   .     A
C725   C728    1.421   .     A
C726   C727    1.392   .     A
C727   C739    1.397   .     A
C727   H757    1.084   .     S
C728   C743    1.518   .     S
C728   C739    1.410   .     A
C729   C600    1.343   1_655 S
C729   C611    1.516   1_655 S
C731   H760    1.083   .     S
C731   C738    1.401   .     A
C731   C740    1.393   .     A
C732   C735    1.455   .     S
C732   Br912   1.933   .     S
C732   C928    1.350   .     S
C733   C734    1.428   .     S
C733   C1122   1.350   1_545 S
C733   Br1108  1.932   1_545 S
C734   O769    1.279   .     A
C734   O775    1.274   .     A
C735   O770    1.263   .     A
C735   O776    1.273   .     A
C736   O765    1.275   .     A
C736   C739    1.461   .     S
C736   O767    1.274   .     A
C737   O768    1.288   .     A
C737   C738    1.470   .     S
C737   O766    1.286   .     A
C738   C742    1.398   .     A
C740   C745    1.403   .     A
C740   H759    1.084   .     S
C741   H763    1.109   .     S
C741   H752    1.111   .     S
C741   H751    1.111   .     S
C742   C744    1.403   .     A
C742   H761    1.076   .     S
C743   H753    1.108   .     S
C743   H755    1.109   .     S
C743   H754    1.111   .     S
C744   C745    1.418   .     A
C744   C746    1.426   .     A
C745   C164    1.391   1_556 S
C746   C162    1.425   1_556 S
C747   C748    1.412   .     A
C748   C749    1.387   .     A
C748   H762    1.079   .     S
C749   H750    1.084   .     S
H756   C600    1.086   1_655 S
O764   Zn778   1.943   .     S
O764   Zn779   1.929   .     S
O764   Zn780   1.931   .     S
O764   Zn777   1.972   .     S
O765   Zn778   1.928   .     S
O766   Zn780   1.943   .     S
O767   Zn779   1.934   .     S
O768   Zn777   1.922   .     S
O769   Zn777   1.934   .     S
O770   Zn780   1.938   .     S
O771   Zn778   1.925   .     S
O772   Zn779   1.940   .     S
O773   Zn780   1.931   .     S
O774   Zn777   1.918   .     S
O775   Zn778   1.949   .     S
O776   Zn779   1.939   .     S
Br781  C791    1.922   .     S
Br783  C993    1.932   .     S
Br784  C786    1.930   .     S
C785   O836    1.270   .     A
C785   O838    1.270   .     A
C785   C795    1.440   .     S
C786   C787    1.391   .     A
C786   C811    1.423   .     A
C787   H823    1.082   .     S
C787   C204    1.397   1_556 S
C788   C794    1.466   .     S
C788   O837    1.283   .     A
C788   O839    1.286   .     A
C789   C790    1.419   .     A
C789   C791    1.409   .     A
C790   C812    1.425   .     A
C790   C793    1.421   .     A
C791   C792    1.392   .     A
C792   C804    1.397   .     A
C792   H822    1.084   .     S
C793   C808    1.518   .     S
C793   C804    1.410   .     A
C794   C860    1.343   .     S
C794   C871    1.516   .     S
C795   C924    1.343   1_455 S
C795   H951    1.086   1_455 S
C796   H825    1.083   .     S
C796   C803    1.401   .     A
C796   C805    1.393   .     A
C797   C800    1.455   .     S
C797   Br977   1.933   .     S
C797   C993    1.350   .     S
C798   C799    1.428   .     S
C799   O834    1.279   .     A
C799   O840    1.274   .     A
C800   O835    1.263   .     A
C800   O841    1.273   .     A
C801   O830    1.275   .     A
C801   C804    1.461   .     S
C801   O832    1.274   .     A
C802   O833    1.288   .     A
C802   C803    1.470   .     S
C802   O831    1.286   .     A
C803   C807    1.398   .     A
C805   C810    1.403   .     A
C805   H824    1.084   .     S
C806   H828    1.109   .     S
C806   H817    1.111   .     S
C806   H816    1.111   .     S
C806   C924    1.516   1_455 S
C807   C809    1.403   .     A
C807   H826    1.076   .     S
C808   H818    1.108   .     S
C808   H820    1.109   .     S
C808   H819    1.111   .     S
C809   C810    1.418   .     A
C809   C811    1.426   .     A
C810   C229    1.391   1_556 S
C811   C227    1.425   1_556 S
C812   C813    1.412   .     A
C813   C814    1.387   .     A
C813   H827    1.079   .     S
C814   H815    1.084   .     S
H821   C860    1.086   .     S
O829   Zn843   1.943   .     S
O829   Zn844   1.929   .     S
O829   Zn845   1.931   .     S
O829   Zn842   1.972   .     S
O830   Zn843   1.928   .     S
O831   Zn845   1.943   .     S
O832   Zn844   1.934   .     S
O833   Zn842   1.922   .     S
O834   Zn842   1.934   .     S
O835   Zn845   1.938   .     S
O836   Zn843   1.925   .     S
O837   Zn844   1.940   .     S
O838   Zn845   1.931   .     S
O839   Zn842   1.918   .     S
O840   Zn843   1.949   .     S
O841   Zn844   1.939   .     S
Br846  C856    1.922   .     S
Br848  C1058   1.932   .     S
Br849  C851    1.930   .     S
C850   O901    1.270   .     A
C850   O903    1.270   .     A
C850   C860    1.440   .     S
C851   C852    1.391   .     A
C851   C876    1.423   .     A
C852   H888    1.082   .     S
C852   C269    1.397   1_556 S
C853   C859    1.466   .     S
C853   O902    1.283   .     A
C853   O904    1.286   .     A
C854   C855    1.419   .     A
C854   C856    1.409   .     A
C855   C877    1.425   .     A
C855   C858    1.421   .     A
C856   C857    1.392   .     A
C857   C869    1.397   .     A
C857   H887    1.084   .     S
C858   C873    1.518   .     S
C858   C869    1.410   .     A
C859   C925    1.343   .     S
C859   C936    1.516   .     S
C861   H890    1.083   .     S
C861   C868    1.401   .     A
C861   C870    1.393   .     A
C862   C865    1.455   .     S
C862   Br1042  1.933   .     S
C862   C1058   1.350   .     S
C863   C864    1.428   .     S
C864   O899    1.279   .     A
C864   O905    1.274   .     A
C865   O900    1.263   .     A
C865   O906    1.273   .     A
C866   O895    1.275   .     A
C866   C869    1.461   .     S
C866   O897    1.274   .     A
C867   O898    1.288   .     A
C867   C868    1.470   .     S
C867   O896    1.286   .     A
C868   C872    1.398   .     A
C870   C875    1.403   .     A
C870   H889    1.084   .     S
C871   H893    1.109   .     S
C871   H882    1.111   .     S
C871   H881    1.111   .     S
C872   C874    1.403   .     A
C872   H891    1.076   .     S
C873   H883    1.108   .     S
C873   H885    1.109   .     S
C873   H884    1.111   .     S
C874   C875    1.418   .     A
C874   C876    1.426   .     A
C875   C294    1.391   1_556 S
C876   C292    1.425   1_556 S
C877   C878    1.412   .     A
C878   C879    1.387   .     A
C878   H892    1.079   .     S
C879   H880    1.084   .     S
H886   C925    1.086   .     S
O894   Zn908   1.943   .     S
O894   Zn909   1.929   .     S
O894   Zn910   1.931   .     S
O894   Zn907   1.972   .     S
O895   Zn908   1.928   .     S
O896   Zn910   1.943   .     S
O897   Zn909   1.934   .     S
O898   Zn907   1.922   .     S
O899   Zn907   1.934   .     S
O900   Zn910   1.938   .     S
O901   Zn908   1.925   .     S
O902   Zn909   1.940   .     S
O903   Zn910   1.931   .     S
O904   Zn907   1.918   .     S
O905   Zn908   1.949   .     S
O906   Zn909   1.939   .     S
Br911  C921    1.922   .     S
Br913  C1123   1.932   .     S
Br914  C916    1.930   .     S
C915   O966    1.270   .     A
C915   O968    1.270   .     A
C915   C925    1.440   .     S
C916   C917    1.391   .     A
C916   C941    1.423   .     A
C917   H953    1.082   .     S
C917   C334    1.397   1_556 S
C918   C924    1.466   .     S
C918   O967    1.283   .     A
C918   O969    1.286   .     A
C919   C920    1.419   .     A
C919   C921    1.409   .     A
C920   C942    1.425   .     A
C920   C923    1.421   .     A
C921   C922    1.392   .     A
C922   C934    1.397   .     A
C922   H952    1.084   .     S
C923   C938    1.518   .     S
C923   C934    1.410   .     A
C924   C795    1.343   1_655 S
C924   C806    1.516   1_655 S
C926   H955    1.083   .     S
C926   C933    1.401   .     A
C926   C935    1.393   .     A
C927   C930    1.455   .     S
C927   Br1107  1.933   .     S
C927   C1123   1.350   .     S
C928   C929    1.428   .     S
C929   O964    1.279   .     A
C929   O970    1.274   .     A
C930   O965    1.263   .     A
C930   O971    1.273   .     A
C931   O960    1.275   .     A
C931   C934    1.461   .     S
C931   O962    1.274   .     A
C932   O963    1.288   .     A
C932   C933    1.470   .     S
C932   O961    1.286   .     A
C933   C937    1.398   .     A
C935   C940    1.403   .     A
C935   H954    1.084   .     S
C936   H958    1.109   .     S
C936   H947    1.111   .     S
C936   H946    1.111   .     S
C937   C939    1.403   .     A
C937   H956    1.076   .     S
C938   H948    1.108   .     S
C938   H950    1.109   .     S
C938   H949    1.111   .     S
C939   C940    1.418   .     A
C939   C941    1.426   .     A
C940   C359    1.391   1_556 S
C941   C357    1.425   1_556 S
C942   C943    1.412   .     A
C943   C944    1.387   .     A
C943   H957    1.079   .     S
C944   H945    1.084   .     S
H951   C795    1.086   1_655 S
O959   Zn973   1.943   .     S
O959   Zn974   1.929   .     S
O959   Zn975   1.931   .     S
O959   Zn972   1.972   .     S
O960   Zn973   1.928   .     S
O961   Zn975   1.943   .     S
O962   Zn974   1.934   .     S
O963   Zn972   1.922   .     S
O964   Zn972   1.934   .     S
O965   Zn975   1.938   .     S
O966   Zn973   1.925   .     S
O967   Zn974   1.940   .     S
O968   Zn975   1.931   .     S
O969   Zn972   1.918   .     S
O970   Zn973   1.949   .     S
O971   Zn974   1.939   .     S
Br976  C986    1.922   .     S
Br978  C603    1.932   1_565 S
Br979  C981    1.930   .     S
C980   O1031   1.270   .     A
C980   O1033   1.270   .     A
C980   C990    1.440   .     S
C981   C982    1.391   .     A
C981   C1006   1.423   .     A
C982   H1018   1.082   .     S
C982   C399    1.397   1_556 S
C983   C989    1.466   .     S
C983   O1032   1.283   .     A
C983   O1034   1.286   .     A
C984   C985    1.419   .     A
C984   C986    1.409   .     A
C985   C1007   1.425   .     A
C985   C988    1.421   .     A
C986   C987    1.392   .     A
C987   C999    1.397   .     A
C987   H1017   1.084   .     S
C988   C1003   1.518   .     S
C988   C999    1.410   .     A
C989   C1055   1.343   .     S
C989   C1066   1.516   .     S
C990   C1119   1.343   1_455 S
C990   H1146   1.086   1_455 S
C991   H1020   1.083   .     S
C991   C998    1.401   .     A
C991   C1000   1.393   .     A
C992   C995    1.455   .     S
C992   Br587   1.933   1_565 S
C992   C603    1.350   1_565 S
C993   C994    1.428   .     S
C994   O1029   1.279   .     A
C994   O1035   1.274   .     A
C995   O1030   1.263   .     A
C995   O1036   1.273   .     A
C996   O1025   1.275   .     A
C996   C999    1.461   .     S
C996   O1027   1.274   .     A
C997   O1028   1.288   .     A
C997   C998    1.470   .     S
C997   O1026   1.286   .     A
C998   C1002   1.398   .     A
C1000  C1005   1.403   .     A
C1000  H1019   1.084   .     S
C1001  H1023   1.109   .     S
C1001  H1012   1.111   .     S
C1001  H1011   1.111   .     S
C1001  C1119   1.516   1_455 S
C1002  C1004   1.403   .     A
C1002  H1021   1.076   .     S
C1003  H1013   1.108   .     S
C1003  H1015   1.109   .     S
C1003  H1014   1.111   .     S
C1004  C1005   1.418   .     A
C1004  C1006   1.426   .     A
C1005  C424    1.391   1_556 S
C1006  C422    1.425   1_556 S
C1007  C1008   1.412   .     A
C1008  C1009   1.387   .     A
C1008  H1022   1.079   .     S
C1009  H1010   1.084   .     S
H1016  C1055   1.086   .     S
O1024  Zn1038  1.943   .     S
O1024  Zn1039  1.929   .     S
O1024  Zn1040  1.931   .     S
O1024  Zn1037  1.972   .     S
O1025  Zn1038  1.928   .     S
O1026  Zn1040  1.943   .     S
O1027  Zn1039  1.934   .     S
O1028  Zn1037  1.922   .     S
O1029  Zn1037  1.934   .     S
O1030  Zn1040  1.938   .     S
O1031  Zn1038  1.925   .     S
O1032  Zn1039  1.940   .     S
O1033  Zn1040  1.931   .     S
O1034  Zn1037  1.918   .     S
O1035  Zn1038  1.949   .     S
O1036  Zn1039  1.939   .     S
Br1041 C1051   1.922   .     S
Br1043 C668    1.932   1_565 S
Br1044 C1046   1.930   .     S
C1045  O1096   1.270   .     A
C1045  O1098   1.270   .     A
C1045  C1055   1.440   .     S
C1046  C1047   1.391   .     A
C1046  C1071   1.423   .     A
C1047  H1083   1.082   .     S
C1047  C464    1.397   1_556 S
C1048  C1054   1.466   .     S
C1048  O1097   1.283   .     A
C1048  O1099   1.286   .     A
C1049  C1050   1.419   .     A
C1049  C1051   1.409   .     A
C1050  C1072   1.425   .     A
C1050  C1053   1.421   .     A
C1051  C1052   1.392   .     A
C1052  C1064   1.397   .     A
C1052  H1082   1.084   .     S
C1053  C1068   1.518   .     S
C1053  C1064   1.410   .     A
C1054  C1120   1.343   .     S
C1054  C1131   1.516   .     S
C1056  H1085   1.083   .     S
C1056  C1063   1.401   .     A
C1056  C1065   1.393   .     A
C1057  C1060   1.455   .     S
C1057  Br652   1.933   1_565 S
C1057  C668    1.350   1_565 S
C1058  C1059   1.428   .     S
C1059  O1094   1.279   .     A
C1059  O1100   1.274   .     A
C1060  O1095   1.263   .     A
C1060  O1101   1.273   .     A
C1061  O1090   1.275   .     A
C1061  C1064   1.461   .     S
C1061  O1092   1.274   .     A
C1062  O1093   1.288   .     A
C1062  C1063   1.470   .     S
C1062  O1091   1.286   .     A
C1063  C1067   1.398   .     A
C1065  C1070   1.403   .     A
C1065  H1084   1.084   .     S
C1066  H1088   1.109   .     S
C1066  H1077   1.111   .     S
C1066  H1076   1.111   .     S
C1067  C1069   1.403   .     A
C1067  H1086   1.076   .     S
C1068  H1078   1.108   .     S
C1068  H1080   1.109   .     S
C1068  H1079   1.111   .     S
C1069  C1070   1.418   .     A
C1069  C1071   1.426   .     A
C1070  C489    1.391   1_556 S
C1071  C487    1.425   1_556 S
C1072  C1073   1.412   .     A
C1073  C1074   1.387   .     A
C1073  H1087   1.079   .     S
C1074  H1075   1.084   .     S
H1081  C1120   1.086   .     S
O1089  Zn1103  1.943   .     S
O1089  Zn1104  1.929   .     S
O1089  Zn1105  1.931   .     S
O1089  Zn1102  1.972   .     S
O1090  Zn1103  1.928   .     S
O1091  Zn1105  1.943   .     S
O1092  Zn1104  1.934   .     S
O1093  Zn1102  1.922   .     S
O1094  Zn1102  1.934   .     S
O1095  Zn1105  1.938   .     S
O1096  Zn1103  1.925   .     S
O1097  Zn1104  1.940   .     S
O1098  Zn1105  1.931   .     S
O1099  Zn1102  1.918   .     S
O1100  Zn1103  1.949   .     S
O1101  Zn1104  1.939   .     S
Br1106 C1116   1.922   .     S
Br1108 C733    1.932   1_565 S
Br1109 C1111   1.930   .     S
C1110  O1161   1.270   .     A
C1110  O1163   1.270   .     A
C1110  C1120   1.440   .     S
C1111  C1112   1.391   .     A
C1111  C1136   1.423   .     A
C1112  H1148   1.082   .     S
C1112  C529    1.397   1_556 S
C1113  C1119   1.466   .     S
C1113  O1162   1.283   .     A
C1113  O1164   1.286   .     A
C1114  C1115   1.419   .     A
C1114  C1116   1.409   .     A
C1115  C1137   1.425   .     A
C1115  C1118   1.421   .     A
C1116  C1117   1.392   .     A
C1117  C1129   1.397   .     A
C1117  H1147   1.084   .     S
C1118  C1133   1.518   .     S
C1118  C1129   1.410   .     A
C1119  C990    1.343   1_655 S
C1119  C1001   1.516   1_655 S
C1121  H1150   1.083   .     S
C1121  C1128   1.401   .     A
C1121  C1130   1.393   .     A
C1122  C1125   1.455   .     S
C1122  Br717   1.933   1_565 S
C1122  C733    1.350   1_565 S
C1123  C1124   1.428   .     S
C1124  O1159   1.279   .     A
C1124  O1165   1.274   .     A
C1125  O1160   1.263   .     A
C1125  O1166   1.273   .     A
C1126  O1155   1.275   .     A
C1126  C1129   1.461   .     S
C1126  O1157   1.274   .     A
C1127  O1158   1.288   .     A
C1127  C1128   1.470   .     S
C1127  O1156   1.286   .     A
C1128  C1132   1.398   .     A
C1130  C1135   1.403   .     A
C1130  H1149   1.084   .     S
C1131  H1153   1.109   .     S
C1131  H1142   1.111   .     S
C1131  H1141   1.111   .     S
C1132  C1134   1.403   .     A
C1132  H1151   1.076   .     S
C1133  H1143   1.108   .     S
C1133  H1145   1.109   .     S
C1133  H1144   1.111   .     S
C1134  C1135   1.418   .     A
C1134  C1136   1.426   .     A
C1135  C554    1.391   1_556 S
C1136  C552    1.425   1_556 S
C1137  C1138   1.412   .     A
C1138  C1139   1.387   .     A
C1138  H1152   1.079   .     S
C1139  H1140   1.084   .     S
H1146  C990    1.086   1_655 S
O1154  Zn1168  1.943   .     S
O1154  Zn1169  1.929   .     S
O1154  Zn1170  1.931   .     S
O1154  Zn1167  1.972   .     S
O1155  Zn1168  1.928   .     S
O1156  Zn1170  1.943   .     S
O1157  Zn1169  1.934   .     S
O1158  Zn1167  1.922   .     S
O1159  Zn1167  1.934   .     S
O1160  Zn1170  1.938   .     S
O1161  Zn1168  1.925   .     S
O1162  Zn1169  1.940   .     S
O1163  Zn1170  1.931   .     S
O1164  Zn1167  1.918   .     S
O1165  Zn1168  1.949   .     S
O1166  Zn1169  1.939   .     S
