data_str_m1_o10_o16_pcu_sym.240
_audit_creation_date              2020-01-03
_audit_creation_method            'Materials Studio'
_symmetry_space_group_name_H-M    'P1'
_symmetry_Int_Tables_number       1
_symmetry_cell_setting            triclinic
loop_
_symmetry_equiv_pos_as_xyz
  x,y,z
_cell_length_a                    32.6534
_cell_length_b                    32.6582
_cell_length_c                    30.8556
_cell_angle_alpha                 97.0175
_cell_angle_beta                  74.8828
_cell_angle_gamma                 98.5068
loop_
_atom_site_label
_atom_site_type_symbol
_atom_site_fract_x
_atom_site_fract_y
_atom_site_fract_z
_atom_site_U_iso_or_equiv
_atom_site_adp_type
_atom_site_occupancy
Br1    Br    0.23470   0.01500   0.20388   0.00000  Uiso   1.00
Br2    Br    0.09398   0.32483   0.29678   0.00000  Uiso   1.00
Br3    Br    0.19769   0.04796   0.41787   0.00000  Uiso   1.00
Br4    Br    0.12126   0.08852   0.39280   0.00000  Uiso   1.00
C5     C     0.05300   0.15995   0.25938   0.00000  Uiso   1.00
C6     C     0.16853   0.15967   0.06036   0.00000  Uiso   1.00
C7     C     0.21823   0.11007   0.05563   0.00000  Uiso   1.00
C8     C     0.28065   0.17366   0.24029   0.00000  Uiso   1.00
C9     C     0.13651   0.18975   0.42142   0.00000  Uiso   1.00
C10    C     0.32611   0.17685   0.23835   0.00000  Uiso   1.00
C11    C     0.00727   0.15560   0.26494   0.00000  Uiso   1.00
C12    C     0.18143   0.32275   0.23963   0.00000  Uiso   1.00
C13    C     0.15049   0.01228   0.26340   0.00000  Uiso   1.00
C14    C     0.15617   0.05603   0.25990   0.00000  Uiso   1.00
C15    C     0.17648   0.27790   0.24059   0.00000  Uiso   1.00
C16    C     0.11913   0.23804   0.48841   0.00000  Uiso   1.00
C17    C     0.18536   0.14777   0.12931   0.00000  Uiso   1.00
C18    C     0.14722   0.18369   0.37135   0.00000  Uiso   1.00
C19    C     0.21789   0.09853   0.00988   0.00000  Uiso   1.00
C20    C     0.19180   0.13940   0.08077   0.00000  Uiso   1.00
C21    C     0.11882   0.22617   0.44345   0.00000  Uiso   1.00
C22    C     0.22634   0.06678   0.10559   0.00000  Uiso   1.00
C23    C     0.32868   0.11877   0.32824   0.00000  Uiso   1.00
C24    C     0.24579   0.03556   0.49800   0.00000  Uiso   1.00
C25    C     0.06081   0.24329   0.42570   0.00000  Uiso   1.00
C26    C     0.13698   0.30548   0.01158   0.00000  Uiso   1.00
C27    C     0.13547   0.21335   0.01205   0.00000  Uiso   1.00
C28    C     0.15045   0.17529   0.49202   0.00000  Uiso   1.00
C29    C     0.14771   0.16198   0.44737   0.00000  Uiso   1.00
C30    C     0.16959   0.15084   0.01453   0.00000  Uiso   1.00
C31    C     0.19063   0.11668   0.49034   0.00000  Uiso   1.00
C32    C     0.18131   0.10044   0.44869   0.00000  Uiso   1.00
C33    C     0.15566   0.12096   0.43049   0.00000  Uiso   1.00
H34    H     0.14841   0.18128   0.08180   0.00000  Uiso   1.00
H35    H     0.21367   0.02467   0.01902   0.00000  Uiso   1.00
H36    H     0.27066   0.03585   0.01663   0.00000  Uiso   1.00
H37    H     0.25294   0.01238   0.46848   0.00000  Uiso   1.00
H38    H     0.04329   0.24931   0.46152   0.00000  Uiso   1.00
H39    H     0.05220   0.21050   0.41321   0.00000  Uiso   1.00
H40    H     0.05015   0.26364   0.40557   0.00000  Uiso   1.00
H41    H     0.15918   0.30945   0.47779   0.00000  Uiso   1.00
H42    H     0.15467   0.29898   0.03577   0.00000  Uiso   1.00
H43    H     0.12389   0.00208   0.02391   0.00000  Uiso   1.00
H44    H     0.13673   0.22554   0.04577   0.00000  Uiso   1.00
H45    H     0.01484   0.19754   0.21540   0.00000  Uiso   1.00
H46    H     0.19476   0.05139   0.10081   0.00000  Uiso   1.00
H47    H     0.22241   0.08229   0.14023   0.00000  Uiso   1.00
H48    H     0.24690   0.04190   0.10259   0.00000  Uiso   1.00
H49    H     0.00342   0.14836   0.34800   0.00000  Uiso   1.00
H50    H     0.02329   0.10092   0.31670   0.00000  Uiso   1.00
H51    H     0.30308   0.09968   0.35111   0.00000  Uiso   1.00
O52    O     0.16667   0.16667   0.25000   0.00000  Uiso   1.00
O53    O     0.15451   0.12637   0.15458   0.00000  Uiso   1.00
O54    O     0.12940   0.20391   0.34968   0.00000  Uiso   1.00
O55    O     0.20824   0.17759   0.14606   0.00000  Uiso   1.00
O56    O     0.17451   0.15880   0.34968   0.00000  Uiso   1.00
O57    O     0.24742   0.09555   0.07376   0.00000  Uiso   1.00
O58    O     0.31331   0.12596   0.29143   0.00000  Uiso   1.00
O59    O     0.24833   0.07496   0.48222   0.00000  Uiso   1.00
O60    O     0.10534   0.25293   0.42006   0.00000  Uiso   1.00
O61    O     0.10275   0.27412   0.00937   0.00000  Uiso   1.00
O62    O     0.17930   0.08019   0.28213   0.00000  Uiso   1.00
O63    O     0.14632   0.26085   0.27013   0.00000  Uiso   1.00
O64    O     0.07412   0.13291   0.23413   0.00000  Uiso   1.00
O65    O     0.26693   0.19272   0.21360   0.00000  Uiso   1.00
O66    O     0.07071   0.18878   0.28213   0.00000  Uiso   1.00
O67    O     0.25491   0.15226   0.27013   0.00000  Uiso   1.00
O68    O     0.13760   0.06944   0.23413   0.00000  Uiso   1.00
O69    O     0.20345   0.25620   0.21360   0.00000  Uiso   1.00
Zn70   Zn    0.19338   0.13994   0.28734   0.00000  Uiso   1.00
Zn71   Zn    0.13379   0.12458   0.21875   0.00000  Uiso   1.00
Zn72   Zn    0.21056   0.19775   0.20657   0.00000  Uiso   1.00
Zn73   Zn    0.12893   0.20439   0.28733   0.00000  Uiso   1.00
Br74   Br    0.56803   0.01500   0.20388   0.00000  Uiso   1.00
Br75   Br    0.42731   0.32483   0.29678   0.00000  Uiso   1.00
Br76   Br    0.53102   0.04796   0.41787   0.00000  Uiso   1.00
Br77   Br    0.45460   0.08852   0.39280   0.00000  Uiso   1.00
C78    C     0.38633   0.15995   0.25938   0.00000  Uiso   1.00
C79    C     0.50187   0.15967   0.06036   0.00000  Uiso   1.00
C80    C     0.55157   0.11007   0.05563   0.00000  Uiso   1.00
C81    C     0.61399   0.17366   0.24029   0.00000  Uiso   1.00
C82    C     0.46984   0.18975   0.42142   0.00000  Uiso   1.00
C83    C     0.65944   0.17685   0.23835   0.00000  Uiso   1.00
C84    C     0.34060   0.15560   0.26494   0.00000  Uiso   1.00
C85    C     0.51476   0.32275   0.23963   0.00000  Uiso   1.00
C86    C     0.48383   0.01228   0.26340   0.00000  Uiso   1.00
C87    C     0.48950   0.05603   0.25990   0.00000  Uiso   1.00
C88    C     0.50982   0.27790   0.24059   0.00000  Uiso   1.00
C89    C     0.45247   0.23804   0.48841   0.00000  Uiso   1.00
C90    C     0.51869   0.14777   0.12931   0.00000  Uiso   1.00
C91    C     0.48055   0.18369   0.37135   0.00000  Uiso   1.00
C92    C     0.55122   0.09853   0.00988   0.00000  Uiso   1.00
C93    C     0.52513   0.13940   0.08077   0.00000  Uiso   1.00
C94    C     0.45216   0.22617   0.44345   0.00000  Uiso   1.00
C95    C     0.55967   0.06678   0.10559   0.00000  Uiso   1.00
C96    C     0.66202   0.11877   0.32824   0.00000  Uiso   1.00
C97    C     0.57912   0.03556   0.49800   0.00000  Uiso   1.00
C98    C     0.39414   0.24329   0.42570   0.00000  Uiso   1.00
C99    C     0.47031   0.30548   0.01158   0.00000  Uiso   1.00
C100   C     0.46880   0.21335   0.01205   0.00000  Uiso   1.00
C101   C     0.48378   0.17529   0.49202   0.00000  Uiso   1.00
C102   C     0.48104   0.16198   0.44737   0.00000  Uiso   1.00
C103   C     0.50292   0.15084   0.01453   0.00000  Uiso   1.00
C104   C     0.52396   0.11668   0.49034   0.00000  Uiso   1.00
C105   C     0.51464   0.10044   0.44869   0.00000  Uiso   1.00
C106   C     0.48899   0.12096   0.43049   0.00000  Uiso   1.00
H107   H     0.48174   0.18128   0.08180   0.00000  Uiso   1.00
H108   H     0.54700   0.02467   0.01902   0.00000  Uiso   1.00
H109   H     0.60400   0.03585   0.01663   0.00000  Uiso   1.00
H110   H     0.58627   0.01238   0.46848   0.00000  Uiso   1.00
H111   H     0.37663   0.24931   0.46152   0.00000  Uiso   1.00
H112   H     0.38553   0.21050   0.41321   0.00000  Uiso   1.00
H113   H     0.38348   0.26364   0.40557   0.00000  Uiso   1.00
H114   H     0.49251   0.30945   0.47779   0.00000  Uiso   1.00
H115   H     0.48800   0.29898   0.03577   0.00000  Uiso   1.00
H116   H     0.45722   0.00208   0.02391   0.00000  Uiso   1.00
H117   H     0.47006   0.22554   0.04577   0.00000  Uiso   1.00
H118   H     0.34817   0.19754   0.21540   0.00000  Uiso   1.00
H119   H     0.52809   0.05139   0.10081   0.00000  Uiso   1.00
H120   H     0.55574   0.08229   0.14023   0.00000  Uiso   1.00
H121   H     0.58023   0.04190   0.10259   0.00000  Uiso   1.00
H122   H     0.33675   0.14836   0.34800   0.00000  Uiso   1.00
H123   H     0.35663   0.10092   0.31670   0.00000  Uiso   1.00
H124   H     0.63642   0.09968   0.35111   0.00000  Uiso   1.00
O125   O     0.50000   0.16667   0.25000   0.00000  Uiso   1.00
O126   O     0.48784   0.12637   0.15458   0.00000  Uiso   1.00
O127   O     0.46274   0.20391   0.34968   0.00000  Uiso   1.00
O128   O     0.54157   0.17759   0.14606   0.00000  Uiso   1.00
O129   O     0.50785   0.15880   0.34968   0.00000  Uiso   1.00
O130   O     0.58076   0.09555   0.07376   0.00000  Uiso   1.00
O131   O     0.64665   0.12596   0.29143   0.00000  Uiso   1.00
O132   O     0.58166   0.07496   0.48222   0.00000  Uiso   1.00
O133   O     0.43867   0.25293   0.42006   0.00000  Uiso   1.00
O134   O     0.43608   0.27412   0.00937   0.00000  Uiso   1.00
O135   O     0.51264   0.08019   0.28213   0.00000  Uiso   1.00
O136   O     0.47965   0.26085   0.27013   0.00000  Uiso   1.00
O137   O     0.40745   0.13291   0.23413   0.00000  Uiso   1.00
O138   O     0.60026   0.19272   0.21360   0.00000  Uiso   1.00
O139   O     0.40405   0.18878   0.28213   0.00000  Uiso   1.00
O140   O     0.58824   0.15226   0.27013   0.00000  Uiso   1.00
O141   O     0.47093   0.06944   0.23413   0.00000  Uiso   1.00
O142   O     0.53678   0.25620   0.21360   0.00000  Uiso   1.00
Zn143  Zn    0.52672   0.13994   0.28734   0.00000  Uiso   1.00
Zn144  Zn    0.46713   0.12458   0.21875   0.00000  Uiso   1.00
Zn145  Zn    0.54389   0.19775   0.20657   0.00000  Uiso   1.00
Zn146  Zn    0.46226   0.20439   0.28733   0.00000  Uiso   1.00
Br147  Br    0.90136   0.01500   0.20388   0.00000  Uiso   1.00
Br148  Br    0.76065   0.32483   0.29678   0.00000  Uiso   1.00
Br149  Br    0.86436   0.04796   0.41787   0.00000  Uiso   1.00
Br150  Br    0.78793   0.08852   0.39280   0.00000  Uiso   1.00
C151   C     0.71966   0.15995   0.25938   0.00000  Uiso   1.00
C152   C     0.83520   0.15967   0.06036   0.00000  Uiso   1.00
C153   C     0.88490   0.11007   0.05563   0.00000  Uiso   1.00
C154   C     0.94732   0.17366   0.24029   0.00000  Uiso   1.00
C155   C     0.80318   0.18975   0.42142   0.00000  Uiso   1.00
C156   C     0.99277   0.17685   0.23835   0.00000  Uiso   1.00
C157   C     0.67394   0.15560   0.26494   0.00000  Uiso   1.00
C158   C     0.84809   0.32275   0.23963   0.00000  Uiso   1.00
C159   C     0.81716   0.01228   0.26340   0.00000  Uiso   1.00
C160   C     0.82283   0.05603   0.25990   0.00000  Uiso   1.00
C161   C     0.84315   0.27790   0.24059   0.00000  Uiso   1.00
C162   C     0.78580   0.23804   0.48841   0.00000  Uiso   1.00
C163   C     0.85202   0.14777   0.12931   0.00000  Uiso   1.00
C164   C     0.81388   0.18369   0.37135   0.00000  Uiso   1.00
C165   C     0.88456   0.09853   0.00988   0.00000  Uiso   1.00
C166   C     0.85847   0.13940   0.08077   0.00000  Uiso   1.00
C167   C     0.78549   0.22617   0.44345   0.00000  Uiso   1.00
C168   C     0.89301   0.06678   0.10559   0.00000  Uiso   1.00
C169   C     0.99535   0.11877   0.32824   0.00000  Uiso   1.00
C170   C     0.91246   0.03556   0.49800   0.00000  Uiso   1.00
C171   C     0.72747   0.24329   0.42570   0.00000  Uiso   1.00
C172   C     0.80364   0.30548   0.01158   0.00000  Uiso   1.00
C173   C     0.80214   0.21335   0.01205   0.00000  Uiso   1.00
C174   C     0.81711   0.17529   0.49202   0.00000  Uiso   1.00
C175   C     0.81437   0.16198   0.44737   0.00000  Uiso   1.00
C176   C     0.83626   0.15084   0.01453   0.00000  Uiso   1.00
C177   C     0.85729   0.11668   0.49034   0.00000  Uiso   1.00
C178   C     0.84798   0.10044   0.44869   0.00000  Uiso   1.00
C179   C     0.82233   0.12096   0.43049   0.00000  Uiso   1.00
H180   H     0.81508   0.18128   0.08180   0.00000  Uiso   1.00
H181   H     0.88034   0.02467   0.01902   0.00000  Uiso   1.00
H182   H     0.93733   0.03585   0.01663   0.00000  Uiso   1.00
H183   H     0.91961   0.01238   0.46848   0.00000  Uiso   1.00
H184   H     0.70996   0.24931   0.46152   0.00000  Uiso   1.00
H185   H     0.71887   0.21050   0.41321   0.00000  Uiso   1.00
H186   H     0.71682   0.26364   0.40557   0.00000  Uiso   1.00
H187   H     0.82585   0.30945   0.47779   0.00000  Uiso   1.00
H188   H     0.82134   0.29898   0.03577   0.00000  Uiso   1.00
H189   H     0.79056   0.00208   0.02391   0.00000  Uiso   1.00
H190   H     0.80340   0.22554   0.04577   0.00000  Uiso   1.00
H191   H     0.68150   0.19754   0.21540   0.00000  Uiso   1.00
H192   H     0.86143   0.05139   0.10081   0.00000  Uiso   1.00
H193   H     0.88908   0.08229   0.14023   0.00000  Uiso   1.00
H194   H     0.91356   0.04190   0.10259   0.00000  Uiso   1.00
H195   H     0.67009   0.14836   0.34800   0.00000  Uiso   1.00
H196   H     0.68996   0.10092   0.31670   0.00000  Uiso   1.00
H197   H     0.96975   0.09968   0.35111   0.00000  Uiso   1.00
O198   O     0.83333   0.16667   0.25000   0.00000  Uiso   1.00
O199   O     0.82118   0.12637   0.15458   0.00000  Uiso   1.00
O200   O     0.79607   0.20391   0.34968   0.00000  Uiso   1.00
O201   O     0.87491   0.17759   0.14606   0.00000  Uiso   1.00
O202   O     0.84118   0.15880   0.34968   0.00000  Uiso   1.00
O203   O     0.91409   0.09555   0.07376   0.00000  Uiso   1.00
O204   O     0.97998   0.12596   0.29143   0.00000  Uiso   1.00
O205   O     0.91500   0.07496   0.48222   0.00000  Uiso   1.00
O206   O     0.77201   0.25293   0.42006   0.00000  Uiso   1.00
O207   O     0.76941   0.27412   0.00937   0.00000  Uiso   1.00
O208   O     0.84597   0.08019   0.28213   0.00000  Uiso   1.00
O209   O     0.81298   0.26085   0.27013   0.00000  Uiso   1.00
O210   O     0.74078   0.13291   0.23413   0.00000  Uiso   1.00
O211   O     0.93360   0.19272   0.21360   0.00000  Uiso   1.00
O212   O     0.73738   0.18878   0.28213   0.00000  Uiso   1.00
O213   O     0.92158   0.15226   0.27013   0.00000  Uiso   1.00
O214   O     0.80426   0.06944   0.23413   0.00000  Uiso   1.00
O215   O     0.87012   0.25620   0.21360   0.00000  Uiso   1.00
Zn216  Zn    0.86005   0.13994   0.28734   0.00000  Uiso   1.00
Zn217  Zn    0.80046   0.12458   0.21875   0.00000  Uiso   1.00
Zn218  Zn    0.87723   0.19775   0.20657   0.00000  Uiso   1.00
Zn219  Zn    0.79560   0.20439   0.28733   0.00000  Uiso   1.00
Br220  Br    0.23470   0.34833   0.20388   0.00000  Uiso   1.00
Br221  Br    0.09398   0.65816   0.29678   0.00000  Uiso   1.00
Br222  Br    0.19769   0.38129   0.41787   0.00000  Uiso   1.00
Br223  Br    0.12126   0.42185   0.39280   0.00000  Uiso   1.00
C224   C     0.05300   0.49329   0.25938   0.00000  Uiso   1.00
C225   C     0.16853   0.49300   0.06036   0.00000  Uiso   1.00
C226   C     0.21823   0.44341   0.05563   0.00000  Uiso   1.00
C227   C     0.28065   0.50699   0.24029   0.00000  Uiso   1.00
C228   C     0.13651   0.52309   0.42142   0.00000  Uiso   1.00
C229   C     0.32611   0.51019   0.23835   0.00000  Uiso   1.00
C230   C     0.00727   0.48893   0.26494   0.00000  Uiso   1.00
C231   C     0.18143   0.65609   0.23963   0.00000  Uiso   1.00
C232   C     0.15049   0.34561   0.26340   0.00000  Uiso   1.00
C233   C     0.15617   0.38937   0.25990   0.00000  Uiso   1.00
C234   C     0.17648   0.61124   0.24059   0.00000  Uiso   1.00
C235   C     0.11913   0.57138   0.48841   0.00000  Uiso   1.00
C236   C     0.18536   0.48110   0.12931   0.00000  Uiso   1.00
C237   C     0.14722   0.51702   0.37135   0.00000  Uiso   1.00
C238   C     0.21789   0.43187   0.00988   0.00000  Uiso   1.00
C239   C     0.19180   0.47274   0.08077   0.00000  Uiso   1.00
C240   C     0.11882   0.55950   0.44345   0.00000  Uiso   1.00
C241   C     0.22634   0.40012   0.10559   0.00000  Uiso   1.00
C242   C     0.32868   0.45210   0.32824   0.00000  Uiso   1.00
C243   C     0.24579   0.36890   0.49800   0.00000  Uiso   1.00
C244   C     0.06081   0.57662   0.42570   0.00000  Uiso   1.00
C245   C     0.13698   0.63882   0.01158   0.00000  Uiso   1.00
C246   C     0.13547   0.54669   0.01205   0.00000  Uiso   1.00
C247   C     0.15045   0.50862   0.49202   0.00000  Uiso   1.00
C248   C     0.14771   0.49531   0.44737   0.00000  Uiso   1.00
C249   C     0.16959   0.48418   0.01453   0.00000  Uiso   1.00
C250   C     0.19063   0.45001   0.49034   0.00000  Uiso   1.00
C251   C     0.18131   0.43378   0.44869   0.00000  Uiso   1.00
C252   C     0.15566   0.45429   0.43049   0.00000  Uiso   1.00
H253   H     0.14841   0.51461   0.08180   0.00000  Uiso   1.00
H254   H     0.21367   0.35800   0.01902   0.00000  Uiso   1.00
H255   H     0.27066   0.36918   0.01663   0.00000  Uiso   1.00
H256   H     0.25294   0.34571   0.46848   0.00000  Uiso   1.00
H257   H     0.04329   0.58264   0.46152   0.00000  Uiso   1.00
H258   H     0.05220   0.54383   0.41321   0.00000  Uiso   1.00
H259   H     0.05015   0.59698   0.40557   0.00000  Uiso   1.00
H260   H     0.15918   0.64278   0.47779   0.00000  Uiso   1.00
H261   H     0.15467   0.63231   0.03577   0.00000  Uiso   1.00
H262   H     0.12389   0.33542   0.02391   0.00000  Uiso   1.00
H263   H     0.13673   0.55887   0.04577   0.00000  Uiso   1.00
H264   H     0.01484   0.53088   0.21540   0.00000  Uiso   1.00
H265   H     0.19476   0.38472   0.10081   0.00000  Uiso   1.00
H266   H     0.22241   0.41563   0.14023   0.00000  Uiso   1.00
H267   H     0.24690   0.37523   0.10259   0.00000  Uiso   1.00
H268   H     0.00342   0.48169   0.34800   0.00000  Uiso   1.00
H269   H     0.02329   0.43425   0.31670   0.00000  Uiso   1.00
H270   H     0.30308   0.43302   0.35111   0.00000  Uiso   1.00
O271   O     0.16667   0.50000   0.25000   0.00000  Uiso   1.00
O272   O     0.15451   0.45970   0.15458   0.00000  Uiso   1.00
O273   O     0.12940   0.53724   0.34968   0.00000  Uiso   1.00
O274   O     0.20824   0.51092   0.14606   0.00000  Uiso   1.00
O275   O     0.17451   0.49213   0.34968   0.00000  Uiso   1.00
O276   O     0.24742   0.42888   0.07376   0.00000  Uiso   1.00
O277   O     0.31331   0.45929   0.29143   0.00000  Uiso   1.00
O278   O     0.24833   0.40830   0.48222   0.00000  Uiso   1.00
O279   O     0.10534   0.58627   0.42006   0.00000  Uiso   1.00
O280   O     0.10275   0.60746   0.00937   0.00000  Uiso   1.00
O281   O     0.17930   0.41352   0.28213   0.00000  Uiso   1.00
O282   O     0.14632   0.59418   0.27013   0.00000  Uiso   1.00
O283   O     0.07412   0.46625   0.23413   0.00000  Uiso   1.00
O284   O     0.26693   0.52605   0.21360   0.00000  Uiso   1.00
O285   O     0.07071   0.52211   0.28213   0.00000  Uiso   1.00
O286   O     0.25491   0.48559   0.27013   0.00000  Uiso   1.00
O287   O     0.13760   0.40277   0.23413   0.00000  Uiso   1.00
O288   O     0.20345   0.58953   0.21360   0.00000  Uiso   1.00
Zn289  Zn    0.19338   0.47327   0.28734   0.00000  Uiso   1.00
Zn290  Zn    0.13379   0.45791   0.21875   0.00000  Uiso   1.00
Zn291  Zn    0.21056   0.53109   0.20657   0.00000  Uiso   1.00
Zn292  Zn    0.12893   0.53773   0.28733   0.00000  Uiso   1.00
Br293  Br    0.56803   0.34833   0.20388   0.00000  Uiso   1.00
Br294  Br    0.42731   0.65816   0.29678   0.00000  Uiso   1.00
Br295  Br    0.53102   0.38129   0.41787   0.00000  Uiso   1.00
Br296  Br    0.45460   0.42185   0.39280   0.00000  Uiso   1.00
C297   C     0.38633   0.49329   0.25938   0.00000  Uiso   1.00
C298   C     0.50187   0.49300   0.06036   0.00000  Uiso   1.00
C299   C     0.55157   0.44341   0.05563   0.00000  Uiso   1.00
C300   C     0.61399   0.50699   0.24029   0.00000  Uiso   1.00
C301   C     0.46984   0.52309   0.42142   0.00000  Uiso   1.00
C302   C     0.65944   0.51019   0.23835   0.00000  Uiso   1.00
C303   C     0.34060   0.48893   0.26494   0.00000  Uiso   1.00
C304   C     0.51476   0.65609   0.23963   0.00000  Uiso   1.00
C305   C     0.48383   0.34561   0.26340   0.00000  Uiso   1.00
C306   C     0.48950   0.38937   0.25990   0.00000  Uiso   1.00
C307   C     0.50982   0.61124   0.24059   0.00000  Uiso   1.00
C308   C     0.45247   0.57138   0.48841   0.00000  Uiso   1.00
C309   C     0.51869   0.48110   0.12931   0.00000  Uiso   1.00
C310   C     0.48055   0.51702   0.37135   0.00000  Uiso   1.00
C311   C     0.55122   0.43187   0.00988   0.00000  Uiso   1.00
C312   C     0.52513   0.47274   0.08077   0.00000  Uiso   1.00
C313   C     0.45216   0.55950   0.44345   0.00000  Uiso   1.00
C314   C     0.55967   0.40012   0.10559   0.00000  Uiso   1.00
C315   C     0.66202   0.45210   0.32824   0.00000  Uiso   1.00
C316   C     0.57912   0.36890   0.49800   0.00000  Uiso   1.00
C317   C     0.39414   0.57662   0.42570   0.00000  Uiso   1.00
C318   C     0.47031   0.63882   0.01158   0.00000  Uiso   1.00
C319   C     0.46880   0.54669   0.01205   0.00000  Uiso   1.00
C320   C     0.48378   0.50862   0.49202   0.00000  Uiso   1.00
C321   C     0.48104   0.49531   0.44737   0.00000  Uiso   1.00
C322   C     0.50292   0.48418   0.01453   0.00000  Uiso   1.00
C323   C     0.52396   0.45001   0.49034   0.00000  Uiso   1.00
C324   C     0.51464   0.43378   0.44869   0.00000  Uiso   1.00
C325   C     0.48899   0.45429   0.43049   0.00000  Uiso   1.00
H326   H     0.48174   0.51461   0.08180   0.00000  Uiso   1.00
H327   H     0.54700   0.35800   0.01902   0.00000  Uiso   1.00
H328   H     0.60400   0.36918   0.01663   0.00000  Uiso   1.00
H329   H     0.58627   0.34571   0.46848   0.00000  Uiso   1.00
H330   H     0.37663   0.58264   0.46152   0.00000  Uiso   1.00
H331   H     0.38553   0.54383   0.41321   0.00000  Uiso   1.00
H332   H     0.38348   0.59698   0.40557   0.00000  Uiso   1.00
H333   H     0.49251   0.64278   0.47779   0.00000  Uiso   1.00
H334   H     0.48800   0.63231   0.03577   0.00000  Uiso   1.00
H335   H     0.45722   0.33542   0.02391   0.00000  Uiso   1.00
H336   H     0.47006   0.55887   0.04577   0.00000  Uiso   1.00
H337   H     0.34817   0.53088   0.21540   0.00000  Uiso   1.00
H338   H     0.52809   0.38472   0.10081   0.00000  Uiso   1.00
H339   H     0.55574   0.41563   0.14023   0.00000  Uiso   1.00
H340   H     0.58023   0.37523   0.10259   0.00000  Uiso   1.00
H341   H     0.33675   0.48169   0.34800   0.00000  Uiso   1.00
H342   H     0.35663   0.43425   0.31670   0.00000  Uiso   1.00
H343   H     0.63642   0.43302   0.35111   0.00000  Uiso   1.00
O344   O     0.50000   0.50000   0.25000   0.00000  Uiso   1.00
O345   O     0.48784   0.45970   0.15458   0.00000  Uiso   1.00
O346   O     0.46274   0.53724   0.34968   0.00000  Uiso   1.00
O347   O     0.54157   0.51092   0.14606   0.00000  Uiso   1.00
O348   O     0.50785   0.49213   0.34968   0.00000  Uiso   1.00
O349   O     0.58076   0.42888   0.07376   0.00000  Uiso   1.00
O350   O     0.64665   0.45929   0.29143   0.00000  Uiso   1.00
O351   O     0.58166   0.40830   0.48222   0.00000  Uiso   1.00
O352   O     0.43867   0.58627   0.42006   0.00000  Uiso   1.00
O353   O     0.43608   0.60746   0.00937   0.00000  Uiso   1.00
O354   O     0.51264   0.41352   0.28213   0.00000  Uiso   1.00
O355   O     0.47965   0.59418   0.27013   0.00000  Uiso   1.00
O356   O     0.40745   0.46625   0.23413   0.00000  Uiso   1.00
O357   O     0.60026   0.52605   0.21360   0.00000  Uiso   1.00
O358   O     0.40405   0.52211   0.28213   0.00000  Uiso   1.00
O359   O     0.58824   0.48559   0.27013   0.00000  Uiso   1.00
O360   O     0.47093   0.40277   0.23413   0.00000  Uiso   1.00
O361   O     0.53678   0.58953   0.21360   0.00000  Uiso   1.00
Zn362  Zn    0.52672   0.47327   0.28734   0.00000  Uiso   1.00
Zn363  Zn    0.46713   0.45791   0.21875   0.00000  Uiso   1.00
Zn364  Zn    0.54389   0.53109   0.20657   0.00000  Uiso   1.00
Zn365  Zn    0.46226   0.53773   0.28733   0.00000  Uiso   1.00
Br366  Br    0.90136   0.34833   0.20388   0.00000  Uiso   1.00
Br367  Br    0.76065   0.65816   0.29678   0.00000  Uiso   1.00
Br368  Br    0.86436   0.38129   0.41787   0.00000  Uiso   1.00
Br369  Br    0.78793   0.42185   0.39280   0.00000  Uiso   1.00
C370   C     0.71966   0.49329   0.25938   0.00000  Uiso   1.00
C371   C     0.83520   0.49300   0.06036   0.00000  Uiso   1.00
C372   C     0.88490   0.44341   0.05563   0.00000  Uiso   1.00
C373   C     0.94732   0.50699   0.24029   0.00000  Uiso   1.00
C374   C     0.80318   0.52309   0.42142   0.00000  Uiso   1.00
C375   C     0.99277   0.51019   0.23835   0.00000  Uiso   1.00
C376   C     0.67394   0.48893   0.26494   0.00000  Uiso   1.00
C377   C     0.84809   0.65609   0.23963   0.00000  Uiso   1.00
C378   C     0.81716   0.34561   0.26340   0.00000  Uiso   1.00
C379   C     0.82283   0.38937   0.25990   0.00000  Uiso   1.00
C380   C     0.84315   0.61124   0.24059   0.00000  Uiso   1.00
C381   C     0.78580   0.57138   0.48841   0.00000  Uiso   1.00
C382   C     0.85202   0.48110   0.12931   0.00000  Uiso   1.00
C383   C     0.81388   0.51702   0.37135   0.00000  Uiso   1.00
C384   C     0.88456   0.43187   0.00988   0.00000  Uiso   1.00
C385   C     0.85847   0.47274   0.08077   0.00000  Uiso   1.00
C386   C     0.78549   0.55950   0.44345   0.00000  Uiso   1.00
C387   C     0.89301   0.40012   0.10559   0.00000  Uiso   1.00
C388   C     0.99535   0.45210   0.32824   0.00000  Uiso   1.00
C389   C     0.91246   0.36890   0.49800   0.00000  Uiso   1.00
C390   C     0.72747   0.57662   0.42570   0.00000  Uiso   1.00
C391   C     0.80364   0.63882   0.01158   0.00000  Uiso   1.00
C392   C     0.80214   0.54669   0.01205   0.00000  Uiso   1.00
C393   C     0.81711   0.50862   0.49202   0.00000  Uiso   1.00
C394   C     0.81437   0.49531   0.44737   0.00000  Uiso   1.00
C395   C     0.83626   0.48418   0.01453   0.00000  Uiso   1.00
C396   C     0.85729   0.45001   0.49034   0.00000  Uiso   1.00
C397   C     0.84798   0.43378   0.44869   0.00000  Uiso   1.00
C398   C     0.82233   0.45429   0.43049   0.00000  Uiso   1.00
H399   H     0.81508   0.51461   0.08180   0.00000  Uiso   1.00
H400   H     0.88034   0.35800   0.01902   0.00000  Uiso   1.00
H401   H     0.93733   0.36918   0.01663   0.00000  Uiso   1.00
H402   H     0.91961   0.34571   0.46848   0.00000  Uiso   1.00
H403   H     0.70996   0.58264   0.46152   0.00000  Uiso   1.00
H404   H     0.71887   0.54383   0.41321   0.00000  Uiso   1.00
H405   H     0.71682   0.59698   0.40557   0.00000  Uiso   1.00
H406   H     0.82585   0.64278   0.47779   0.00000  Uiso   1.00
H407   H     0.82134   0.63231   0.03577   0.00000  Uiso   1.00
H408   H     0.79056   0.33542   0.02391   0.00000  Uiso   1.00
H409   H     0.80340   0.55887   0.04577   0.00000  Uiso   1.00
H410   H     0.68150   0.53088   0.21540   0.00000  Uiso   1.00
H411   H     0.86143   0.38472   0.10081   0.00000  Uiso   1.00
H412   H     0.88908   0.41563   0.14023   0.00000  Uiso   1.00
H413   H     0.91356   0.37523   0.10259   0.00000  Uiso   1.00
H414   H     0.67009   0.48169   0.34800   0.00000  Uiso   1.00
H415   H     0.68996   0.43425   0.31670   0.00000  Uiso   1.00
H416   H     0.96975   0.43302   0.35111   0.00000  Uiso   1.00
O417   O     0.83333   0.50000   0.25000   0.00000  Uiso   1.00
O418   O     0.82118   0.45970   0.15458   0.00000  Uiso   1.00
O419   O     0.79607   0.53724   0.34968   0.00000  Uiso   1.00
O420   O     0.87491   0.51092   0.14606   0.00000  Uiso   1.00
O421   O     0.84118   0.49213   0.34968   0.00000  Uiso   1.00
O422   O     0.91409   0.42888   0.07376   0.00000  Uiso   1.00
O423   O     0.97998   0.45929   0.29143   0.00000  Uiso   1.00
O424   O     0.91500   0.40830   0.48222   0.00000  Uiso   1.00
O425   O     0.77201   0.58627   0.42006   0.00000  Uiso   1.00
O426   O     0.76941   0.60746   0.00937   0.00000  Uiso   1.00
O427   O     0.84597   0.41352   0.28213   0.00000  Uiso   1.00
O428   O     0.81298   0.59418   0.27013   0.00000  Uiso   1.00
O429   O     0.74078   0.46625   0.23413   0.00000  Uiso   1.00
O430   O     0.93360   0.52605   0.21360   0.00000  Uiso   1.00
O431   O     0.73738   0.52211   0.28213   0.00000  Uiso   1.00
O432   O     0.92158   0.48559   0.27013   0.00000  Uiso   1.00
O433   O     0.80426   0.40277   0.23413   0.00000  Uiso   1.00
O434   O     0.87012   0.58953   0.21360   0.00000  Uiso   1.00
Zn435  Zn    0.86005   0.47327   0.28734   0.00000  Uiso   1.00
Zn436  Zn    0.80046   0.45791   0.21875   0.00000  Uiso   1.00
Zn437  Zn    0.87723   0.53109   0.20657   0.00000  Uiso   1.00
Zn438  Zn    0.79560   0.53773   0.28733   0.00000  Uiso   1.00
Br439  Br    0.23470   0.68166   0.20388   0.00000  Uiso   1.00
Br440  Br    0.09398   0.99150   0.29678   0.00000  Uiso   1.00
Br441  Br    0.19769   0.71463   0.41787   0.00000  Uiso   1.00
Br442  Br    0.12126   0.75518   0.39280   0.00000  Uiso   1.00
C443   C     0.05300   0.82662   0.25938   0.00000  Uiso   1.00
C444   C     0.16853   0.82633   0.06036   0.00000  Uiso   1.00
C445   C     0.21823   0.77674   0.05563   0.00000  Uiso   1.00
C446   C     0.28065   0.84033   0.24029   0.00000  Uiso   1.00
C447   C     0.13651   0.85642   0.42142   0.00000  Uiso   1.00
C448   C     0.32611   0.84352   0.23835   0.00000  Uiso   1.00
C449   C     0.00727   0.82226   0.26494   0.00000  Uiso   1.00
C450   C     0.18143   0.98942   0.23963   0.00000  Uiso   1.00
C451   C     0.15049   0.67894   0.26340   0.00000  Uiso   1.00
C452   C     0.15617   0.72270   0.25990   0.00000  Uiso   1.00
C453   C     0.17648   0.94457   0.24059   0.00000  Uiso   1.00
C454   C     0.11913   0.90471   0.48841   0.00000  Uiso   1.00
C455   C     0.18536   0.81444   0.12931   0.00000  Uiso   1.00
C456   C     0.14722   0.85035   0.37135   0.00000  Uiso   1.00
C457   C     0.21789   0.76520   0.00988   0.00000  Uiso   1.00
C458   C     0.19180   0.80607   0.08077   0.00000  Uiso   1.00
C459   C     0.11882   0.89284   0.44345   0.00000  Uiso   1.00
C460   C     0.22634   0.73345   0.10559   0.00000  Uiso   1.00
C461   C     0.32868   0.78543   0.32824   0.00000  Uiso   1.00
C462   C     0.24579   0.70223   0.49800   0.00000  Uiso   1.00
C463   C     0.06081   0.90996   0.42570   0.00000  Uiso   1.00
C464   C     0.13698   0.97215   0.01158   0.00000  Uiso   1.00
C465   C     0.13547   0.88002   0.01205   0.00000  Uiso   1.00
C466   C     0.15045   0.84196   0.49202   0.00000  Uiso   1.00
C467   C     0.14771   0.82864   0.44737   0.00000  Uiso   1.00
C468   C     0.16959   0.81751   0.01453   0.00000  Uiso   1.00
C469   C     0.19063   0.78334   0.49034   0.00000  Uiso   1.00
C470   C     0.18131   0.76711   0.44869   0.00000  Uiso   1.00
C471   C     0.15566   0.78763   0.43049   0.00000  Uiso   1.00
H472   H     0.14841   0.84795   0.08180   0.00000  Uiso   1.00
H473   H     0.21367   0.69133   0.01902   0.00000  Uiso   1.00
H474   H     0.27066   0.70252   0.01663   0.00000  Uiso   1.00
H475   H     0.25294   0.67905   0.46848   0.00000  Uiso   1.00
H476   H     0.04329   0.91597   0.46152   0.00000  Uiso   1.00
H477   H     0.05220   0.87716   0.41321   0.00000  Uiso   1.00
H478   H     0.05015   0.93031   0.40557   0.00000  Uiso   1.00
H479   H     0.15918   0.97611   0.47779   0.00000  Uiso   1.00
H480   H     0.15467   0.96565   0.03577   0.00000  Uiso   1.00
H481   H     0.12389   0.66875   0.02391   0.00000  Uiso   1.00
H482   H     0.13673   0.89220   0.04577   0.00000  Uiso   1.00
H483   H     0.01484   0.86421   0.21540   0.00000  Uiso   1.00
H484   H     0.19476   0.71805   0.10081   0.00000  Uiso   1.00
H485   H     0.22241   0.74896   0.14023   0.00000  Uiso   1.00
H486   H     0.24690   0.70857   0.10259   0.00000  Uiso   1.00
H487   H     0.00342   0.81503   0.34800   0.00000  Uiso   1.00
H488   H     0.02329   0.76758   0.31670   0.00000  Uiso   1.00
H489   H     0.30308   0.76635   0.35111   0.00000  Uiso   1.00
O490   O     0.16667   0.83333   0.25000   0.00000  Uiso   1.00
O491   O     0.15451   0.79304   0.15458   0.00000  Uiso   1.00
O492   O     0.12940   0.87058   0.34968   0.00000  Uiso   1.00
O493   O     0.20824   0.84425   0.14606   0.00000  Uiso   1.00
O494   O     0.17451   0.82546   0.34968   0.00000  Uiso   1.00
O495   O     0.24742   0.76221   0.07376   0.00000  Uiso   1.00
O496   O     0.31331   0.79262   0.29143   0.00000  Uiso   1.00
O497   O     0.24833   0.74163   0.48222   0.00000  Uiso   1.00
O498   O     0.10534   0.91960   0.42006   0.00000  Uiso   1.00
O499   O     0.10275   0.94079   0.00937   0.00000  Uiso   1.00
O500   O     0.17930   0.74686   0.28213   0.00000  Uiso   1.00
O501   O     0.14632   0.92751   0.27013   0.00000  Uiso   1.00
O502   O     0.07412   0.79958   0.23413   0.00000  Uiso   1.00
O503   O     0.26693   0.85939   0.21360   0.00000  Uiso   1.00
O504   O     0.07071   0.85544   0.28213   0.00000  Uiso   1.00
O505   O     0.25491   0.81892   0.27013   0.00000  Uiso   1.00
O506   O     0.13760   0.73610   0.23413   0.00000  Uiso   1.00
O507   O     0.20345   0.92286   0.21360   0.00000  Uiso   1.00
Zn508  Zn    0.19338   0.80661   0.28734   0.00000  Uiso   1.00
Zn509  Zn    0.13379   0.79124   0.21875   0.00000  Uiso   1.00
Zn510  Zn    0.21056   0.86442   0.20657   0.00000  Uiso   1.00
Zn511  Zn    0.12893   0.87106   0.28733   0.00000  Uiso   1.00
Br512  Br    0.56803   0.68166   0.20388   0.00000  Uiso   1.00
Br513  Br    0.42731   0.99150   0.29678   0.00000  Uiso   1.00
Br514  Br    0.53102   0.71463   0.41787   0.00000  Uiso   1.00
Br515  Br    0.45460   0.75518   0.39280   0.00000  Uiso   1.00
C516   C     0.38633   0.82662   0.25938   0.00000  Uiso   1.00
C517   C     0.50187   0.82633   0.06036   0.00000  Uiso   1.00
C518   C     0.55157   0.77674   0.05563   0.00000  Uiso   1.00
C519   C     0.61399   0.84033   0.24029   0.00000  Uiso   1.00
C520   C     0.46984   0.85642   0.42142   0.00000  Uiso   1.00
C521   C     0.65944   0.84352   0.23835   0.00000  Uiso   1.00
C522   C     0.34060   0.82226   0.26494   0.00000  Uiso   1.00
C523   C     0.51476   0.98942   0.23963   0.00000  Uiso   1.00
C524   C     0.48383   0.67894   0.26340   0.00000  Uiso   1.00
C525   C     0.48950   0.72270   0.25990   0.00000  Uiso   1.00
C526   C     0.50982   0.94457   0.24059   0.00000  Uiso   1.00
C527   C     0.45247   0.90471   0.48841   0.00000  Uiso   1.00
C528   C     0.51869   0.81444   0.12931   0.00000  Uiso   1.00
C529   C     0.48055   0.85035   0.37135   0.00000  Uiso   1.00
C530   C     0.55122   0.76520   0.00988   0.00000  Uiso   1.00
C531   C     0.52513   0.80607   0.08077   0.00000  Uiso   1.00
C532   C     0.45216   0.89284   0.44345   0.00000  Uiso   1.00
C533   C     0.55967   0.73345   0.10559   0.00000  Uiso   1.00
C534   C     0.66202   0.78543   0.32824   0.00000  Uiso   1.00
C535   C     0.57912   0.70223   0.49800   0.00000  Uiso   1.00
C536   C     0.39414   0.90996   0.42570   0.00000  Uiso   1.00
C537   C     0.47031   0.97215   0.01158   0.00000  Uiso   1.00
C538   C     0.46880   0.88002   0.01205   0.00000  Uiso   1.00
C539   C     0.48378   0.84196   0.49202   0.00000  Uiso   1.00
C540   C     0.48104   0.82864   0.44737   0.00000  Uiso   1.00
C541   C     0.50292   0.81751   0.01453   0.00000  Uiso   1.00
C542   C     0.52396   0.78334   0.49034   0.00000  Uiso   1.00
C543   C     0.51464   0.76711   0.44869   0.00000  Uiso   1.00
C544   C     0.48899   0.78763   0.43049   0.00000  Uiso   1.00
H545   H     0.48174   0.84795   0.08180   0.00000  Uiso   1.00
H546   H     0.54700   0.69133   0.01902   0.00000  Uiso   1.00
H547   H     0.60400   0.70252   0.01663   0.00000  Uiso   1.00
H548   H     0.58627   0.67905   0.46848   0.00000  Uiso   1.00
H549   H     0.37663   0.91597   0.46152   0.00000  Uiso   1.00
H550   H     0.38553   0.87716   0.41321   0.00000  Uiso   1.00
H551   H     0.38348   0.93031   0.40557   0.00000  Uiso   1.00
H552   H     0.49251   0.97611   0.47779   0.00000  Uiso   1.00
H553   H     0.48800   0.96565   0.03577   0.00000  Uiso   1.00
H554   H     0.45722   0.66875   0.02391   0.00000  Uiso   1.00
H555   H     0.47006   0.89220   0.04577   0.00000  Uiso   1.00
H556   H     0.34817   0.86421   0.21540   0.00000  Uiso   1.00
H557   H     0.52809   0.71805   0.10081   0.00000  Uiso   1.00
H558   H     0.55574   0.74896   0.14023   0.00000  Uiso   1.00
H559   H     0.58023   0.70857   0.10259   0.00000  Uiso   1.00
H560   H     0.33675   0.81503   0.34800   0.00000  Uiso   1.00
H561   H     0.35663   0.76758   0.31670   0.00000  Uiso   1.00
H562   H     0.63642   0.76635   0.35111   0.00000  Uiso   1.00
O563   O     0.50000   0.83333   0.25000   0.00000  Uiso   1.00
O564   O     0.48784   0.79304   0.15458   0.00000  Uiso   1.00
O565   O     0.46274   0.87058   0.34968   0.00000  Uiso   1.00
O566   O     0.54157   0.84425   0.14606   0.00000  Uiso   1.00
O567   O     0.50785   0.82546   0.34968   0.00000  Uiso   1.00
O568   O     0.58076   0.76221   0.07376   0.00000  Uiso   1.00
O569   O     0.64665   0.79262   0.29143   0.00000  Uiso   1.00
O570   O     0.58166   0.74163   0.48222   0.00000  Uiso   1.00
O571   O     0.43867   0.91960   0.42006   0.00000  Uiso   1.00
O572   O     0.43608   0.94079   0.00937   0.00000  Uiso   1.00
O573   O     0.51264   0.74686   0.28213   0.00000  Uiso   1.00
O574   O     0.47965   0.92751   0.27013   0.00000  Uiso   1.00
O575   O     0.40745   0.79958   0.23413   0.00000  Uiso   1.00
O576   O     0.60026   0.85939   0.21360   0.00000  Uiso   1.00
O577   O     0.40405   0.85544   0.28213   0.00000  Uiso   1.00
O578   O     0.58824   0.81892   0.27013   0.00000  Uiso   1.00
O579   O     0.47093   0.73610   0.23413   0.00000  Uiso   1.00
O580   O     0.53678   0.92286   0.21360   0.00000  Uiso   1.00
Zn581  Zn    0.52672   0.80661   0.28734   0.00000  Uiso   1.00
Zn582  Zn    0.46713   0.79124   0.21875   0.00000  Uiso   1.00
Zn583  Zn    0.54389   0.86442   0.20657   0.00000  Uiso   1.00
Zn584  Zn    0.46226   0.87106   0.28733   0.00000  Uiso   1.00
Br585  Br    0.90136   0.68166   0.20388   0.00000  Uiso   1.00
Br586  Br    0.76065   0.99150   0.29678   0.00000  Uiso   1.00
Br587  Br    0.86436   0.71463   0.41787   0.00000  Uiso   1.00
Br588  Br    0.78793   0.75518   0.39280   0.00000  Uiso   1.00
C589   C     0.71966   0.82662   0.25938   0.00000  Uiso   1.00
C590   C     0.83520   0.82633   0.06036   0.00000  Uiso   1.00
C591   C     0.88490   0.77674   0.05563   0.00000  Uiso   1.00
C592   C     0.94732   0.84033   0.24029   0.00000  Uiso   1.00
C593   C     0.80318   0.85642   0.42142   0.00000  Uiso   1.00
C594   C     0.99277   0.84352   0.23835   0.00000  Uiso   1.00
C595   C     0.67394   0.82226   0.26494   0.00000  Uiso   1.00
C596   C     0.84809   0.98942   0.23963   0.00000  Uiso   1.00
C597   C     0.81716   0.67894   0.26340   0.00000  Uiso   1.00
C598   C     0.82283   0.72270   0.25990   0.00000  Uiso   1.00
C599   C     0.84315   0.94457   0.24059   0.00000  Uiso   1.00
C600   C     0.78580   0.90471   0.48841   0.00000  Uiso   1.00
C601   C     0.85202   0.81444   0.12931   0.00000  Uiso   1.00
C602   C     0.81388   0.85035   0.37135   0.00000  Uiso   1.00
C603   C     0.88456   0.76520   0.00988   0.00000  Uiso   1.00
C604   C     0.85847   0.80607   0.08077   0.00000  Uiso   1.00
C605   C     0.78549   0.89284   0.44345   0.00000  Uiso   1.00
C606   C     0.89301   0.73345   0.10559   0.00000  Uiso   1.00
C607   C     0.99535   0.78543   0.32824   0.00000  Uiso   1.00
C608   C     0.91246   0.70223   0.49800   0.00000  Uiso   1.00
C609   C     0.72747   0.90996   0.42570   0.00000  Uiso   1.00
C610   C     0.80364   0.97215   0.01158   0.00000  Uiso   1.00
C611   C     0.80214   0.88002   0.01205   0.00000  Uiso   1.00
C612   C     0.81711   0.84196   0.49202   0.00000  Uiso   1.00
C613   C     0.81437   0.82864   0.44737   0.00000  Uiso   1.00
C614   C     0.83626   0.81751   0.01453   0.00000  Uiso   1.00
C615   C     0.85729   0.78334   0.49034   0.00000  Uiso   1.00
C616   C     0.84798   0.76711   0.44869   0.00000  Uiso   1.00
C617   C     0.82233   0.78763   0.43049   0.00000  Uiso   1.00
H618   H     0.81508   0.84795   0.08180   0.00000  Uiso   1.00
H619   H     0.88034   0.69133   0.01902   0.00000  Uiso   1.00
H620   H     0.93733   0.70252   0.01663   0.00000  Uiso   1.00
H621   H     0.91961   0.67905   0.46848   0.00000  Uiso   1.00
H622   H     0.70996   0.91597   0.46152   0.00000  Uiso   1.00
H623   H     0.71887   0.87716   0.41321   0.00000  Uiso   1.00
H624   H     0.71682   0.93031   0.40557   0.00000  Uiso   1.00
H625   H     0.82585   0.97611   0.47779   0.00000  Uiso   1.00
H626   H     0.82134   0.96565   0.03577   0.00000  Uiso   1.00
H627   H     0.79056   0.66875   0.02391   0.00000  Uiso   1.00
H628   H     0.80340   0.89220   0.04577   0.00000  Uiso   1.00
H629   H     0.68150   0.86421   0.21540   0.00000  Uiso   1.00
H630   H     0.86143   0.71805   0.10081   0.00000  Uiso   1.00
H631   H     0.88908   0.74896   0.14023   0.00000  Uiso   1.00
H632   H     0.91356   0.70857   0.10259   0.00000  Uiso   1.00
H633   H     0.67009   0.81503   0.34800   0.00000  Uiso   1.00
H634   H     0.68996   0.76758   0.31670   0.00000  Uiso   1.00
H635   H     0.96975   0.76635   0.35111   0.00000  Uiso   1.00
O636   O     0.83333   0.83333   0.25000   0.00000  Uiso   1.00
O637   O     0.82118   0.79304   0.15458   0.00000  Uiso   1.00
O638   O     0.79607   0.87058   0.34968   0.00000  Uiso   1.00
O639   O     0.87491   0.84425   0.14606   0.00000  Uiso   1.00
O640   O     0.84118   0.82546   0.34968   0.00000  Uiso   1.00
O641   O     0.91409   0.76221   0.07376   0.00000  Uiso   1.00
O642   O     0.97998   0.79262   0.29143   0.00000  Uiso   1.00
O643   O     0.91500   0.74163   0.48222   0.00000  Uiso   1.00
O644   O     0.77201   0.91960   0.42006   0.00000  Uiso   1.00
O645   O     0.76941   0.94079   0.00937   0.00000  Uiso   1.00
O646   O     0.84597   0.74686   0.28213   0.00000  Uiso   1.00
O647   O     0.81298   0.92751   0.27013   0.00000  Uiso   1.00
O648   O     0.74078   0.79958   0.23413   0.00000  Uiso   1.00
O649   O     0.93360   0.85939   0.21360   0.00000  Uiso   1.00
O650   O     0.73738   0.85544   0.28213   0.00000  Uiso   1.00
O651   O     0.92158   0.81892   0.27013   0.00000  Uiso   1.00
O652   O     0.80426   0.73610   0.23413   0.00000  Uiso   1.00
O653   O     0.87012   0.92286   0.21360   0.00000  Uiso   1.00
Zn654  Zn    0.86005   0.80661   0.28734   0.00000  Uiso   1.00
Zn655  Zn    0.80046   0.79124   0.21875   0.00000  Uiso   1.00
Zn656  Zn    0.87723   0.86442   0.20657   0.00000  Uiso   1.00
Zn657  Zn    0.79560   0.87106   0.28733   0.00000  Uiso   1.00
Br658  Br    0.23470   0.01500   0.70388   0.00000  Uiso   1.00
Br659  Br    0.09398   0.32483   0.79678   0.00000  Uiso   1.00
Br660  Br    0.19769   0.04796   0.91787   0.00000  Uiso   1.00
Br661  Br    0.12126   0.08852   0.89280   0.00000  Uiso   1.00
C662   C     0.05300   0.15995   0.75938   0.00000  Uiso   1.00
C663   C     0.16853   0.15967   0.56036   0.00000  Uiso   1.00
C664   C     0.21823   0.11007   0.55563   0.00000  Uiso   1.00
C665   C     0.28065   0.17366   0.74029   0.00000  Uiso   1.00
C666   C     0.13651   0.18975   0.92142   0.00000  Uiso   1.00
C667   C     0.32611   0.17685   0.73835   0.00000  Uiso   1.00
C668   C     0.00727   0.15560   0.76494   0.00000  Uiso   1.00
C669   C     0.18143   0.32275   0.73963   0.00000  Uiso   1.00
C670   C     0.15049   0.01228   0.76340   0.00000  Uiso   1.00
C671   C     0.15617   0.05603   0.75990   0.00000  Uiso   1.00
C672   C     0.17648   0.27790   0.74059   0.00000  Uiso   1.00
C673   C     0.11913   0.23804   0.98841   0.00000  Uiso   1.00
C674   C     0.18536   0.14777   0.62931   0.00000  Uiso   1.00
C675   C     0.14722   0.18369   0.87135   0.00000  Uiso   1.00
C676   C     0.21789   0.09853   0.50988   0.00000  Uiso   1.00
C677   C     0.19180   0.13940   0.58077   0.00000  Uiso   1.00
C678   C     0.11882   0.22617   0.94345   0.00000  Uiso   1.00
C679   C     0.22634   0.06678   0.60559   0.00000  Uiso   1.00
C680   C     0.32868   0.11877   0.82824   0.00000  Uiso   1.00
C681   C     0.24579   0.03556   0.99800   0.00000  Uiso   1.00
C682   C     0.06081   0.24329   0.92570   0.00000  Uiso   1.00
C683   C     0.13698   0.30548   0.51158   0.00000  Uiso   1.00
C684   C     0.13547   0.21335   0.51205   0.00000  Uiso   1.00
C685   C     0.15045   0.17529   0.99202   0.00000  Uiso   1.00
C686   C     0.14771   0.16198   0.94737   0.00000  Uiso   1.00
C687   C     0.16959   0.15084   0.51453   0.00000  Uiso   1.00
C688   C     0.19063   0.11668   0.99034   0.00000  Uiso   1.00
C689   C     0.18131   0.10044   0.94869   0.00000  Uiso   1.00
C690   C     0.15566   0.12096   0.93049   0.00000  Uiso   1.00
H691   H     0.14841   0.18128   0.58180   0.00000  Uiso   1.00
H692   H     0.21367   0.02467   0.51902   0.00000  Uiso   1.00
H693   H     0.27066   0.03585   0.51663   0.00000  Uiso   1.00
H694   H     0.25294   0.01238   0.96848   0.00000  Uiso   1.00
H695   H     0.04329   0.24931   0.96152   0.00000  Uiso   1.00
H696   H     0.05220   0.21050   0.91321   0.00000  Uiso   1.00
H697   H     0.05015   0.26364   0.90557   0.00000  Uiso   1.00
H698   H     0.15918   0.30945   0.97779   0.00000  Uiso   1.00
H699   H     0.15467   0.29898   0.53577   0.00000  Uiso   1.00
H700   H     0.12389   0.00208   0.52391   0.00000  Uiso   1.00
H701   H     0.13673   0.22554   0.54577   0.00000  Uiso   1.00
H702   H     0.01484   0.19754   0.71540   0.00000  Uiso   1.00
H703   H     0.19476   0.05139   0.60081   0.00000  Uiso   1.00
H704   H     0.22241   0.08229   0.64023   0.00000  Uiso   1.00
H705   H     0.24690   0.04190   0.60259   0.00000  Uiso   1.00
H706   H     0.00342   0.14836   0.84800   0.00000  Uiso   1.00
H707   H     0.02329   0.10092   0.81670   0.00000  Uiso   1.00
H708   H     0.30308   0.09968   0.85111   0.00000  Uiso   1.00
O709   O     0.16667   0.16667   0.75000   0.00000  Uiso   1.00
O710   O     0.15451   0.12637   0.65458   0.00000  Uiso   1.00
O711   O     0.12940   0.20391   0.84968   0.00000  Uiso   1.00
O712   O     0.20824   0.17759   0.64606   0.00000  Uiso   1.00
O713   O     0.17451   0.15880   0.84968   0.00000  Uiso   1.00
O714   O     0.24742   0.09555   0.57376   0.00000  Uiso   1.00
O715   O     0.31331   0.12596   0.79143   0.00000  Uiso   1.00
O716   O     0.24833   0.07496   0.98222   0.00000  Uiso   1.00
O717   O     0.10534   0.25293   0.92006   0.00000  Uiso   1.00
O718   O     0.10275   0.27412   0.50937   0.00000  Uiso   1.00
O719   O     0.17930   0.08019   0.78213   0.00000  Uiso   1.00
O720   O     0.14632   0.26085   0.77013   0.00000  Uiso   1.00
O721   O     0.07412   0.13291   0.73413   0.00000  Uiso   1.00
O722   O     0.26693   0.19272   0.71360   0.00000  Uiso   1.00
O723   O     0.07071   0.18878   0.78213   0.00000  Uiso   1.00
O724   O     0.25491   0.15226   0.77013   0.00000  Uiso   1.00
O725   O     0.13760   0.06944   0.73413   0.00000  Uiso   1.00
O726   O     0.20345   0.25620   0.71360   0.00000  Uiso   1.00
Zn727  Zn    0.19338   0.13994   0.78734   0.00000  Uiso   1.00
Zn728  Zn    0.13379   0.12458   0.71875   0.00000  Uiso   1.00
Zn729  Zn    0.21056   0.19775   0.70657   0.00000  Uiso   1.00
Zn730  Zn    0.12893   0.20439   0.78733   0.00000  Uiso   1.00
Br731  Br    0.56803   0.01500   0.70388   0.00000  Uiso   1.00
Br732  Br    0.42731   0.32483   0.79678   0.00000  Uiso   1.00
Br733  Br    0.53102   0.04796   0.91787   0.00000  Uiso   1.00
Br734  Br    0.45460   0.08852   0.89280   0.00000  Uiso   1.00
C735   C     0.38633   0.15995   0.75938   0.00000  Uiso   1.00
C736   C     0.50187   0.15967   0.56036   0.00000  Uiso   1.00
C737   C     0.55157   0.11007   0.55563   0.00000  Uiso   1.00
C738   C     0.61399   0.17366   0.74029   0.00000  Uiso   1.00
C739   C     0.46984   0.18975   0.92142   0.00000  Uiso   1.00
C740   C     0.65944   0.17685   0.73835   0.00000  Uiso   1.00
C741   C     0.34060   0.15560   0.76494   0.00000  Uiso   1.00
C742   C     0.51476   0.32275   0.73963   0.00000  Uiso   1.00
C743   C     0.48383   0.01228   0.76340   0.00000  Uiso   1.00
C744   C     0.48950   0.05603   0.75990   0.00000  Uiso   1.00
C745   C     0.50982   0.27790   0.74059   0.00000  Uiso   1.00
C746   C     0.45247   0.23804   0.98841   0.00000  Uiso   1.00
C747   C     0.51869   0.14777   0.62931   0.00000  Uiso   1.00
C748   C     0.48055   0.18369   0.87135   0.00000  Uiso   1.00
C749   C     0.55122   0.09853   0.50988   0.00000  Uiso   1.00
C750   C     0.52513   0.13940   0.58077   0.00000  Uiso   1.00
C751   C     0.45216   0.22617   0.94345   0.00000  Uiso   1.00
C752   C     0.55967   0.06678   0.60559   0.00000  Uiso   1.00
C753   C     0.66202   0.11877   0.82824   0.00000  Uiso   1.00
C754   C     0.57912   0.03556   0.99800   0.00000  Uiso   1.00
C755   C     0.39414   0.24329   0.92570   0.00000  Uiso   1.00
C756   C     0.47031   0.30548   0.51158   0.00000  Uiso   1.00
C757   C     0.46880   0.21335   0.51205   0.00000  Uiso   1.00
C758   C     0.48378   0.17529   0.99202   0.00000  Uiso   1.00
C759   C     0.48104   0.16198   0.94737   0.00000  Uiso   1.00
C760   C     0.50292   0.15084   0.51453   0.00000  Uiso   1.00
C761   C     0.52396   0.11668   0.99034   0.00000  Uiso   1.00
C762   C     0.51464   0.10044   0.94869   0.00000  Uiso   1.00
C763   C     0.48899   0.12096   0.93049   0.00000  Uiso   1.00
H764   H     0.48174   0.18128   0.58180   0.00000  Uiso   1.00
H765   H     0.54700   0.02467   0.51902   0.00000  Uiso   1.00
H766   H     0.60400   0.03585   0.51663   0.00000  Uiso   1.00
H767   H     0.58627   0.01238   0.96848   0.00000  Uiso   1.00
H768   H     0.37663   0.24931   0.96152   0.00000  Uiso   1.00
H769   H     0.38553   0.21050   0.91321   0.00000  Uiso   1.00
H770   H     0.38348   0.26364   0.90557   0.00000  Uiso   1.00
H771   H     0.49251   0.30945   0.97779   0.00000  Uiso   1.00
H772   H     0.48800   0.29898   0.53577   0.00000  Uiso   1.00
H773   H     0.45722   0.00208   0.52391   0.00000  Uiso   1.00
H774   H     0.47006   0.22554   0.54577   0.00000  Uiso   1.00
H775   H     0.34817   0.19754   0.71540   0.00000  Uiso   1.00
H776   H     0.52809   0.05139   0.60081   0.00000  Uiso   1.00
H777   H     0.55574   0.08229   0.64023   0.00000  Uiso   1.00
H778   H     0.58023   0.04190   0.60259   0.00000  Uiso   1.00
H779   H     0.33675   0.14836   0.84800   0.00000  Uiso   1.00
H780   H     0.35663   0.10092   0.81670   0.00000  Uiso   1.00
H781   H     0.63642   0.09968   0.85111   0.00000  Uiso   1.00
O782   O     0.50000   0.16667   0.75000   0.00000  Uiso   1.00
O783   O     0.48784   0.12637   0.65458   0.00000  Uiso   1.00
O784   O     0.46274   0.20391   0.84968   0.00000  Uiso   1.00
O785   O     0.54157   0.17759   0.64606   0.00000  Uiso   1.00
O786   O     0.50785   0.15880   0.84968   0.00000  Uiso   1.00
O787   O     0.58076   0.09555   0.57376   0.00000  Uiso   1.00
O788   O     0.64665   0.12596   0.79143   0.00000  Uiso   1.00
O789   O     0.58166   0.07496   0.98222   0.00000  Uiso   1.00
O790   O     0.43867   0.25293   0.92006   0.00000  Uiso   1.00
O791   O     0.43608   0.27412   0.50937   0.00000  Uiso   1.00
O792   O     0.51264   0.08019   0.78213   0.00000  Uiso   1.00
O793   O     0.47965   0.26085   0.77013   0.00000  Uiso   1.00
O794   O     0.40745   0.13291   0.73413   0.00000  Uiso   1.00
O795   O     0.60026   0.19272   0.71360   0.00000  Uiso   1.00
O796   O     0.40405   0.18878   0.78213   0.00000  Uiso   1.00
O797   O     0.58824   0.15226   0.77013   0.00000  Uiso   1.00
O798   O     0.47093   0.06944   0.73413   0.00000  Uiso   1.00
O799   O     0.53678   0.25620   0.71360   0.00000  Uiso   1.00
Zn800  Zn    0.52672   0.13994   0.78734   0.00000  Uiso   1.00
Zn801  Zn    0.46713   0.12458   0.71875   0.00000  Uiso   1.00
Zn802  Zn    0.54389   0.19775   0.70657   0.00000  Uiso   1.00
Zn803  Zn    0.46226   0.20439   0.78733   0.00000  Uiso   1.00
Br804  Br    0.90136   0.01500   0.70388   0.00000  Uiso   1.00
Br805  Br    0.76065   0.32483   0.79678   0.00000  Uiso   1.00
Br806  Br    0.86436   0.04796   0.91787   0.00000  Uiso   1.00
Br807  Br    0.78793   0.08852   0.89280   0.00000  Uiso   1.00
C808   C     0.71966   0.15995   0.75938   0.00000  Uiso   1.00
C809   C     0.83520   0.15967   0.56036   0.00000  Uiso   1.00
C810   C     0.88490   0.11007   0.55563   0.00000  Uiso   1.00
C811   C     0.94732   0.17366   0.74029   0.00000  Uiso   1.00
C812   C     0.80318   0.18975   0.92142   0.00000  Uiso   1.00
C813   C     0.99277   0.17685   0.73835   0.00000  Uiso   1.00
C814   C     0.67394   0.15560   0.76494   0.00000  Uiso   1.00
C815   C     0.84809   0.32275   0.73963   0.00000  Uiso   1.00
C816   C     0.81716   0.01228   0.76340   0.00000  Uiso   1.00
C817   C     0.82283   0.05603   0.75990   0.00000  Uiso   1.00
C818   C     0.84315   0.27790   0.74059   0.00000  Uiso   1.00
C819   C     0.78580   0.23804   0.98841   0.00000  Uiso   1.00
C820   C     0.85202   0.14777   0.62931   0.00000  Uiso   1.00
C821   C     0.81388   0.18369   0.87135   0.00000  Uiso   1.00
C822   C     0.88456   0.09853   0.50988   0.00000  Uiso   1.00
C823   C     0.85847   0.13940   0.58077   0.00000  Uiso   1.00
C824   C     0.78549   0.22617   0.94345   0.00000  Uiso   1.00
C825   C     0.89301   0.06678   0.60559   0.00000  Uiso   1.00
C826   C     0.99535   0.11877   0.82824   0.00000  Uiso   1.00
C827   C     0.91246   0.03556   0.99800   0.00000  Uiso   1.00
C828   C     0.72747   0.24329   0.92570   0.00000  Uiso   1.00
C829   C     0.80364   0.30548   0.51158   0.00000  Uiso   1.00
C830   C     0.80214   0.21335   0.51205   0.00000  Uiso   1.00
C831   C     0.81711   0.17529   0.99202   0.00000  Uiso   1.00
C832   C     0.81437   0.16198   0.94737   0.00000  Uiso   1.00
C833   C     0.83626   0.15084   0.51453   0.00000  Uiso   1.00
C834   C     0.85729   0.11668   0.99034   0.00000  Uiso   1.00
C835   C     0.84798   0.10044   0.94869   0.00000  Uiso   1.00
C836   C     0.82233   0.12096   0.93049   0.00000  Uiso   1.00
H837   H     0.81508   0.18128   0.58180   0.00000  Uiso   1.00
H838   H     0.88034   0.02467   0.51902   0.00000  Uiso   1.00
H839   H     0.93733   0.03585   0.51663   0.00000  Uiso   1.00
H840   H     0.91961   0.01238   0.96848   0.00000  Uiso   1.00
H841   H     0.70996   0.24931   0.96152   0.00000  Uiso   1.00
H842   H     0.71887   0.21050   0.91321   0.00000  Uiso   1.00
H843   H     0.71682   0.26364   0.90557   0.00000  Uiso   1.00
H844   H     0.82585   0.30945   0.97779   0.00000  Uiso   1.00
H845   H     0.82134   0.29898   0.53577   0.00000  Uiso   1.00
H846   H     0.79056   0.00208   0.52391   0.00000  Uiso   1.00
H847   H     0.80340   0.22554   0.54577   0.00000  Uiso   1.00
H848   H     0.68150   0.19754   0.71540   0.00000  Uiso   1.00
H849   H     0.86143   0.05139   0.60081   0.00000  Uiso   1.00
H850   H     0.88908   0.08229   0.64023   0.00000  Uiso   1.00
H851   H     0.91356   0.04190   0.60259   0.00000  Uiso   1.00
H852   H     0.67009   0.14836   0.84800   0.00000  Uiso   1.00
H853   H     0.68996   0.10092   0.81670   0.00000  Uiso   1.00
H854   H     0.96975   0.09968   0.85111   0.00000  Uiso   1.00
O855   O     0.83333   0.16667   0.75000   0.00000  Uiso   1.00
O856   O     0.82118   0.12637   0.65458   0.00000  Uiso   1.00
O857   O     0.79607   0.20391   0.84968   0.00000  Uiso   1.00
O858   O     0.87491   0.17759   0.64606   0.00000  Uiso   1.00
O859   O     0.84118   0.15880   0.84968   0.00000  Uiso   1.00
O860   O     0.91409   0.09555   0.57376   0.00000  Uiso   1.00
O861   O     0.97998   0.12596   0.79143   0.00000  Uiso   1.00
O862   O     0.91500   0.07496   0.98222   0.00000  Uiso   1.00
O863   O     0.77201   0.25293   0.92006   0.00000  Uiso   1.00
O864   O     0.76941   0.27412   0.50937   0.00000  Uiso   1.00
O865   O     0.84597   0.08019   0.78213   0.00000  Uiso   1.00
O866   O     0.81298   0.26085   0.77013   0.00000  Uiso   1.00
O867   O     0.74078   0.13291   0.73413   0.00000  Uiso   1.00
O868   O     0.93360   0.19272   0.71360   0.00000  Uiso   1.00
O869   O     0.73738   0.18878   0.78213   0.00000  Uiso   1.00
O870   O     0.92158   0.15226   0.77013   0.00000  Uiso   1.00
O871   O     0.80426   0.06944   0.73413   0.00000  Uiso   1.00
O872   O     0.87012   0.25620   0.71360   0.00000  Uiso   1.00
Zn873  Zn    0.86005   0.13994   0.78734   0.00000  Uiso   1.00
Zn874  Zn    0.80046   0.12458   0.71875   0.00000  Uiso   1.00
Zn875  Zn    0.87723   0.19775   0.70657   0.00000  Uiso   1.00
Zn876  Zn    0.79560   0.20439   0.78733   0.00000  Uiso   1.00
Br877  Br    0.23470   0.34833   0.70388   0.00000  Uiso   1.00
Br878  Br    0.09398   0.65816   0.79678   0.00000  Uiso   1.00
Br879  Br    0.19769   0.38129   0.91787   0.00000  Uiso   1.00
Br880  Br    0.12126   0.42185   0.89280   0.00000  Uiso   1.00
C881   C     0.05300   0.49329   0.75938   0.00000  Uiso   1.00
C882   C     0.16853   0.49300   0.56036   0.00000  Uiso   1.00
C883   C     0.21823   0.44341   0.55563   0.00000  Uiso   1.00
C884   C     0.28065   0.50699   0.74029   0.00000  Uiso   1.00
C885   C     0.13651   0.52309   0.92142   0.00000  Uiso   1.00
C886   C     0.32611   0.51019   0.73835   0.00000  Uiso   1.00
C887   C     0.00727   0.48893   0.76494   0.00000  Uiso   1.00
C888   C     0.18143   0.65609   0.73963   0.00000  Uiso   1.00
C889   C     0.15049   0.34561   0.76340   0.00000  Uiso   1.00
C890   C     0.15617   0.38937   0.75990   0.00000  Uiso   1.00
C891   C     0.17648   0.61124   0.74059   0.00000  Uiso   1.00
C892   C     0.11913   0.57138   0.98841   0.00000  Uiso   1.00
C893   C     0.18536   0.48110   0.62931   0.00000  Uiso   1.00
C894   C     0.14722   0.51702   0.87135   0.00000  Uiso   1.00
C895   C     0.21789   0.43187   0.50988   0.00000  Uiso   1.00
C896   C     0.19180   0.47274   0.58077   0.00000  Uiso   1.00
C897   C     0.11882   0.55950   0.94345   0.00000  Uiso   1.00
C898   C     0.22634   0.40012   0.60559   0.00000  Uiso   1.00
C899   C     0.32868   0.45210   0.82824   0.00000  Uiso   1.00
C900   C     0.24579   0.36890   0.99800   0.00000  Uiso   1.00
C901   C     0.06081   0.57662   0.92570   0.00000  Uiso   1.00
C902   C     0.13698   0.63882   0.51158   0.00000  Uiso   1.00
C903   C     0.13547   0.54669   0.51205   0.00000  Uiso   1.00
C904   C     0.15045   0.50862   0.99202   0.00000  Uiso   1.00
C905   C     0.14771   0.49531   0.94737   0.00000  Uiso   1.00
C906   C     0.16959   0.48418   0.51453   0.00000  Uiso   1.00
C907   C     0.19063   0.45001   0.99034   0.00000  Uiso   1.00
C908   C     0.18131   0.43378   0.94869   0.00000  Uiso   1.00
C909   C     0.15566   0.45429   0.93049   0.00000  Uiso   1.00
H910   H     0.14841   0.51461   0.58180   0.00000  Uiso   1.00
H911   H     0.21367   0.35800   0.51902   0.00000  Uiso   1.00
H912   H     0.27066   0.36918   0.51663   0.00000  Uiso   1.00
H913   H     0.25294   0.34571   0.96848   0.00000  Uiso   1.00
H914   H     0.04329   0.58264   0.96152   0.00000  Uiso   1.00
H915   H     0.05220   0.54383   0.91321   0.00000  Uiso   1.00
H916   H     0.05015   0.59698   0.90557   0.00000  Uiso   1.00
H917   H     0.15918   0.64278   0.97779   0.00000  Uiso   1.00
H918   H     0.15467   0.63231   0.53577   0.00000  Uiso   1.00
H919   H     0.12389   0.33542   0.52391   0.00000  Uiso   1.00
H920   H     0.13673   0.55887   0.54577   0.00000  Uiso   1.00
H921   H     0.01484   0.53088   0.71540   0.00000  Uiso   1.00
H922   H     0.19476   0.38472   0.60081   0.00000  Uiso   1.00
H923   H     0.22241   0.41563   0.64023   0.00000  Uiso   1.00
H924   H     0.24690   0.37523   0.60259   0.00000  Uiso   1.00
H925   H     0.00342   0.48169   0.84800   0.00000  Uiso   1.00
H926   H     0.02329   0.43425   0.81670   0.00000  Uiso   1.00
H927   H     0.30308   0.43302   0.85111   0.00000  Uiso   1.00
O928   O     0.16667   0.50000   0.75000   0.00000  Uiso   1.00
O929   O     0.15451   0.45970   0.65458   0.00000  Uiso   1.00
O930   O     0.12940   0.53724   0.84968   0.00000  Uiso   1.00
O931   O     0.20824   0.51092   0.64606   0.00000  Uiso   1.00
O932   O     0.17451   0.49213   0.84968   0.00000  Uiso   1.00
O933   O     0.24742   0.42888   0.57376   0.00000  Uiso   1.00
O934   O     0.31331   0.45929   0.79143   0.00000  Uiso   1.00
O935   O     0.24833   0.40830   0.98222   0.00000  Uiso   1.00
O936   O     0.10534   0.58627   0.92006   0.00000  Uiso   1.00
O937   O     0.10275   0.60746   0.50937   0.00000  Uiso   1.00
O938   O     0.17930   0.41352   0.78213   0.00000  Uiso   1.00
O939   O     0.14632   0.59418   0.77013   0.00000  Uiso   1.00
O940   O     0.07412   0.46625   0.73413   0.00000  Uiso   1.00
O941   O     0.26693   0.52605   0.71360   0.00000  Uiso   1.00
O942   O     0.07071   0.52211   0.78213   0.00000  Uiso   1.00
O943   O     0.25491   0.48559   0.77013   0.00000  Uiso   1.00
O944   O     0.13760   0.40277   0.73413   0.00000  Uiso   1.00
O945   O     0.20345   0.58953   0.71360   0.00000  Uiso   1.00
Zn946  Zn    0.19338   0.47327   0.78734   0.00000  Uiso   1.00
Zn947  Zn    0.13379   0.45791   0.71875   0.00000  Uiso   1.00
Zn948  Zn    0.21056   0.53109   0.70657   0.00000  Uiso   1.00
Zn949  Zn    0.12893   0.53773   0.78733   0.00000  Uiso   1.00
Br950  Br    0.56803   0.34833   0.70388   0.00000  Uiso   1.00
Br951  Br    0.42731   0.65816   0.79678   0.00000  Uiso   1.00
Br952  Br    0.53102   0.38129   0.91787   0.00000  Uiso   1.00
Br953  Br    0.45460   0.42185   0.89280   0.00000  Uiso   1.00
C954   C     0.38633   0.49329   0.75938   0.00000  Uiso   1.00
C955   C     0.50187   0.49300   0.56036   0.00000  Uiso   1.00
C956   C     0.55157   0.44341   0.55563   0.00000  Uiso   1.00
C957   C     0.61399   0.50699   0.74029   0.00000  Uiso   1.00
C958   C     0.46984   0.52309   0.92142   0.00000  Uiso   1.00
C959   C     0.65944   0.51019   0.73835   0.00000  Uiso   1.00
C960   C     0.34060   0.48893   0.76494   0.00000  Uiso   1.00
C961   C     0.51476   0.65609   0.73963   0.00000  Uiso   1.00
C962   C     0.48383   0.34561   0.76340   0.00000  Uiso   1.00
C963   C     0.48950   0.38937   0.75990   0.00000  Uiso   1.00
C964   C     0.50982   0.61124   0.74059   0.00000  Uiso   1.00
C965   C     0.45247   0.57138   0.98841   0.00000  Uiso   1.00
C966   C     0.51869   0.48110   0.62931   0.00000  Uiso   1.00
C967   C     0.48055   0.51702   0.87135   0.00000  Uiso   1.00
C968   C     0.55122   0.43187   0.50988   0.00000  Uiso   1.00
C969   C     0.52513   0.47274   0.58077   0.00000  Uiso   1.00
C970   C     0.45216   0.55950   0.94345   0.00000  Uiso   1.00
C971   C     0.55967   0.40012   0.60559   0.00000  Uiso   1.00
C972   C     0.66202   0.45210   0.82824   0.00000  Uiso   1.00
C973   C     0.57912   0.36890   0.99800   0.00000  Uiso   1.00
C974   C     0.39414   0.57662   0.92570   0.00000  Uiso   1.00
C975   C     0.47031   0.63882   0.51158   0.00000  Uiso   1.00
C976   C     0.46880   0.54669   0.51205   0.00000  Uiso   1.00
C977   C     0.48378   0.50862   0.99202   0.00000  Uiso   1.00
C978   C     0.48104   0.49531   0.94737   0.00000  Uiso   1.00
C979   C     0.50292   0.48418   0.51453   0.00000  Uiso   1.00
C980   C     0.52396   0.45001   0.99034   0.00000  Uiso   1.00
C981   C     0.51464   0.43378   0.94869   0.00000  Uiso   1.00
C982   C     0.48899   0.45429   0.93049   0.00000  Uiso   1.00
H983   H     0.48174   0.51461   0.58180   0.00000  Uiso   1.00
H984   H     0.54700   0.35800   0.51902   0.00000  Uiso   1.00
H985   H     0.60400   0.36918   0.51663   0.00000  Uiso   1.00
H986   H     0.58627   0.34571   0.96848   0.00000  Uiso   1.00
H987   H     0.37663   0.58264   0.96152   0.00000  Uiso   1.00
H988   H     0.38553   0.54383   0.91321   0.00000  Uiso   1.00
H989   H     0.38348   0.59698   0.90557   0.00000  Uiso   1.00
H990   H     0.49251   0.64278   0.97779   0.00000  Uiso   1.00
H991   H     0.48800   0.63231   0.53577   0.00000  Uiso   1.00
H992   H     0.45722   0.33542   0.52391   0.00000  Uiso   1.00
H993   H     0.47006   0.55887   0.54577   0.00000  Uiso   1.00
H994   H     0.34817   0.53088   0.71540   0.00000  Uiso   1.00
H995   H     0.52809   0.38472   0.60081   0.00000  Uiso   1.00
H996   H     0.55574   0.41563   0.64023   0.00000  Uiso   1.00
H997   H     0.58023   0.37523   0.60259   0.00000  Uiso   1.00
H998   H     0.33675   0.48169   0.84800   0.00000  Uiso   1.00
H999   H     0.35663   0.43425   0.81670   0.00000  Uiso   1.00
H1000  H     0.63642   0.43302   0.85111   0.00000  Uiso   1.00
O1001  O     0.50000   0.50000   0.75000   0.00000  Uiso   1.00
O1002  O     0.48784   0.45970   0.65458   0.00000  Uiso   1.00
O1003  O     0.46274   0.53724   0.84968   0.00000  Uiso   1.00
O1004  O     0.54157   0.51092   0.64606   0.00000  Uiso   1.00
O1005  O     0.50785   0.49213   0.84968   0.00000  Uiso   1.00
O1006  O     0.58076   0.42888   0.57376   0.00000  Uiso   1.00
O1007  O     0.64665   0.45929   0.79143   0.00000  Uiso   1.00
O1008  O     0.58166   0.40830   0.98222   0.00000  Uiso   1.00
O1009  O     0.43867   0.58627   0.92006   0.00000  Uiso   1.00
O1010  O     0.43608   0.60746   0.50937   0.00000  Uiso   1.00
O1011  O     0.51264   0.41352   0.78213   0.00000  Uiso   1.00
O1012  O     0.47965   0.59418   0.77013   0.00000  Uiso   1.00
O1013  O     0.40745   0.46625   0.73413   0.00000  Uiso   1.00
O1014  O     0.60026   0.52605   0.71360   0.00000  Uiso   1.00
O1015  O     0.40405   0.52211   0.78213   0.00000  Uiso   1.00
O1016  O     0.58824   0.48559   0.77013   0.00000  Uiso   1.00
O1017  O     0.47093   0.40277   0.73413   0.00000  Uiso   1.00
O1018  O     0.53678   0.58953   0.71360   0.00000  Uiso   1.00
Zn1019 Zn    0.52672   0.47327   0.78734   0.00000  Uiso   1.00
Zn1020 Zn    0.46713   0.45791   0.71875   0.00000  Uiso   1.00
Zn1021 Zn    0.54389   0.53109   0.70657   0.00000  Uiso   1.00
Zn1022 Zn    0.46226   0.53773   0.78733   0.00000  Uiso   1.00
Br1023 Br    0.90136   0.34833   0.70388   0.00000  Uiso   1.00
Br1024 Br    0.76065   0.65816   0.79678   0.00000  Uiso   1.00
Br1025 Br    0.86436   0.38129   0.91787   0.00000  Uiso   1.00
Br1026 Br    0.78793   0.42185   0.89280   0.00000  Uiso   1.00
C1027  C     0.71966   0.49329   0.75938   0.00000  Uiso   1.00
C1028  C     0.83520   0.49300   0.56036   0.00000  Uiso   1.00
C1029  C     0.88490   0.44341   0.55563   0.00000  Uiso   1.00
C1030  C     0.94732   0.50699   0.74029   0.00000  Uiso   1.00
C1031  C     0.80318   0.52309   0.92142   0.00000  Uiso   1.00
C1032  C     0.99277   0.51019   0.73835   0.00000  Uiso   1.00
C1033  C     0.67394   0.48893   0.76494   0.00000  Uiso   1.00
C1034  C     0.84809   0.65609   0.73963   0.00000  Uiso   1.00
C1035  C     0.81716   0.34561   0.76340   0.00000  Uiso   1.00
C1036  C     0.82283   0.38937   0.75990   0.00000  Uiso   1.00
C1037  C     0.84315   0.61124   0.74059   0.00000  Uiso   1.00
C1038  C     0.78580   0.57138   0.98841   0.00000  Uiso   1.00
C1039  C     0.85202   0.48110   0.62931   0.00000  Uiso   1.00
C1040  C     0.81388   0.51702   0.87135   0.00000  Uiso   1.00
C1041  C     0.88456   0.43187   0.50988   0.00000  Uiso   1.00
C1042  C     0.85847   0.47274   0.58077   0.00000  Uiso   1.00
C1043  C     0.78549   0.55950   0.94345   0.00000  Uiso   1.00
C1044  C     0.89301   0.40012   0.60559   0.00000  Uiso   1.00
C1045  C     0.99535   0.45210   0.82824   0.00000  Uiso   1.00
C1046  C     0.91246   0.36890   0.99800   0.00000  Uiso   1.00
C1047  C     0.72747   0.57662   0.92570   0.00000  Uiso   1.00
C1048  C     0.80364   0.63882   0.51158   0.00000  Uiso   1.00
C1049  C     0.80214   0.54669   0.51205   0.00000  Uiso   1.00
C1050  C     0.81711   0.50862   0.99202   0.00000  Uiso   1.00
C1051  C     0.81437   0.49531   0.94737   0.00000  Uiso   1.00
C1052  C     0.83626   0.48418   0.51453   0.00000  Uiso   1.00
C1053  C     0.85729   0.45001   0.99034   0.00000  Uiso   1.00
C1054  C     0.84798   0.43378   0.94869   0.00000  Uiso   1.00
C1055  C     0.82233   0.45429   0.93049   0.00000  Uiso   1.00
H1056  H     0.81508   0.51461   0.58180   0.00000  Uiso   1.00
H1057  H     0.88034   0.35800   0.51902   0.00000  Uiso   1.00
H1058  H     0.93733   0.36918   0.51663   0.00000  Uiso   1.00
H1059  H     0.91961   0.34571   0.96848   0.00000  Uiso   1.00
H1060  H     0.70996   0.58264   0.96152   0.00000  Uiso   1.00
H1061  H     0.71887   0.54383   0.91321   0.00000  Uiso   1.00
H1062  H     0.71682   0.59698   0.90557   0.00000  Uiso   1.00
H1063  H     0.82585   0.64278   0.97779   0.00000  Uiso   1.00
H1064  H     0.82134   0.63231   0.53577   0.00000  Uiso   1.00
H1065  H     0.79056   0.33542   0.52391   0.00000  Uiso   1.00
H1066  H     0.80340   0.55887   0.54577   0.00000  Uiso   1.00
H1067  H     0.68150   0.53088   0.71540   0.00000  Uiso   1.00
H1068  H     0.86143   0.38472   0.60081   0.00000  Uiso   1.00
H1069  H     0.88908   0.41563   0.64023   0.00000  Uiso   1.00
H1070  H     0.91356   0.37523   0.60259   0.00000  Uiso   1.00
H1071  H     0.67009   0.48169   0.84800   0.00000  Uiso   1.00
H1072  H     0.68996   0.43425   0.81670   0.00000  Uiso   1.00
H1073  H     0.96975   0.43302   0.85111   0.00000  Uiso   1.00
O1074  O     0.83333   0.50000   0.75000   0.00000  Uiso   1.00
O1075  O     0.82118   0.45970   0.65458   0.00000  Uiso   1.00
O1076  O     0.79607   0.53724   0.84968   0.00000  Uiso   1.00
O1077  O     0.87491   0.51092   0.64606   0.00000  Uiso   1.00
O1078  O     0.84118   0.49213   0.84968   0.00000  Uiso   1.00
O1079  O     0.91409   0.42888   0.57376   0.00000  Uiso   1.00
O1080  O     0.97998   0.45929   0.79143   0.00000  Uiso   1.00
O1081  O     0.91500   0.40830   0.98222   0.00000  Uiso   1.00
O1082  O     0.77201   0.58627   0.92006   0.00000  Uiso   1.00
O1083  O     0.76941   0.60746   0.50937   0.00000  Uiso   1.00
O1084  O     0.84597   0.41352   0.78213   0.00000  Uiso   1.00
O1085  O     0.81298   0.59418   0.77013   0.00000  Uiso   1.00
O1086  O     0.74078   0.46625   0.73413   0.00000  Uiso   1.00
O1087  O     0.93360   0.52605   0.71360   0.00000  Uiso   1.00
O1088  O     0.73738   0.52211   0.78213   0.00000  Uiso   1.00
O1089  O     0.92158   0.48559   0.77013   0.00000  Uiso   1.00
O1090  O     0.80426   0.40277   0.73413   0.00000  Uiso   1.00
O1091  O     0.87012   0.58953   0.71360   0.00000  Uiso   1.00
Zn1092 Zn    0.86005   0.47327   0.78734   0.00000  Uiso   1.00
Zn1093 Zn    0.80046   0.45791   0.71875   0.00000  Uiso   1.00
Zn1094 Zn    0.87723   0.53109   0.70657   0.00000  Uiso   1.00
Zn1095 Zn    0.79560   0.53773   0.78733   0.00000  Uiso   1.00
Br1096 Br    0.23470   0.68166   0.70388   0.00000  Uiso   1.00
Br1097 Br    0.09398   0.99150   0.79678   0.00000  Uiso   1.00
Br1098 Br    0.19769   0.71463   0.91787   0.00000  Uiso   1.00
Br1099 Br    0.12126   0.75518   0.89280   0.00000  Uiso   1.00
C1100  C     0.05300   0.82662   0.75938   0.00000  Uiso   1.00
C1101  C     0.16853   0.82633   0.56036   0.00000  Uiso   1.00
C1102  C     0.21823   0.77674   0.55563   0.00000  Uiso   1.00
C1103  C     0.28065   0.84033   0.74029   0.00000  Uiso   1.00
C1104  C     0.13651   0.85642   0.92142   0.00000  Uiso   1.00
C1105  C     0.32611   0.84352   0.73835   0.00000  Uiso   1.00
C1106  C     0.00727   0.82226   0.76494   0.00000  Uiso   1.00
C1107  C     0.18143   0.98942   0.73963   0.00000  Uiso   1.00
C1108  C     0.15049   0.67894   0.76340   0.00000  Uiso   1.00
C1109  C     0.15617   0.72270   0.75990   0.00000  Uiso   1.00
C1110  C     0.17648   0.94457   0.74059   0.00000  Uiso   1.00
C1111  C     0.11913   0.90471   0.98841   0.00000  Uiso   1.00
C1112  C     0.18536   0.81444   0.62931   0.00000  Uiso   1.00
C1113  C     0.14722   0.85035   0.87135   0.00000  Uiso   1.00
C1114  C     0.21789   0.76520   0.50988   0.00000  Uiso   1.00
C1115  C     0.19180   0.80607   0.58077   0.00000  Uiso   1.00
C1116  C     0.11882   0.89284   0.94345   0.00000  Uiso   1.00
C1117  C     0.22634   0.73345   0.60559   0.00000  Uiso   1.00
C1118  C     0.32868   0.78543   0.82824   0.00000  Uiso   1.00
C1119  C     0.24579   0.70223   0.99800   0.00000  Uiso   1.00
C1120  C     0.06081   0.90996   0.92570   0.00000  Uiso   1.00
C1121  C     0.13698   0.97215   0.51158   0.00000  Uiso   1.00
C1122  C     0.13547   0.88002   0.51205   0.00000  Uiso   1.00
C1123  C     0.15045   0.84196   0.99202   0.00000  Uiso   1.00
C1124  C     0.14771   0.82864   0.94737   0.00000  Uiso   1.00
C1125  C     0.16959   0.81751   0.51453   0.00000  Uiso   1.00
C1126  C     0.19063   0.78334   0.99034   0.00000  Uiso   1.00
C1127  C     0.18131   0.76711   0.94869   0.00000  Uiso   1.00
C1128  C     0.15566   0.78763   0.93049   0.00000  Uiso   1.00
H1129  H     0.14841   0.84795   0.58180   0.00000  Uiso   1.00
H1130  H     0.21367   0.69133   0.51902   0.00000  Uiso   1.00
H1131  H     0.27066   0.70252   0.51663   0.00000  Uiso   1.00
H1132  H     0.25294   0.67905   0.96848   0.00000  Uiso   1.00
H1133  H     0.04329   0.91597   0.96152   0.00000  Uiso   1.00
H1134  H     0.05220   0.87716   0.91321   0.00000  Uiso   1.00
H1135  H     0.05015   0.93031   0.90557   0.00000  Uiso   1.00
H1136  H     0.15918   0.97611   0.97779   0.00000  Uiso   1.00
H1137  H     0.15467   0.96565   0.53577   0.00000  Uiso   1.00
H1138  H     0.12389   0.66875   0.52391   0.00000  Uiso   1.00
H1139  H     0.13673   0.89220   0.54577   0.00000  Uiso   1.00
H1140  H     0.01484   0.86421   0.71540   0.00000  Uiso   1.00
H1141  H     0.19476   0.71805   0.60081   0.00000  Uiso   1.00
H1142  H     0.22241   0.74896   0.64023   0.00000  Uiso   1.00
H1143  H     0.24690   0.70857   0.60259   0.00000  Uiso   1.00
H1144  H     0.00342   0.81503   0.84800   0.00000  Uiso   1.00
H1145  H     0.02329   0.76758   0.81670   0.00000  Uiso   1.00
H1146  H     0.30308   0.76635   0.85111   0.00000  Uiso   1.00
O1147  O     0.16667   0.83333   0.75000   0.00000  Uiso   1.00
O1148  O     0.15451   0.79304   0.65458   0.00000  Uiso   1.00
O1149  O     0.12940   0.87058   0.84968   0.00000  Uiso   1.00
O1150  O     0.20824   0.84425   0.64606   0.00000  Uiso   1.00
O1151  O     0.17451   0.82546   0.84968   0.00000  Uiso   1.00
O1152  O     0.24742   0.76221   0.57376   0.00000  Uiso   1.00
O1153  O     0.31331   0.79262   0.79143   0.00000  Uiso   1.00
O1154  O     0.24833   0.74163   0.98222   0.00000  Uiso   1.00
O1155  O     0.10534   0.91960   0.92006   0.00000  Uiso   1.00
O1156  O     0.10275   0.94079   0.50937   0.00000  Uiso   1.00
O1157  O     0.17930   0.74686   0.78213   0.00000  Uiso   1.00
O1158  O     0.14632   0.92751   0.77013   0.00000  Uiso   1.00
O1159  O     0.07412   0.79958   0.73413   0.00000  Uiso   1.00
O1160  O     0.26693   0.85939   0.71360   0.00000  Uiso   1.00
O1161  O     0.07071   0.85544   0.78213   0.00000  Uiso   1.00
O1162  O     0.25491   0.81892   0.77013   0.00000  Uiso   1.00
O1163  O     0.13760   0.73610   0.73413   0.00000  Uiso   1.00
O1164  O     0.20345   0.92286   0.71360   0.00000  Uiso   1.00
Zn1165 Zn    0.19338   0.80661   0.78734   0.00000  Uiso   1.00
Zn1166 Zn    0.13379   0.79124   0.71875   0.00000  Uiso   1.00
Zn1167 Zn    0.21056   0.86442   0.70657   0.00000  Uiso   1.00
Zn1168 Zn    0.12893   0.87106   0.78733   0.00000  Uiso   1.00
Br1169 Br    0.56803   0.68166   0.70388   0.00000  Uiso   1.00
Br1170 Br    0.42731   0.99150   0.79678   0.00000  Uiso   1.00
Br1171 Br    0.53102   0.71463   0.91787   0.00000  Uiso   1.00
Br1172 Br    0.45460   0.75518   0.89280   0.00000  Uiso   1.00
C1173  C     0.38633   0.82662   0.75938   0.00000  Uiso   1.00
C1174  C     0.50187   0.82633   0.56036   0.00000  Uiso   1.00
C1175  C     0.55157   0.77674   0.55563   0.00000  Uiso   1.00
C1176  C     0.61399   0.84033   0.74029   0.00000  Uiso   1.00
C1177  C     0.46984   0.85642   0.92142   0.00000  Uiso   1.00
C1178  C     0.65944   0.84352   0.73835   0.00000  Uiso   1.00
C1179  C     0.34060   0.82226   0.76494   0.00000  Uiso   1.00
C1180  C     0.51476   0.98942   0.73963   0.00000  Uiso   1.00
C1181  C     0.48383   0.67894   0.76340   0.00000  Uiso   1.00
C1182  C     0.48950   0.72270   0.75990   0.00000  Uiso   1.00
C1183  C     0.50982   0.94457   0.74059   0.00000  Uiso   1.00
C1184  C     0.45247   0.90471   0.98841   0.00000  Uiso   1.00
C1185  C     0.51869   0.81444   0.62931   0.00000  Uiso   1.00
C1186  C     0.48055   0.85035   0.87135   0.00000  Uiso   1.00
C1187  C     0.55122   0.76520   0.50988   0.00000  Uiso   1.00
C1188  C     0.52513   0.80607   0.58077   0.00000  Uiso   1.00
C1189  C     0.45216   0.89284   0.94345   0.00000  Uiso   1.00
C1190  C     0.55967   0.73345   0.60559   0.00000  Uiso   1.00
C1191  C     0.66202   0.78543   0.82824   0.00000  Uiso   1.00
C1192  C     0.57912   0.70223   0.99800   0.00000  Uiso   1.00
C1193  C     0.39414   0.90996   0.92570   0.00000  Uiso   1.00
C1194  C     0.47031   0.97215   0.51158   0.00000  Uiso   1.00
C1195  C     0.46880   0.88002   0.51205   0.00000  Uiso   1.00
C1196  C     0.48378   0.84196   0.99202   0.00000  Uiso   1.00
C1197  C     0.48104   0.82864   0.94737   0.00000  Uiso   1.00
C1198  C     0.50292   0.81751   0.51453   0.00000  Uiso   1.00
C1199  C     0.52396   0.78334   0.99034   0.00000  Uiso   1.00
C1200  C     0.51464   0.76711   0.94869   0.00000  Uiso   1.00
C1201  C     0.48899   0.78763   0.93049   0.00000  Uiso   1.00
H1202  H     0.48174   0.84795   0.58180   0.00000  Uiso   1.00
H1203  H     0.54700   0.69133   0.51902   0.00000  Uiso   1.00
H1204  H     0.60400   0.70252   0.51663   0.00000  Uiso   1.00
H1205  H     0.58627   0.67905   0.96848   0.00000  Uiso   1.00
H1206  H     0.37663   0.91597   0.96152   0.00000  Uiso   1.00
H1207  H     0.38553   0.87716   0.91321   0.00000  Uiso   1.00
H1208  H     0.38348   0.93031   0.90557   0.00000  Uiso   1.00
H1209  H     0.49251   0.97611   0.97779   0.00000  Uiso   1.00
H1210  H     0.48800   0.96565   0.53577   0.00000  Uiso   1.00
H1211  H     0.45722   0.66875   0.52391   0.00000  Uiso   1.00
H1212  H     0.47006   0.89220   0.54577   0.00000  Uiso   1.00
H1213  H     0.34817   0.86421   0.71540   0.00000  Uiso   1.00
H1214  H     0.52809   0.71805   0.60081   0.00000  Uiso   1.00
H1215  H     0.55574   0.74896   0.64023   0.00000  Uiso   1.00
H1216  H     0.58023   0.70857   0.60259   0.00000  Uiso   1.00
H1217  H     0.33675   0.81503   0.84800   0.00000  Uiso   1.00
H1218  H     0.35663   0.76758   0.81670   0.00000  Uiso   1.00
H1219  H     0.63642   0.76635   0.85111   0.00000  Uiso   1.00
O1220  O     0.50000   0.83333   0.75000   0.00000  Uiso   1.00
O1221  O     0.48784   0.79304   0.65458   0.00000  Uiso   1.00
O1222  O     0.46274   0.87058   0.84968   0.00000  Uiso   1.00
O1223  O     0.54157   0.84425   0.64606   0.00000  Uiso   1.00
O1224  O     0.50785   0.82546   0.84968   0.00000  Uiso   1.00
O1225  O     0.58076   0.76221   0.57376   0.00000  Uiso   1.00
O1226  O     0.64665   0.79262   0.79143   0.00000  Uiso   1.00
O1227  O     0.58166   0.74163   0.98222   0.00000  Uiso   1.00
O1228  O     0.43867   0.91960   0.92006   0.00000  Uiso   1.00
O1229  O     0.43608   0.94079   0.50937   0.00000  Uiso   1.00
O1230  O     0.51264   0.74686   0.78213   0.00000  Uiso   1.00
O1231  O     0.47965   0.92751   0.77013   0.00000  Uiso   1.00
O1232  O     0.40745   0.79958   0.73413   0.00000  Uiso   1.00
O1233  O     0.60026   0.85939   0.71360   0.00000  Uiso   1.00
O1234  O     0.40405   0.85544   0.78213   0.00000  Uiso   1.00
O1235  O     0.58824   0.81892   0.77013   0.00000  Uiso   1.00
O1236  O     0.47093   0.73610   0.73413   0.00000  Uiso   1.00
O1237  O     0.53678   0.92286   0.71360   0.00000  Uiso   1.00
Zn1238 Zn    0.52672   0.80661   0.78734   0.00000  Uiso   1.00
Zn1239 Zn    0.46713   0.79124   0.71875   0.00000  Uiso   1.00
Zn1240 Zn    0.54389   0.86442   0.70657   0.00000  Uiso   1.00
Zn1241 Zn    0.46226   0.87106   0.78733   0.00000  Uiso   1.00
Br1242 Br    0.90136   0.68166   0.70388   0.00000  Uiso   1.00
Br1243 Br    0.76065   0.99150   0.79678   0.00000  Uiso   1.00
Br1244 Br    0.86436   0.71463   0.91787   0.00000  Uiso   1.00
Br1245 Br    0.78793   0.75518   0.89280   0.00000  Uiso   1.00
C1246  C     0.71966   0.82662   0.75938   0.00000  Uiso   1.00
C1247  C     0.83520   0.82633   0.56036   0.00000  Uiso   1.00
C1248  C     0.88490   0.77674   0.55563   0.00000  Uiso   1.00
C1249  C     0.94732   0.84033   0.74029   0.00000  Uiso   1.00
C1250  C     0.80318   0.85642   0.92142   0.00000  Uiso   1.00
C1251  C     0.99277   0.84352   0.73835   0.00000  Uiso   1.00
C1252  C     0.67394   0.82226   0.76494   0.00000  Uiso   1.00
C1253  C     0.84809   0.98942   0.73963   0.00000  Uiso   1.00
C1254  C     0.81716   0.67894   0.76340   0.00000  Uiso   1.00
C1255  C     0.82283   0.72270   0.75990   0.00000  Uiso   1.00
C1256  C     0.84315   0.94457   0.74059   0.00000  Uiso   1.00
C1257  C     0.78580   0.90471   0.98841   0.00000  Uiso   1.00
C1258  C     0.85202   0.81444   0.62931   0.00000  Uiso   1.00
C1259  C     0.81388   0.85035   0.87135   0.00000  Uiso   1.00
C1260  C     0.88456   0.76520   0.50988   0.00000  Uiso   1.00
C1261  C     0.85847   0.80607   0.58077   0.00000  Uiso   1.00
C1262  C     0.78549   0.89284   0.94345   0.00000  Uiso   1.00
C1263  C     0.89301   0.73345   0.60559   0.00000  Uiso   1.00
C1264  C     0.99535   0.78543   0.82824   0.00000  Uiso   1.00
C1265  C     0.91246   0.70223   0.99800   0.00000  Uiso   1.00
C1266  C     0.72747   0.90996   0.92570   0.00000  Uiso   1.00
C1267  C     0.80364   0.97215   0.51158   0.00000  Uiso   1.00
C1268  C     0.80214   0.88002   0.51205   0.00000  Uiso   1.00
C1269  C     0.81711   0.84196   0.99202   0.00000  Uiso   1.00
C1270  C     0.81437   0.82864   0.94737   0.00000  Uiso   1.00
C1271  C     0.83626   0.81751   0.51453   0.00000  Uiso   1.00
C1272  C     0.85729   0.78334   0.99034   0.00000  Uiso   1.00
C1273  C     0.84798   0.76711   0.94869   0.00000  Uiso   1.00
C1274  C     0.82233   0.78763   0.93049   0.00000  Uiso   1.00
H1275  H     0.81508   0.84795   0.58180   0.00000  Uiso   1.00
H1276  H     0.88034   0.69133   0.51902   0.00000  Uiso   1.00
H1277  H     0.93733   0.70252   0.51663   0.00000  Uiso   1.00
H1278  H     0.91961   0.67905   0.96848   0.00000  Uiso   1.00
H1279  H     0.70996   0.91597   0.96152   0.00000  Uiso   1.00
H1280  H     0.71887   0.87716   0.91321   0.00000  Uiso   1.00
H1281  H     0.71682   0.93031   0.90557   0.00000  Uiso   1.00
H1282  H     0.82585   0.97611   0.97779   0.00000  Uiso   1.00
H1283  H     0.82134   0.96565   0.53577   0.00000  Uiso   1.00
H1284  H     0.79056   0.66875   0.52391   0.00000  Uiso   1.00
H1285  H     0.80340   0.89220   0.54577   0.00000  Uiso   1.00
H1286  H     0.68150   0.86421   0.71540   0.00000  Uiso   1.00
H1287  H     0.86143   0.71805   0.60081   0.00000  Uiso   1.00
H1288  H     0.88908   0.74896   0.64023   0.00000  Uiso   1.00
H1289  H     0.91356   0.70857   0.60259   0.00000  Uiso   1.00
H1290  H     0.67009   0.81503   0.84800   0.00000  Uiso   1.00
H1291  H     0.68996   0.76758   0.81670   0.00000  Uiso   1.00
H1292  H     0.96975   0.76635   0.85111   0.00000  Uiso   1.00
O1293  O     0.83333   0.83333   0.75000   0.00000  Uiso   1.00
O1294  O     0.82118   0.79304   0.65458   0.00000  Uiso   1.00
O1295  O     0.79607   0.87058   0.84968   0.00000  Uiso   1.00
O1296  O     0.87491   0.84425   0.64606   0.00000  Uiso   1.00
O1297  O     0.84118   0.82546   0.84968   0.00000  Uiso   1.00
O1298  O     0.91409   0.76221   0.57376   0.00000  Uiso   1.00
O1299  O     0.97998   0.79262   0.79143   0.00000  Uiso   1.00
O1300  O     0.91500   0.74163   0.98222   0.00000  Uiso   1.00
O1301  O     0.77201   0.91960   0.92006   0.00000  Uiso   1.00
O1302  O     0.76941   0.94079   0.50937   0.00000  Uiso   1.00
O1303  O     0.84597   0.74686   0.78213   0.00000  Uiso   1.00
O1304  O     0.81298   0.92751   0.77013   0.00000  Uiso   1.00
O1305  O     0.74078   0.79958   0.73413   0.00000  Uiso   1.00
O1306  O     0.93360   0.85939   0.71360   0.00000  Uiso   1.00
O1307  O     0.73738   0.85544   0.78213   0.00000  Uiso   1.00
O1308  O     0.92158   0.81892   0.77013   0.00000  Uiso   1.00
O1309  O     0.80426   0.73610   0.73413   0.00000  Uiso   1.00
O1310  O     0.87012   0.92286   0.71360   0.00000  Uiso   1.00
Zn1311 Zn    0.86005   0.80661   0.78734   0.00000  Uiso   1.00
Zn1312 Zn    0.80046   0.79124   0.71875   0.00000  Uiso   1.00
Zn1313 Zn    0.87723   0.86442   0.70657   0.00000  Uiso   1.00
Zn1314 Zn    0.79560   0.87106   0.78733   0.00000  Uiso   1.00
loop_
_geom_bond_atom_site_label_1
_geom_bond_atom_site_label_2
_geom_bond_distance
_geom_bond_site_symmetry_2
_ccdc_geom_bond_type
Br1    C450    1.933   1_545 S
Br2    C232    1.933   .     S
Br3    C32     1.933   .     S
Br4    C33     1.940   .     S
C5     C11     1.445   .     S
C5     O64     1.263   .     A
C5     O66     1.266   .     A
C6     C20     1.383   .     A
C6     C30     1.401   .     A
C6     H34     1.079   .     S
C7     O57     1.387   .     S
C7     C19     1.418   .     A
C7     C20     1.406   .     A
C8     O65     1.291   .     A
C8     O67     1.274   .     A
C8     C10     1.458   .     S
C9     C29     1.423   .     A
C9     C21     1.418   .     A
C9     C18     1.488   .     S
C10    C84     1.348   .     S
C10    H118    1.088   .     S
C11    C156    1.348   1_455 S
C11    O204    1.399   1_455 S
C12    C15     1.453   .     S
C12    Br220   1.933   .     S
C12    C232    1.348   .     S
C13    C14     1.427   .     S
C13    Br440   1.933   1_545 S
C13    C450    1.348   1_545 S
C14    O68     1.268   .     A
C14    O62     1.275   .     A
C15    O69     1.276   .     A
C15    O63     1.267   .     A
C16    C21     1.396   .     A
C16    C684    1.393   .     S
C16    O718    1.383   .     S
C17    O55     1.279   .     A
C17    C20     1.454   .     S
C17    O53     1.275   .     A
C18    O56     1.293   .     A
C18    O54     1.283   .     A
C19    C688    1.425   1_554 S
C19    O716    1.390   1_554 S
C21    O60     1.383   .     S
C22    H48     1.109   .     S
C22    H47     1.109   .     S
C22    O57     1.415   .     S
C22    H46     1.116   .     S
C23    O58     1.412   .     S
C23    H51     1.110   .     S
C23    H122    1.113   .     S
C23    H123    1.112   .     S
C24    O59     1.414   .     S
C24    H37     1.109   .     S
C24    H692    1.113   .     S
C24    H693    1.109   .     S
C25    O60     1.411   .     S
C25    H38     1.113   .     S
C25    H39     1.114   .     S
C25    H40     1.109   .     S
C26    O61     1.410   .     S
C26    H42     1.112   .     S
C26    H698    1.114   1_554 S
C26    H262    1.109   .     S
C27    H44     1.076   .     S
C27    C673    1.393   1_554 S
C27    C685    1.415   1_554 S
C28    C29     1.415   .     A
C28    C684    1.415   .     S
C28    C687    1.421   .     S
C29    C33     1.412   .     A
C30    C685    1.421   1_554 S
C30    C688    1.425   1_554 S
C31    C32     1.419   .     A
C31    C687    1.425   .     S
C31    C676    1.425   .     S
C32    C33     1.403   .     A
H35    C681    1.113   1_554 S
H36    C681    1.109   1_554 S
H41    C683    1.114   .     S
H43    C464    1.109   1_545 S
H45    C156    1.088   1_455 S
H49    C169    1.113   1_455 S
H50    C169    1.112   1_455 S
O52    Zn72    1.944   .     S
O52    Zn71    1.937   .     S
O52    Zn70    1.961   .     S
O52    Zn73    1.930   .     S
O53    Zn71    1.923   .     S
O54    Zn73    1.930   .     S
O55    Zn72    1.919   .     S
O56    Zn70    1.914   .     S
O58    C84     1.399   .     S
O59    C676    1.390   .     S
O61    C673    1.383   1_554 S
O62    Zn70    1.934   .     S
O63    Zn73    1.943   .     S
O64    Zn71    1.934   .     S
O65    Zn72    1.941   .     S
O66    Zn73    1.937   .     S
O67    Zn70    1.933   .     S
O68    Zn71    1.947   .     S
O69    Zn72    1.936   .     S
Br74   C523    1.933   1_545 S
Br75   C305    1.933   .     S
Br76   C105    1.933   .     S
Br77   C106    1.940   .     S
C78    C84     1.445   .     S
C78    O137    1.263   .     A
C78    O139    1.266   .     A
C79    C93     1.383   .     A
C79    C103    1.401   .     A
C79    H107    1.079   .     S
C80    O130    1.387   .     S
C80    C92     1.418   .     A
C80    C93     1.406   .     A
C81    O138    1.291   .     A
C81    O140    1.274   .     A
C81    C83     1.458   .     S
C82    C102    1.423   .     A
C82    C94     1.418   .     A
C82    C91     1.488   .     S
C83    C157    1.348   .     S
C83    H191    1.088   .     S
C85    C88     1.453   .     S
C85    Br293   1.933   .     S
C85    C305    1.348   .     S
C86    C87     1.427   .     S
C86    Br513   1.933   1_545 S
C86    C523    1.348   1_545 S
C87    O141    1.268   .     A
C87    O135    1.275   .     A
C88    O142    1.276   .     A
C88    O136    1.267   .     A
C89    C94     1.396   .     A
C89    C757    1.393   .     S
C89    O791    1.383   .     S
C90    O128    1.279   .     A
C90    C93     1.454   .     S
C90    O126    1.275   .     A
C91    O129    1.293   .     A
C91    O127    1.283   .     A
C92    C761    1.425   1_554 S
C92    O789    1.390   1_554 S
C94    O133    1.383   .     S
C95    H121    1.109   .     S
C95    H120    1.109   .     S
C95    O130    1.415   .     S
C95    H119    1.116   .     S
C96    O131    1.412   .     S
C96    H124    1.110   .     S
C96    H195    1.113   .     S
C96    H196    1.112   .     S
C97    O132    1.414   .     S
C97    H110    1.109   .     S
C97    H765    1.113   .     S
C97    H766    1.109   .     S
C98    O133    1.411   .     S
C98    H111    1.113   .     S
C98    H112    1.114   .     S
C98    H113    1.109   .     S
C99    O134    1.410   .     S
C99    H115    1.112   .     S
C99    H771    1.114   1_554 S
C99    H335    1.109   .     S
C100   H117    1.076   .     S
C100   C746    1.393   1_554 S
C100   C758    1.415   1_554 S
C101   C102    1.415   .     A
C101   C757    1.415   .     S
C101   C760    1.421   .     S
C102   C106    1.412   .     A
C103   C758    1.421   1_554 S
C103   C761    1.425   1_554 S
C104   C105    1.419   .     A
C104   C760    1.425   .     S
C104   C749    1.425   .     S
C105   C106    1.403   .     A
H108   C754    1.113   1_554 S
H109   C754    1.109   1_554 S
H114   C756    1.114   .     S
H116   C537    1.109   1_545 S
O125   Zn145   1.944   .     S
O125   Zn144   1.937   .     S
O125   Zn143   1.961   .     S
O125   Zn146   1.930   .     S
O126   Zn144   1.923   .     S
O127   Zn146   1.930   .     S
O128   Zn145   1.919   .     S
O129   Zn143   1.914   .     S
O131   C157    1.399   .     S
O132   C749    1.390   .     S
O134   C746    1.383   1_554 S
O135   Zn143   1.934   .     S
O136   Zn146   1.943   .     S
O137   Zn144   1.934   .     S
O138   Zn145   1.941   .     S
O139   Zn146   1.937   .     S
O140   Zn143   1.933   .     S
O141   Zn144   1.947   .     S
O142   Zn145   1.936   .     S
Br147  C596    1.933   1_545 S
Br148  C378    1.933   .     S
Br149  C178    1.933   .     S
Br150  C179    1.940   .     S
C151   C157    1.445   .     S
C151   O210    1.263   .     A
C151   O212    1.266   .     A
C152   C166    1.383   .     A
C152   C176    1.401   .     A
C152   H180    1.079   .     S
C153   O203    1.387   .     S
C153   C165    1.418   .     A
C153   C166    1.406   .     A
C154   O211    1.291   .     A
C154   O213    1.274   .     A
C154   C156    1.458   .     S
C155   C175    1.423   .     A
C155   C167    1.418   .     A
C155   C164    1.488   .     S
C156   C11     1.348   1_655 S
C156   H45     1.088   1_655 S
C158   C161    1.453   .     S
C158   Br366   1.933   .     S
C158   C378    1.348   .     S
C159   C160    1.427   .     S
C159   Br586   1.933   1_545 S
C159   C596    1.348   1_545 S
C160   O214    1.268   .     A
C160   O208    1.275   .     A
C161   O215    1.276   .     A
C161   O209    1.267   .     A
C162   C167    1.396   .     A
C162   C830    1.393   .     S
C162   O864    1.383   .     S
C163   O201    1.279   .     A
C163   C166    1.454   .     S
C163   O199    1.275   .     A
C164   O202    1.293   .     A
C164   O200    1.283   .     A
C165   C834    1.425   1_554 S
C165   O862    1.390   1_554 S
C167   O206    1.383   .     S
C168   H194    1.109   .     S
C168   H193    1.109   .     S
C168   O203    1.415   .     S
C168   H192    1.116   .     S
C169   O204    1.412   .     S
C169   H197    1.110   .     S
C169   H49     1.113   1_655 S
C169   H50     1.112   1_655 S
C170   O205    1.414   .     S
C170   H183    1.109   .     S
C170   H838    1.113   .     S
C170   H839    1.109   .     S
C171   O206    1.411   .     S
C171   H184    1.113   .     S
C171   H185    1.114   .     S
C171   H186    1.109   .     S
C172   O207    1.410   .     S
C172   H188    1.112   .     S
C172   H844    1.114   1_554 S
C172   H408    1.109   .     S
C173   H190    1.076   .     S
C173   C819    1.393   1_554 S
C173   C831    1.415   1_554 S
C174   C175    1.415   .     A
C174   C830    1.415   .     S
C174   C833    1.421   .     S
C175   C179    1.412   .     A
C176   C831    1.421   1_554 S
C176   C834    1.425   1_554 S
C177   C178    1.419   .     A
C177   C833    1.425   .     S
C177   C822    1.425   .     S
C178   C179    1.403   .     A
H181   C827    1.113   1_554 S
H182   C827    1.109   1_554 S
H187   C829    1.114   .     S
H189   C610    1.109   1_545 S
O198   Zn218   1.944   .     S
O198   Zn217   1.937   .     S
O198   Zn216   1.961   .     S
O198   Zn219   1.930   .     S
O199   Zn217   1.923   .     S
O200   Zn219   1.930   .     S
O201   Zn218   1.919   .     S
O202   Zn216   1.914   .     S
O204   C11     1.399   1_655 S
O205   C822    1.390   .     S
O207   C819    1.383   1_554 S
O208   Zn216   1.934   .     S
O209   Zn219   1.943   .     S
O210   Zn217   1.934   .     S
O211   Zn218   1.941   .     S
O212   Zn219   1.937   .     S
O213   Zn216   1.933   .     S
O214   Zn217   1.947   .     S
O215   Zn218   1.936   .     S
Br221  C451    1.933   .     S
Br222  C251    1.933   .     S
Br223  C252    1.940   .     S
C224   C230    1.445   .     S
C224   O283    1.263   .     A
C224   O285    1.266   .     A
C225   C239    1.383   .     A
C225   C249    1.401   .     A
C225   H253    1.079   .     S
C226   O276    1.387   .     S
C226   C238    1.418   .     A
C226   C239    1.406   .     A
C227   O284    1.291   .     A
C227   O286    1.274   .     A
C227   C229    1.458   .     S
C228   C248    1.423   .     A
C228   C240    1.418   .     A
C228   C237    1.488   .     S
C229   C303    1.348   .     S
C229   H337    1.088   .     S
C230   C375    1.348   1_455 S
C230   O423    1.399   1_455 S
C231   C234    1.453   .     S
C231   Br439   1.933   .     S
C231   C451    1.348   .     S
C232   C233    1.427   .     S
C233   O287    1.268   .     A
C233   O281    1.275   .     A
C234   O288    1.276   .     A
C234   O282    1.267   .     A
C235   C240    1.396   .     A
C235   C903    1.393   .     S
C235   O937    1.383   .     S
C236   O274    1.279   .     A
C236   C239    1.454   .     S
C236   O272    1.275   .     A
C237   O275    1.293   .     A
C237   O273    1.283   .     A
C238   C907    1.425   1_554 S
C238   O935    1.390   1_554 S
C240   O279    1.383   .     S
C241   H267    1.109   .     S
C241   H266    1.109   .     S
C241   O276    1.415   .     S
C241   H265    1.116   .     S
C242   O277    1.412   .     S
C242   H270    1.110   .     S
C242   H341    1.113   .     S
C242   H342    1.112   .     S
C243   O278    1.414   .     S
C243   H256    1.109   .     S
C243   H911    1.113   .     S
C243   H912    1.109   .     S
C244   O279    1.411   .     S
C244   H257    1.113   .     S
C244   H258    1.114   .     S
C244   H259    1.109   .     S
C245   O280    1.410   .     S
C245   H261    1.112   .     S
C245   H917    1.114   1_554 S
C245   H481    1.109   .     S
C246   H263    1.076   .     S
C246   C892    1.393   1_554 S
C246   C904    1.415   1_554 S
C247   C248    1.415   .     A
C247   C903    1.415   .     S
C247   C906    1.421   .     S
C248   C252    1.412   .     A
C249   C904    1.421   1_554 S
C249   C907    1.425   1_554 S
C250   C251    1.419   .     A
C250   C906    1.425   .     S
C250   C895    1.425   .     S
C251   C252    1.403   .     A
H254   C900    1.113   1_554 S
H255   C900    1.109   1_554 S
H260   C902    1.114   .     S
H264   C375    1.088   1_455 S
H268   C388    1.113   1_455 S
H269   C388    1.112   1_455 S
O271   Zn291   1.944   .     S
O271   Zn290   1.937   .     S
O271   Zn289   1.961   .     S
O271   Zn292   1.930   .     S
O272   Zn290   1.923   .     S
O273   Zn292   1.930   .     S
O274   Zn291   1.919   .     S
O275   Zn289   1.914   .     S
O277   C303    1.399   .     S
O278   C895    1.390   .     S
O280   C892    1.383   1_554 S
O281   Zn289   1.934   .     S
O282   Zn292   1.943   .     S
O283   Zn290   1.934   .     S
O284   Zn291   1.941   .     S
O285   Zn292   1.937   .     S
O286   Zn289   1.933   .     S
O287   Zn290   1.947   .     S
O288   Zn291   1.936   .     S
Br294  C524    1.933   .     S
Br295  C324    1.933   .     S
Br296  C325    1.940   .     S
C297   C303    1.445   .     S
C297   O356    1.263   .     A
C297   O358    1.266   .     A
C298   C312    1.383   .     A
C298   C322    1.401   .     A
C298   H326    1.079   .     S
C299   O349    1.387   .     S
C299   C311    1.418   .     A
C299   C312    1.406   .     A
C300   O357    1.291   .     A
C300   O359    1.274   .     A
C300   C302    1.458   .     S
C301   C321    1.423   .     A
C301   C313    1.418   .     A
C301   C310    1.488   .     S
C302   C376    1.348   .     S
C302   H410    1.088   .     S
C304   C307    1.453   .     S
C304   Br512   1.933   .     S
C304   C524    1.348   .     S
C305   C306    1.427   .     S
C306   O360    1.268   .     A
C306   O354    1.275   .     A
C307   O361    1.276   .     A
C307   O355    1.267   .     A
C308   C313    1.396   .     A
C308   C976    1.393   .     S
C308   O1010   1.383   .     S
C309   O347    1.279   .     A
C309   C312    1.454   .     S
C309   O345    1.275   .     A
C310   O348    1.293   .     A
C310   O346    1.283   .     A
C311   C980    1.425   1_554 S
C311   O1008   1.390   1_554 S
C313   O352    1.383   .     S
C314   H340    1.109   .     S
C314   H339    1.109   .     S
C314   O349    1.415   .     S
C314   H338    1.116   .     S
C315   O350    1.412   .     S
C315   H343    1.110   .     S
C315   H414    1.113   .     S
C315   H415    1.112   .     S
C316   O351    1.414   .     S
C316   H329    1.109   .     S
C316   H984    1.113   .     S
C316   H985    1.109   .     S
C317   O352    1.411   .     S
C317   H330    1.113   .     S
C317   H331    1.114   .     S
C317   H332    1.109   .     S
C318   O353    1.410   .     S
C318   H334    1.112   .     S
C318   H990    1.114   1_554 S
C318   H554    1.109   .     S
C319   H336    1.076   .     S
C319   C965    1.393   1_554 S
C319   C977    1.415   1_554 S
C320   C321    1.415   .     A
C320   C976    1.415   .     S
C320   C979    1.421   .     S
C321   C325    1.412   .     A
C322   C977    1.421   1_554 S
C322   C980    1.425   1_554 S
C323   C324    1.419   .     A
C323   C979    1.425   .     S
C323   C968    1.425   .     S
C324   C325    1.403   .     A
H327   C973    1.113   1_554 S
H328   C973    1.109   1_554 S
H333   C975    1.114   .     S
O344   Zn364   1.944   .     S
O344   Zn363   1.937   .     S
O344   Zn362   1.961   .     S
O344   Zn365   1.930   .     S
O345   Zn363   1.923   .     S
O346   Zn365   1.930   .     S
O347   Zn364   1.919   .     S
O348   Zn362   1.914   .     S
O350   C376    1.399   .     S
O351   C968    1.390   .     S
O353   C965    1.383   1_554 S
O354   Zn362   1.934   .     S
O355   Zn365   1.943   .     S
O356   Zn363   1.934   .     S
O357   Zn364   1.941   .     S
O358   Zn365   1.937   .     S
O359   Zn362   1.933   .     S
O360   Zn363   1.947   .     S
O361   Zn364   1.936   .     S
Br367  C597    1.933   .     S
Br368  C397    1.933   .     S
Br369  C398    1.940   .     S
C370   C376    1.445   .     S
C370   O429    1.263   .     A
C370   O431    1.266   .     A
C371   C385    1.383   .     A
C371   C395    1.401   .     A
C371   H399    1.079   .     S
C372   O422    1.387   .     S
C372   C384    1.418   .     A
C372   C385    1.406   .     A
C373   O430    1.291   .     A
C373   O432    1.274   .     A
C373   C375    1.458   .     S
C374   C394    1.423   .     A
C374   C386    1.418   .     A
C374   C383    1.488   .     S
C375   C230    1.348   1_655 S
C375   H264    1.088   1_655 S
C377   C380    1.453   .     S
C377   Br585   1.933   .     S
C377   C597    1.348   .     S
C378   C379    1.427   .     S
C379   O433    1.268   .     A
C379   O427    1.275   .     A
C380   O434    1.276   .     A
C380   O428    1.267   .     A
C381   C386    1.396   .     A
C381   C1049   1.393   .     S
C381   O1083   1.383   .     S
C382   O420    1.279   .     A
C382   C385    1.454   .     S
C382   O418    1.275   .     A
C383   O421    1.293   .     A
C383   O419    1.283   .     A
C384   C1053   1.425   1_554 S
C384   O1081   1.390   1_554 S
C386   O425    1.383   .     S
C387   H413    1.109   .     S
C387   H412    1.109   .     S
C387   O422    1.415   .     S
C387   H411    1.116   .     S
C388   O423    1.412   .     S
C388   H416    1.110   .     S
C388   H268    1.113   1_655 S
C388   H269    1.112   1_655 S
C389   O424    1.414   .     S
C389   H402    1.109   .     S
C389   H1057   1.113   .     S
C389   H1058   1.109   .     S
C390   O425    1.411   .     S
C390   H403    1.113   .     S
C390   H404    1.114   .     S
C390   H405    1.109   .     S
C391   O426    1.410   .     S
C391   H407    1.112   .     S
C391   H1063   1.114   1_554 S
C391   H627    1.109   .     S
C392   H409    1.076   .     S
C392   C1038   1.393   1_554 S
C392   C1050   1.415   1_554 S
C393   C394    1.415   .     A
C393   C1049   1.415   .     S
C393   C1052   1.421   .     S
C394   C398    1.412   .     A
C395   C1050   1.421   1_554 S
C395   C1053   1.425   1_554 S
C396   C397    1.419   .     A
C396   C1052   1.425   .     S
C396   C1041   1.425   .     S
C397   C398    1.403   .     A
H400   C1046   1.113   1_554 S
H401   C1046   1.109   1_554 S
H406   C1048   1.114   .     S
O417   Zn437   1.944   .     S
O417   Zn436   1.937   .     S
O417   Zn435   1.961   .     S
O417   Zn438   1.930   .     S
O418   Zn436   1.923   .     S
O419   Zn438   1.930   .     S
O420   Zn437   1.919   .     S
O421   Zn435   1.914   .     S
O423   C230    1.399   1_655 S
O424   C1041   1.390   .     S
O426   C1038   1.383   1_554 S
O427   Zn435   1.934   .     S
O428   Zn438   1.943   .     S
O429   Zn436   1.934   .     S
O430   Zn437   1.941   .     S
O431   Zn438   1.937   .     S
O432   Zn435   1.933   .     S
O433   Zn436   1.947   .     S
O434   Zn437   1.936   .     S
Br440  C13     1.933   1_565 S
Br441  C470    1.933   .     S
Br442  C471    1.940   .     S
C443   C449    1.445   .     S
C443   O502    1.263   .     A
C443   O504    1.266   .     A
C444   C458    1.383   .     A
C444   C468    1.401   .     A
C444   H472    1.079   .     S
C445   O495    1.387   .     S
C445   C457    1.418   .     A
C445   C458    1.406   .     A
C446   O503    1.291   .     A
C446   O505    1.274   .     A
C446   C448    1.458   .     S
C447   C467    1.423   .     A
C447   C459    1.418   .     A
C447   C456    1.488   .     S
C448   C522    1.348   .     S
C448   H556    1.088   .     S
C449   C594    1.348   1_455 S
C449   O642    1.399   1_455 S
C450   C453    1.453   .     S
C450   Br1     1.933   1_565 S
C450   C13     1.348   1_565 S
C451   C452    1.427   .     S
C452   O506    1.268   .     A
C452   O500    1.275   .     A
C453   O507    1.276   .     A
C453   O501    1.267   .     A
C454   C459    1.396   .     A
C454   C1122   1.393   .     S
C454   O1156   1.383   .     S
C455   O493    1.279   .     A
C455   C458    1.454   .     S
C455   O491    1.275   .     A
C456   O494    1.293   .     A
C456   O492    1.283   .     A
C457   C1126   1.425   1_554 S
C457   O1154   1.390   1_554 S
C459   O498    1.383   .     S
C460   H486    1.109   .     S
C460   H485    1.109   .     S
C460   O495    1.415   .     S
C460   H484    1.116   .     S
C461   O496    1.412   .     S
C461   H489    1.110   .     S
C461   H560    1.113   .     S
C461   H561    1.112   .     S
C462   O497    1.414   .     S
C462   H475    1.109   .     S
C462   H1130   1.113   .     S
C462   H1131   1.109   .     S
C463   O498    1.411   .     S
C463   H476    1.113   .     S
C463   H477    1.114   .     S
C463   H478    1.109   .     S
C464   O499    1.410   .     S
C464   H480    1.112   .     S
C464   H1136   1.114   1_554 S
C464   H43     1.109   1_565 S
C465   H482    1.076   .     S
C465   C1111   1.393   1_554 S
C465   C1123   1.415   1_554 S
C466   C467    1.415   .     A
C466   C1122   1.415   .     S
C466   C1125   1.421   .     S
C467   C471    1.412   .     A
C468   C1123   1.421   1_554 S
C468   C1126   1.425   1_554 S
C469   C470    1.419   .     A
C469   C1125   1.425   .     S
C469   C1114   1.425   .     S
C470   C471    1.403   .     A
H473   C1119   1.113   1_554 S
H474   C1119   1.109   1_554 S
H479   C1121   1.114   .     S
H483   C594    1.088   1_455 S
H487   C607    1.113   1_455 S
H488   C607    1.112   1_455 S
O490   Zn510   1.944   .     S
O490   Zn509   1.937   .     S
O490   Zn508   1.961   .     S
O490   Zn511   1.930   .     S
O491   Zn509   1.923   .     S
O492   Zn511   1.930   .     S
O493   Zn510   1.919   .     S
O494   Zn508   1.914   .     S
O496   C522    1.399   .     S
O497   C1114   1.390   .     S
O499   C1111   1.383   1_554 S
O500   Zn508   1.934   .     S
O501   Zn511   1.943   .     S
O502   Zn509   1.934   .     S
O503   Zn510   1.941   .     S
O504   Zn511   1.937   .     S
O505   Zn508   1.933   .     S
O506   Zn509   1.947   .     S
O507   Zn510   1.936   .     S
Br513  C86     1.933   1_565 S
Br514  C543    1.933   .     S
Br515  C544    1.940   .     S
C516   C522    1.445   .     S
C516   O575    1.263   .     A
C516   O577    1.266   .     A
C517   C531    1.383   .     A
C517   C541    1.401   .     A
C517   H545    1.079   .     S
C518   O568    1.387   .     S
C518   C530    1.418   .     A
C518   C531    1.406   .     A
C519   O576    1.291   .     A
C519   O578    1.274   .     A
C519   C521    1.458   .     S
C520   C540    1.423   .     A
C520   C532    1.418   .     A
C520   C529    1.488   .     S
C521   C595    1.348   .     S
C521   H629    1.088   .     S
C523   C526    1.453   .     S
C523   Br74    1.933   1_565 S
C523   C86     1.348   1_565 S
C524   C525    1.427   .     S
C525   O579    1.268   .     A
C525   O573    1.275   .     A
C526   O580    1.276   .     A
C526   O574    1.267   .     A
C527   C532    1.396   .     A
C527   C1195   1.393   .     S
C527   O1229   1.383   .     S
C528   O566    1.279   .     A
C528   C531    1.454   .     S
C528   O564    1.275   .     A
C529   O567    1.293   .     A
C529   O565    1.283   .     A
C530   C1199   1.425   1_554 S
C530   O1227   1.390   1_554 S
C532   O571    1.383   .     S
C533   H559    1.109   .     S
C533   H558    1.109   .     S
C533   O568    1.415   .     S
C533   H557    1.116   .     S
C534   O569    1.412   .     S
C534   H562    1.110   .     S
C534   H633    1.113   .     S
C534   H634    1.112   .     S
C535   O570    1.414   .     S
C535   H548    1.109   .     S
C535   H1203   1.113   .     S
C535   H1204   1.109   .     S
C536   O571    1.411   .     S
C536   H549    1.113   .     S
C536   H550    1.114   .     S
C536   H551    1.109   .     S
C537   O572    1.410   .     S
C537   H553    1.112   .     S
C537   H1209   1.114   1_554 S
C537   H116    1.109   1_565 S
C538   H555    1.076   .     S
C538   C1184   1.393   1_554 S
C538   C1196   1.415   1_554 S
C539   C540    1.415   .     A
C539   C1195   1.415   .     S
C539   C1198   1.421   .     S
C540   C544    1.412   .     A
C541   C1196   1.421   1_554 S
C541   C1199   1.425   1_554 S
C542   C543    1.419   .     A
C542   C1198   1.425   .     S
C542   C1187   1.425   .     S
C543   C544    1.403   .     A
H546   C1192   1.113   1_554 S
H547   C1192   1.109   1_554 S
H552   C1194   1.114   .     S
O563   Zn583   1.944   .     S
O563   Zn582   1.937   .     S
O563   Zn581   1.961   .     S
O563   Zn584   1.930   .     S
O564   Zn582   1.923   .     S
O565   Zn584   1.930   .     S
O566   Zn583   1.919   .     S
O567   Zn581   1.914   .     S
O569   C595    1.399   .     S
O570   C1187   1.390   .     S
O572   C1184   1.383   1_554 S
O573   Zn581   1.934   .     S
O574   Zn584   1.943   .     S
O575   Zn582   1.934   .     S
O576   Zn583   1.941   .     S
O577   Zn584   1.937   .     S
O578   Zn581   1.933   .     S
O579   Zn582   1.947   .     S
O580   Zn583   1.936   .     S
Br586  C159    1.933   1_565 S
Br587  C616    1.933   .     S
Br588  C617    1.940   .     S
C589   C595    1.445   .     S
C589   O648    1.263   .     A
C589   O650    1.266   .     A
C590   C604    1.383   .     A
C590   C614    1.401   .     A
C590   H618    1.079   .     S
C591   O641    1.387   .     S
C591   C603    1.418   .     A
C591   C604    1.406   .     A
C592   O649    1.291   .     A
C592   O651    1.274   .     A
C592   C594    1.458   .     S
C593   C613    1.423   .     A
C593   C605    1.418   .     A
C593   C602    1.488   .     S
C594   C449    1.348   1_655 S
C594   H483    1.088   1_655 S
C596   C599    1.453   .     S
C596   Br147   1.933   1_565 S
C596   C159    1.348   1_565 S
C597   C598    1.427   .     S
C598   O652    1.268   .     A
C598   O646    1.275   .     A
C599   O653    1.276   .     A
C599   O647    1.267   .     A
C600   C605    1.396   .     A
C600   C1268   1.393   .     S
C600   O1302   1.383   .     S
C601   O639    1.279   .     A
C601   C604    1.454   .     S
C601   O637    1.275   .     A
C602   O640    1.293   .     A
C602   O638    1.283   .     A
C603   C1272   1.425   1_554 S
C603   O1300   1.390   1_554 S
C605   O644    1.383   .     S
C606   H632    1.109   .     S
C606   H631    1.109   .     S
C606   O641    1.415   .     S
C606   H630    1.116   .     S
C607   O642    1.412   .     S
C607   H635    1.110   .     S
C607   H487    1.113   1_655 S
C607   H488    1.112   1_655 S
C608   O643    1.414   .     S
C608   H621    1.109   .     S
C608   H1276   1.113   .     S
C608   H1277   1.109   .     S
C609   O644    1.411   .     S
C609   H622    1.113   .     S
C609   H623    1.114   .     S
C609   H624    1.109   .     S
C610   O645    1.410   .     S
C610   H626    1.112   .     S
C610   H1282   1.114   1_554 S
C610   H189    1.109   1_565 S
C611   H628    1.076   .     S
C611   C1257   1.393   1_554 S
C611   C1269   1.415   1_554 S
C612   C613    1.415   .     A
C612   C1268   1.415   .     S
C612   C1271   1.421   .     S
C613   C617    1.412   .     A
C614   C1269   1.421   1_554 S
C614   C1272   1.425   1_554 S
C615   C616    1.419   .     A
C615   C1271   1.425   .     S
C615   C1260   1.425   .     S
C616   C617    1.403   .     A
H619   C1265   1.113   1_554 S
H620   C1265   1.109   1_554 S
H625   C1267   1.114   .     S
O636   Zn656   1.944   .     S
O636   Zn655   1.937   .     S
O636   Zn654   1.961   .     S
O636   Zn657   1.930   .     S
O637   Zn655   1.923   .     S
O638   Zn657   1.930   .     S
O639   Zn656   1.919   .     S
O640   Zn654   1.914   .     S
O642   C449    1.399   1_655 S
O643   C1260   1.390   .     S
O645   C1257   1.383   1_554 S
O646   Zn654   1.934   .     S
O647   Zn657   1.943   .     S
O648   Zn655   1.934   .     S
O649   Zn656   1.941   .     S
O650   Zn657   1.937   .     S
O651   Zn654   1.933   .     S
O652   Zn655   1.947   .     S
O653   Zn656   1.936   .     S
Br658  C1107   1.933   1_545 S
Br659  C889    1.933   .     S
Br660  C689    1.933   .     S
Br661  C690    1.940   .     S
C662   C668    1.445   .     S
C662   O721    1.263   .     A
C662   O723    1.266   .     A
C663   C677    1.383   .     A
C663   C687    1.401   .     A
C663   H691    1.079   .     S
C664   O714    1.387   .     S
C664   C676    1.418   .     A
C664   C677    1.406   .     A
C665   O722    1.291   .     A
C665   O724    1.274   .     A
C665   C667    1.458   .     S
C666   C686    1.423   .     A
C666   C678    1.418   .     A
C666   C675    1.488   .     S
C667   C741    1.348   .     S
C667   H775    1.088   .     S
C668   C813    1.348   1_455 S
C668   O861    1.399   1_455 S
C669   C672    1.453   .     S
C669   Br877   1.933   .     S
C669   C889    1.348   .     S
C670   C671    1.427   .     S
C670   Br1097  1.933   1_545 S
C670   C1107   1.348   1_545 S
C671   O725    1.268   .     A
C671   O719    1.275   .     A
C672   O726    1.276   .     A
C672   O720    1.267   .     A
C673   C678    1.396   .     A
C673   C27     1.393   1_556 S
C673   O61     1.383   1_556 S
C674   O712    1.279   .     A
C674   C677    1.454   .     S
C674   O710    1.275   .     A
C675   O713    1.293   .     A
C675   O711    1.283   .     A
C678   O717    1.383   .     S
C679   H705    1.109   .     S
C679   H704    1.109   .     S
C679   O714    1.415   .     S
C679   H703    1.116   .     S
C680   O715    1.412   .     S
C680   H708    1.110   .     S
C680   H779    1.113   .     S
C680   H780    1.112   .     S
C681   O716    1.414   .     S
C681   H694    1.109   .     S
C681   H35     1.113   1_556 S
C681   H36     1.109   1_556 S
C682   O717    1.411   .     S
C682   H695    1.113   .     S
C682   H696    1.114   .     S
C682   H697    1.109   .     S
C683   O718    1.410   .     S
C683   H699    1.112   .     S
C683   H919    1.109   .     S
C684   H701    1.076   .     S
C685   C686    1.415   .     A
C685   C27     1.415   1_556 S
C685   C30     1.421   1_556 S
C686   C690    1.412   .     A
C688   C689    1.419   .     A
C688   C30     1.425   1_556 S
C688   C19     1.425   1_556 S
C689   C690    1.403   .     A
H698   C26     1.114   1_556 S
H700   C1121   1.109   1_545 S
H702   C813    1.088   1_455 S
H706   C826    1.113   1_455 S
H707   C826    1.112   1_455 S
O709   Zn729   1.944   .     S
O709   Zn728   1.937   .     S
O709   Zn727   1.961   .     S
O709   Zn730   1.930   .     S
O710   Zn728   1.923   .     S
O711   Zn730   1.930   .     S
O712   Zn729   1.919   .     S
O713   Zn727   1.914   .     S
O715   C741    1.399   .     S
O716   C19     1.390   1_556 S
O719   Zn727   1.934   .     S
O720   Zn730   1.943   .     S
O721   Zn728   1.934   .     S
O722   Zn729   1.941   .     S
O723   Zn730   1.937   .     S
O724   Zn727   1.933   .     S
O725   Zn728   1.947   .     S
O726   Zn729   1.936   .     S
Br731  C1180   1.933   1_545 S
Br732  C962    1.933   .     S
Br733  C762    1.933   .     S
Br734  C763    1.940   .     S
C735   C741    1.445   .     S
C735   O794    1.263   .     A
C735   O796    1.266   .     A
C736   C750    1.383   .     A
C736   C760    1.401   .     A
C736   H764    1.079   .     S
C737   O787    1.387   .     S
C737   C749    1.418   .     A
C737   C750    1.406   .     A
C738   O795    1.291   .     A
C738   O797    1.274   .     A
C738   C740    1.458   .     S
C739   C759    1.423   .     A
C739   C751    1.418   .     A
C739   C748    1.488   .     S
C740   C814    1.348   .     S
C740   H848    1.088   .     S
C742   C745    1.453   .     S
C742   Br950   1.933   .     S
C742   C962    1.348   .     S
C743   C744    1.427   .     S
C743   Br1170  1.933   1_545 S
C743   C1180   1.348   1_545 S
C744   O798    1.268   .     A
C744   O792    1.275   .     A
C745   O799    1.276   .     A
C745   O793    1.267   .     A
C746   C751    1.396   .     A
C746   C100    1.393   1_556 S
C746   O134    1.383   1_556 S
C747   O785    1.279   .     A
C747   C750    1.454   .     S
C747   O783    1.275   .     A
C748   O786    1.293   .     A
C748   O784    1.283   .     A
C751   O790    1.383   .     S
C752   H778    1.109   .     S
C752   H777    1.109   .     S
C752   O787    1.415   .     S
C752   H776    1.116   .     S
C753   O788    1.412   .     S
C753   H781    1.110   .     S
C753   H852    1.113   .     S
C753   H853    1.112   .     S
C754   O789    1.414   .     S
C754   H767    1.109   .     S
C754   H108    1.113   1_556 S
C754   H109    1.109   1_556 S
C755   O790    1.411   .     S
C755   H768    1.113   .     S
C755   H769    1.114   .     S
C755   H770    1.109   .     S
C756   O791    1.410   .     S
C756   H772    1.112   .     S
C756   H992    1.109   .     S
C757   H774    1.076   .     S
C758   C759    1.415   .     A
C758   C100    1.415   1_556 S
C758   C103    1.421   1_556 S
C759   C763    1.412   .     A
C761   C762    1.419   .     A
C761   C103    1.425   1_556 S
C761   C92     1.425   1_556 S
C762   C763    1.403   .     A
H771   C99     1.114   1_556 S
H773   C1194   1.109   1_545 S
O782   Zn802   1.944   .     S
O782   Zn801   1.937   .     S
O782   Zn800   1.961   .     S
O782   Zn803   1.930   .     S
O783   Zn801   1.923   .     S
O784   Zn803   1.930   .     S
O785   Zn802   1.919   .     S
O786   Zn800   1.914   .     S
O788   C814    1.399   .     S
O789   C92     1.390   1_556 S
O792   Zn800   1.934   .     S
O793   Zn803   1.943   .     S
O794   Zn801   1.934   .     S
O795   Zn802   1.941   .     S
O796   Zn803   1.937   .     S
O797   Zn800   1.933   .     S
O798   Zn801   1.947   .     S
O799   Zn802   1.936   .     S
Br804  C1253   1.933   1_545 S
Br805  C1035   1.933   .     S
Br806  C835    1.933   .     S
Br807  C836    1.940   .     S
C808   C814    1.445   .     S
C808   O867    1.263   .     A
C808   O869    1.266   .     A
C809   C823    1.383   .     A
C809   C833    1.401   .     A
C809   H837    1.079   .     S
C810   O860    1.387   .     S
C810   C822    1.418   .     A
C810   C823    1.406   .     A
C811   O868    1.291   .     A
C811   O870    1.274   .     A
C811   C813    1.458   .     S
C812   C832    1.423   .     A
C812   C824    1.418   .     A
C812   C821    1.488   .     S
C813   C668    1.348   1_655 S
C813   H702    1.088   1_655 S
C815   C818    1.453   .     S
C815   Br1023  1.933   .     S
C815   C1035   1.348   .     S
C816   C817    1.427   .     S
C816   Br1243  1.933   1_545 S
C816   C1253   1.348   1_545 S
C817   O871    1.268   .     A
C817   O865    1.275   .     A
C818   O872    1.276   .     A
C818   O866    1.267   .     A
C819   C824    1.396   .     A
C819   C173    1.393   1_556 S
C819   O207    1.383   1_556 S
C820   O858    1.279   .     A
C820   C823    1.454   .     S
C820   O856    1.275   .     A
C821   O859    1.293   .     A
C821   O857    1.283   .     A
C824   O863    1.383   .     S
C825   H851    1.109   .     S
C825   H850    1.109   .     S
C825   O860    1.415   .     S
C825   H849    1.116   .     S
C826   O861    1.412   .     S
C826   H854    1.110   .     S
C826   H706    1.113   1_655 S
C826   H707    1.112   1_655 S
C827   O862    1.414   .     S
C827   H840    1.109   .     S
C827   H181    1.113   1_556 S
C827   H182    1.109   1_556 S
C828   O863    1.411   .     S
C828   H841    1.113   .     S
C828   H842    1.114   .     S
C828   H843    1.109   .     S
C829   O864    1.410   .     S
C829   H845    1.112   .     S
C829   H1065   1.109   .     S
C830   H847    1.076   .     S
C831   C832    1.415   .     A
C831   C173    1.415   1_556 S
C831   C176    1.421   1_556 S
C832   C836    1.412   .     A
C834   C835    1.419   .     A
C834   C176    1.425   1_556 S
C834   C165    1.425   1_556 S
C835   C836    1.403   .     A
H844   C172    1.114   1_556 S
H846   C1267   1.109   1_545 S
O855   Zn875   1.944   .     S
O855   Zn874   1.937   .     S
O855   Zn873   1.961   .     S
O855   Zn876   1.930   .     S
O856   Zn874   1.923   .     S
O857   Zn876   1.930   .     S
O858   Zn875   1.919   .     S
O859   Zn873   1.914   .     S
O861   C668    1.399   1_655 S
O862   C165    1.390   1_556 S
O865   Zn873   1.934   .     S
O866   Zn876   1.943   .     S
O867   Zn874   1.934   .     S
O868   Zn875   1.941   .     S
O869   Zn876   1.937   .     S
O870   Zn873   1.933   .     S
O871   Zn874   1.947   .     S
O872   Zn875   1.936   .     S
Br878  C1108   1.933   .     S
Br879  C908    1.933   .     S
Br880  C909    1.940   .     S
C881   C887    1.445   .     S
C881   O940    1.263   .     A
C881   O942    1.266   .     A
C882   C896    1.383   .     A
C882   C906    1.401   .     A
C882   H910    1.079   .     S
C883   O933    1.387   .     S
C883   C895    1.418   .     A
C883   C896    1.406   .     A
C884   O941    1.291   .     A
C884   O943    1.274   .     A
C884   C886    1.458   .     S
C885   C905    1.423   .     A
C885   C897    1.418   .     A
C885   C894    1.488   .     S
C886   C960    1.348   .     S
C886   H994    1.088   .     S
C887   C1032   1.348   1_455 S
C887   O1080   1.399   1_455 S
C888   C891    1.453   .     S
C888   Br1096  1.933   .     S
C888   C1108   1.348   .     S
C889   C890    1.427   .     S
C890   O944    1.268   .     A
C890   O938    1.275   .     A
C891   O945    1.276   .     A
C891   O939    1.267   .     A
C892   C897    1.396   .     A
C892   C246    1.393   1_556 S
C892   O280    1.383   1_556 S
C893   O931    1.279   .     A
C893   C896    1.454   .     S
C893   O929    1.275   .     A
C894   O932    1.293   .     A
C894   O930    1.283   .     A
C897   O936    1.383   .     S
C898   H924    1.109   .     S
C898   H923    1.109   .     S
C898   O933    1.415   .     S
C898   H922    1.116   .     S
C899   O934    1.412   .     S
C899   H927    1.110   .     S
C899   H998    1.113   .     S
C899   H999    1.112   .     S
C900   O935    1.414   .     S
C900   H913    1.109   .     S
C900   H254    1.113   1_556 S
C900   H255    1.109   1_556 S
C901   O936    1.411   .     S
C901   H914    1.113   .     S
C901   H915    1.114   .     S
C901   H916    1.109   .     S
C902   O937    1.410   .     S
C902   H918    1.112   .     S
C902   H1138   1.109   .     S
C903   H920    1.076   .     S
C904   C905    1.415   .     A
C904   C246    1.415   1_556 S
C904   C249    1.421   1_556 S
C905   C909    1.412   .     A
C907   C908    1.419   .     A
C907   C249    1.425   1_556 S
C907   C238    1.425   1_556 S
C908   C909    1.403   .     A
H917   C245    1.114   1_556 S
H921   C1032   1.088   1_455 S
H925   C1045   1.113   1_455 S
H926   C1045   1.112   1_455 S
O928   Zn948   1.944   .     S
O928   Zn947   1.937   .     S
O928   Zn946   1.961   .     S
O928   Zn949   1.930   .     S
O929   Zn947   1.923   .     S
O930   Zn949   1.930   .     S
O931   Zn948   1.919   .     S
O932   Zn946   1.914   .     S
O934   C960    1.399   .     S
O935   C238    1.390   1_556 S
O938   Zn946   1.934   .     S
O939   Zn949   1.943   .     S
O940   Zn947   1.934   .     S
O941   Zn948   1.941   .     S
O942   Zn949   1.937   .     S
O943   Zn946   1.933   .     S
O944   Zn947   1.947   .     S
O945   Zn948   1.936   .     S
Br951  C1181   1.933   .     S
Br952  C981    1.933   .     S
Br953  C982    1.940   .     S
C954   C960    1.445   .     S
C954   O1013   1.263   .     A
C954   O1015   1.266   .     A
C955   C969    1.383   .     A
C955   C979    1.401   .     A
C955   H983    1.079   .     S
C956   O1006   1.387   .     S
C956   C968    1.418   .     A
C956   C969    1.406   .     A
C957   O1014   1.291   .     A
C957   O1016   1.274   .     A
C957   C959    1.458   .     S
C958   C978    1.423   .     A
C958   C970    1.418   .     A
C958   C967    1.488   .     S
C959   C1033   1.348   .     S
C959   H1067   1.088   .     S
C961   C964    1.453   .     S
C961   Br1169  1.933   .     S
C961   C1181   1.348   .     S
C962   C963    1.427   .     S
C963   O1017   1.268   .     A
C963   O1011   1.275   .     A
C964   O1018   1.276   .     A
C964   O1012   1.267   .     A
C965   C970    1.396   .     A
C965   C319    1.393   1_556 S
C965   O353    1.383   1_556 S
C966   O1004   1.279   .     A
C966   C969    1.454   .     S
C966   O1002   1.275   .     A
C967   O1005   1.293   .     A
C967   O1003   1.283   .     A
C970   O1009   1.383   .     S
C971   H997    1.109   .     S
C971   H996    1.109   .     S
C971   O1006   1.415   .     S
C971   H995    1.116   .     S
C972   O1007   1.412   .     S
C972   H1000   1.110   .     S
C972   H1071   1.113   .     S
C972   H1072   1.112   .     S
C973   O1008   1.414   .     S
C973   H986    1.109   .     S
C973   H327    1.113   1_556 S
C973   H328    1.109   1_556 S
C974   O1009   1.411   .     S
C974   H987    1.113   .     S
C974   H988    1.114   .     S
C974   H989    1.109   .     S
C975   O1010   1.410   .     S
C975   H991    1.112   .     S
C975   H1211   1.109   .     S
C976   H993    1.076   .     S
C977   C978    1.415   .     A
C977   C319    1.415   1_556 S
C977   C322    1.421   1_556 S
C978   C982    1.412   .     A
C980   C981    1.419   .     A
C980   C322    1.425   1_556 S
C980   C311    1.425   1_556 S
C981   C982    1.403   .     A
H990   C318    1.114   1_556 S
O1001  Zn1021  1.944   .     S
O1001  Zn1020  1.937   .     S
O1001  Zn1019  1.961   .     S
O1001  Zn1022  1.930   .     S
O1002  Zn1020  1.923   .     S
O1003  Zn1022  1.930   .     S
O1004  Zn1021  1.919   .     S
O1005  Zn1019  1.914   .     S
O1007  C1033   1.399   .     S
O1008  C311    1.390   1_556 S
O1011  Zn1019  1.934   .     S
O1012  Zn1022  1.943   .     S
O1013  Zn1020  1.934   .     S
O1014  Zn1021  1.941   .     S
O1015  Zn1022  1.937   .     S
O1016  Zn1019  1.933   .     S
O1017  Zn1020  1.947   .     S
O1018  Zn1021  1.936   .     S
Br1024 C1254   1.933   .     S
Br1025 C1054   1.933   .     S
Br1026 C1055   1.940   .     S
C1027  C1033   1.445   .     S
C1027  O1086   1.263   .     A
C1027  O1088   1.266   .     A
C1028  C1042   1.383   .     A
C1028  C1052   1.401   .     A
C1028  H1056   1.079   .     S
C1029  O1079   1.387   .     S
C1029  C1041   1.418   .     A
C1029  C1042   1.406   .     A
C1030  O1087   1.291   .     A
C1030  O1089   1.274   .     A
C1030  C1032   1.458   .     S
C1031  C1051   1.423   .     A
C1031  C1043   1.418   .     A
C1031  C1040   1.488   .     S
C1032  C887    1.348   1_655 S
C1032  H921    1.088   1_655 S
C1034  C1037   1.453   .     S
C1034  Br1242  1.933   .     S
C1034  C1254   1.348   .     S
C1035  C1036   1.427   .     S
C1036  O1090   1.268   .     A
C1036  O1084   1.275   .     A
C1037  O1091   1.276   .     A
C1037  O1085   1.267   .     A
C1038  C1043   1.396   .     A
C1038  C392    1.393   1_556 S
C1038  O426    1.383   1_556 S
C1039  O1077   1.279   .     A
C1039  C1042   1.454   .     S
C1039  O1075   1.275   .     A
C1040  O1078   1.293   .     A
C1040  O1076   1.283   .     A
C1043  O1082   1.383   .     S
C1044  H1070   1.109   .     S
C1044  H1069   1.109   .     S
C1044  O1079   1.415   .     S
C1044  H1068   1.116   .     S
C1045  O1080   1.412   .     S
C1045  H1073   1.110   .     S
C1045  H925    1.113   1_655 S
C1045  H926    1.112   1_655 S
C1046  O1081   1.414   .     S
C1046  H1059   1.109   .     S
C1046  H400    1.113   1_556 S
C1046  H401    1.109   1_556 S
C1047  O1082   1.411   .     S
C1047  H1060   1.113   .     S
C1047  H1061   1.114   .     S
C1047  H1062   1.109   .     S
C1048  O1083   1.410   .     S
C1048  H1064   1.112   .     S
C1048  H1284   1.109   .     S
C1049  H1066   1.076   .     S
C1050  C1051   1.415   .     A
C1050  C392    1.415   1_556 S
C1050  C395    1.421   1_556 S
C1051  C1055   1.412   .     A
C1053  C1054   1.419   .     A
C1053  C395    1.425   1_556 S
C1053  C384    1.425   1_556 S
C1054  C1055   1.403   .     A
H1063  C391    1.114   1_556 S
O1074  Zn1094  1.944   .     S
O1074  Zn1093  1.937   .     S
O1074  Zn1092  1.961   .     S
O1074  Zn1095  1.930   .     S
O1075  Zn1093  1.923   .     S
O1076  Zn1095  1.930   .     S
O1077  Zn1094  1.919   .     S
O1078  Zn1092  1.914   .     S
O1080  C887    1.399   1_655 S
O1081  C384    1.390   1_556 S
O1084  Zn1092  1.934   .     S
O1085  Zn1095  1.943   .     S
O1086  Zn1093  1.934   .     S
O1087  Zn1094  1.941   .     S
O1088  Zn1095  1.937   .     S
O1089  Zn1092  1.933   .     S
O1090  Zn1093  1.947   .     S
O1091  Zn1094  1.936   .     S
Br1097 C670    1.933   1_565 S
Br1098 C1127   1.933   .     S
Br1099 C1128   1.940   .     S
C1100  C1106   1.445   .     S
C1100  O1159   1.263   .     A
C1100  O1161   1.266   .     A
C1101  C1115   1.383   .     A
C1101  C1125   1.401   .     A
C1101  H1129   1.079   .     S
C1102  O1152   1.387   .     S
C1102  C1114   1.418   .     A
C1102  C1115   1.406   .     A
C1103  O1160   1.291   .     A
C1103  O1162   1.274   .     A
C1103  C1105   1.458   .     S
C1104  C1124   1.423   .     A
C1104  C1116   1.418   .     A
C1104  C1113   1.488   .     S
C1105  C1179   1.348   .     S
C1105  H1213   1.088   .     S
C1106  C1251   1.348   1_455 S
C1106  O1299   1.399   1_455 S
C1107  C1110   1.453   .     S
C1107  Br658   1.933   1_565 S
C1107  C670    1.348   1_565 S
C1108  C1109   1.427   .     S
C1109  O1163   1.268   .     A
C1109  O1157   1.275   .     A
C1110  O1164   1.276   .     A
C1110  O1158   1.267   .     A
C1111  C1116   1.396   .     A
C1111  C465    1.393   1_556 S
C1111  O499    1.383   1_556 S
C1112  O1150   1.279   .     A
C1112  C1115   1.454   .     S
C1112  O1148   1.275   .     A
C1113  O1151   1.293   .     A
C1113  O1149   1.283   .     A
C1116  O1155   1.383   .     S
C1117  H1143   1.109   .     S
C1117  H1142   1.109   .     S
C1117  O1152   1.415   .     S
C1117  H1141   1.116   .     S
C1118  O1153   1.412   .     S
C1118  H1146   1.110   .     S
C1118  H1217   1.113   .     S
C1118  H1218   1.112   .     S
C1119  O1154   1.414   .     S
C1119  H1132   1.109   .     S
C1119  H473    1.113   1_556 S
C1119  H474    1.109   1_556 S
C1120  O1155   1.411   .     S
C1120  H1133   1.113   .     S
C1120  H1134   1.114   .     S
C1120  H1135   1.109   .     S
C1121  O1156   1.410   .     S
C1121  H1137   1.112   .     S
C1121  H700    1.109   1_565 S
C1122  H1139   1.076   .     S
C1123  C1124   1.415   .     A
C1123  C465    1.415   1_556 S
C1123  C468    1.421   1_556 S
C1124  C1128   1.412   .     A
C1126  C1127   1.419   .     A
C1126  C468    1.425   1_556 S
C1126  C457    1.425   1_556 S
C1127  C1128   1.403   .     A
H1136  C464    1.114   1_556 S
H1140  C1251   1.088   1_455 S
H1144  C1264   1.113   1_455 S
H1145  C1264   1.112   1_455 S
O1147  Zn1167  1.944   .     S
O1147  Zn1166  1.937   .     S
O1147  Zn1165  1.961   .     S
O1147  Zn1168  1.930   .     S
O1148  Zn1166  1.923   .     S
O1149  Zn1168  1.930   .     S
O1150  Zn1167  1.919   .     S
O1151  Zn1165  1.914   .     S
O1153  C1179   1.399   .     S
O1154  C457    1.390   1_556 S
O1157  Zn1165  1.934   .     S
O1158  Zn1168  1.943   .     S
O1159  Zn1166  1.934   .     S
O1160  Zn1167  1.941   .     S
O1161  Zn1168  1.937   .     S
O1162  Zn1165  1.933   .     S
O1163  Zn1166  1.947   .     S
O1164  Zn1167  1.936   .     S
Br1170 C743    1.933   1_565 S
Br1171 C1200   1.933   .     S
Br1172 C1201   1.940   .     S
C1173  C1179   1.445   .     S
C1173  O1232   1.263   .     A
C1173  O1234   1.266   .     A
C1174  C1188   1.383   .     A
C1174  C1198   1.401   .     A
C1174  H1202   1.079   .     S
C1175  O1225   1.387   .     S
C1175  C1187   1.418   .     A
C1175  C1188   1.406   .     A
C1176  O1233   1.291   .     A
C1176  O1235   1.274   .     A
C1176  C1178   1.458   .     S
C1177  C1197   1.423   .     A
C1177  C1189   1.418   .     A
C1177  C1186   1.488   .     S
C1178  C1252   1.348   .     S
C1178  H1286   1.088   .     S
C1180  C1183   1.453   .     S
C1180  Br731   1.933   1_565 S
C1180  C743    1.348   1_565 S
C1181  C1182   1.427   .     S
C1182  O1236   1.268   .     A
C1182  O1230   1.275   .     A
C1183  O1237   1.276   .     A
C1183  O1231   1.267   .     A
C1184  C1189   1.396   .     A
C1184  C538    1.393   1_556 S
C1184  O572    1.383   1_556 S
C1185  O1223   1.279   .     A
C1185  C1188   1.454   .     S
C1185  O1221   1.275   .     A
C1186  O1224   1.293   .     A
C1186  O1222   1.283   .     A
C1189  O1228   1.383   .     S
C1190  H1216   1.109   .     S
C1190  H1215   1.109   .     S
C1190  O1225   1.415   .     S
C1190  H1214   1.116   .     S
C1191  O1226   1.412   .     S
C1191  H1219   1.110   .     S
C1191  H1290   1.113   .     S
C1191  H1291   1.112   .     S
C1192  O1227   1.414   .     S
C1192  H1205   1.109   .     S
C1192  H546    1.113   1_556 S
C1192  H547    1.109   1_556 S
C1193  O1228   1.411   .     S
C1193  H1206   1.113   .     S
C1193  H1207   1.114   .     S
C1193  H1208   1.109   .     S
C1194  O1229   1.410   .     S
C1194  H1210   1.112   .     S
C1194  H773    1.109   1_565 S
C1195  H1212   1.076   .     S
C1196  C1197   1.415   .     A
C1196  C538    1.415   1_556 S
C1196  C541    1.421   1_556 S
C1197  C1201   1.412   .     A
C1199  C1200   1.419   .     A
C1199  C541    1.425   1_556 S
C1199  C530    1.425   1_556 S
C1200  C1201   1.403   .     A
H1209  C537    1.114   1_556 S
O1220  Zn1240  1.944   .     S
O1220  Zn1239  1.937   .     S
O1220  Zn1238  1.961   .     S
O1220  Zn1241  1.930   .     S
O1221  Zn1239  1.923   .     S
O1222  Zn1241  1.930   .     S
O1223  Zn1240  1.919   .     S
O1224  Zn1238  1.914   .     S
O1226  C1252   1.399   .     S
O1227  C530    1.390   1_556 S
O1230  Zn1238  1.934   .     S
O1231  Zn1241  1.943   .     S
O1232  Zn1239  1.934   .     S
O1233  Zn1240  1.941   .     S
O1234  Zn1241  1.937   .     S
O1235  Zn1238  1.933   .     S
O1236  Zn1239  1.947   .     S
O1237  Zn1240  1.936   .     S
Br1243 C816    1.933   1_565 S
Br1244 C1273   1.933   .     S
Br1245 C1274   1.940   .     S
C1246  C1252   1.445   .     S
C1246  O1305   1.263   .     A
C1246  O1307   1.266   .     A
C1247  C1261   1.383   .     A
C1247  C1271   1.401   .     A
C1247  H1275   1.079   .     S
C1248  O1298   1.387   .     S
C1248  C1260   1.418   .     A
C1248  C1261   1.406   .     A
C1249  O1306   1.291   .     A
C1249  O1308   1.274   .     A
C1249  C1251   1.458   .     S
C1250  C1270   1.423   .     A
C1250  C1262   1.418   .     A
C1250  C1259   1.488   .     S
C1251  C1106   1.348   1_655 S
C1251  H1140   1.088   1_655 S
C1253  C1256   1.453   .     S
C1253  Br804   1.933   1_565 S
C1253  C816    1.348   1_565 S
C1254  C1255   1.427   .     S
C1255  O1309   1.268   .     A
C1255  O1303   1.275   .     A
C1256  O1310   1.276   .     A
C1256  O1304   1.267   .     A
C1257  C1262   1.396   .     A
C1257  C611    1.393   1_556 S
C1257  O645    1.383   1_556 S
C1258  O1296   1.279   .     A
C1258  C1261   1.454   .     S
C1258  O1294   1.275   .     A
C1259  O1297   1.293   .     A
C1259  O1295   1.283   .     A
C1262  O1301   1.383   .     S
C1263  H1289   1.109   .     S
C1263  H1288   1.109   .     S
C1263  O1298   1.415   .     S
C1263  H1287   1.116   .     S
C1264  O1299   1.412   .     S
C1264  H1292   1.110   .     S
C1264  H1144   1.113   1_655 S
C1264  H1145   1.112   1_655 S
C1265  O1300   1.414   .     S
C1265  H1278   1.109   .     S
C1265  H619    1.113   1_556 S
C1265  H620    1.109   1_556 S
C1266  O1301   1.411   .     S
C1266  H1279   1.113   .     S
C1266  H1280   1.114   .     S
C1266  H1281   1.109   .     S
C1267  O1302   1.410   .     S
C1267  H1283   1.112   .     S
C1267  H846    1.109   1_565 S
C1268  H1285   1.076   .     S
C1269  C1270   1.415   .     A
C1269  C611    1.415   1_556 S
C1269  C614    1.421   1_556 S
C1270  C1274   1.412   .     A
C1272  C1273   1.419   .     A
C1272  C614    1.425   1_556 S
C1272  C603    1.425   1_556 S
C1273  C1274   1.403   .     A
H1282  C610    1.114   1_556 S
O1293  Zn1313  1.944   .     S
O1293  Zn1312  1.937   .     S
O1293  Zn1311  1.961   .     S
O1293  Zn1314  1.930   .     S
O1294  Zn1312  1.923   .     S
O1295  Zn1314  1.930   .     S
O1296  Zn1313  1.919   .     S
O1297  Zn1311  1.914   .     S
O1299  C1106   1.399   1_655 S
O1300  C603    1.390   1_556 S
O1303  Zn1311  1.934   .     S
O1304  Zn1314  1.943   .     S
O1305  Zn1312  1.934   .     S
O1306  Zn1313  1.941   .     S
O1307  Zn1314  1.937   .     S
O1308  Zn1311  1.933   .     S
O1309  Zn1312  1.947   .     S
O1310  Zn1313  1.936   .     S
