data_str_m1_o10_o18_pcu_sym.223
_audit_creation_date              2020-01-03
_audit_creation_method            'Materials Studio'
_symmetry_space_group_name_H-M    'P1'
_symmetry_Int_Tables_number       1
_symmetry_cell_setting            triclinic
loop_
_symmetry_equiv_pos_as_xyz
  x,y,z
_cell_length_a                    32.7171
_cell_length_b                    32.6732
_cell_length_c                    35.2459
_cell_angle_alpha                 98.2687
_cell_angle_beta                  72.7371
_cell_angle_gamma                 98.7733
loop_
_atom_site_label
_atom_site_type_symbol
_atom_site_fract_x
_atom_site_fract_y
_atom_site_fract_z
_atom_site_U_iso_or_equiv
_atom_site_adp_type
_atom_site_occupancy
C1     C     0.05256   0.15944   0.25939   0.00000  Uiso   1.00
C2     C     0.18228   0.11330   0.45906   0.00000  Uiso   1.00
C3     C     0.20503   0.09427   0.47890   0.00000  Uiso   1.00
C4     C     0.28143   0.17365   0.24093   0.00000  Uiso   1.00
C5     C     0.20250   0.10784   0.01956   0.00000  Uiso   1.00
C6     C     0.17214   0.13540   0.04134   0.00000  Uiso   1.00
C7     C     0.22941   0.09446   0.03884   0.00000  Uiso   1.00
C8     C     0.22551   0.10663   0.07941   0.00000  Uiso   1.00
C9     C     0.17292   0.15280   0.08035   0.00000  Uiso   1.00
C10    C     0.32805   0.17626   0.23679   0.00000  Uiso   1.00
C11    C     0.00728   0.15732   0.26271   0.00000  Uiso   1.00
C12    C     0.09049   0.20578   0.42224   0.00000  Uiso   1.00
C13    C     0.18147   0.32287   0.23894   0.00000  Uiso   1.00
C14    C     0.15062   0.01232   0.26240   0.00000  Uiso   1.00
C15    C     0.15584   0.05630   0.25892   0.00000  Uiso   1.00
C16    C     0.17701   0.27784   0.24142   0.00000  Uiso   1.00
C17    C     0.18826   0.14531   0.14371   0.00000  Uiso   1.00
C18    C     0.14531   0.18793   0.35663   0.00000  Uiso   1.00
C19    C     0.13139   0.19298   0.40120   0.00000  Uiso   1.00
C20    C     0.19712   0.13605   0.10026   0.00000  Uiso   1.00
C21    C     0.07319   0.20174   0.46340   0.00000  Uiso   1.00
C22    C     0.02954   0.19926   0.20432   0.00000  Uiso   1.00
C23    C     0.15657   0.18040   0.42278   0.00000  Uiso   1.00
C24    C     0.01479   0.22210   0.17639   0.00000  Uiso   1.00
C25    C     0.05327   0.24426   0.14726   0.00000  Uiso   1.00
C26    C     0.25133   0.08727   0.10001   0.00000  Uiso   1.00
C27    C     0.29134   0.11661   0.10450   0.00000  Uiso   1.00
C28    C     0.31244   0.10059   0.13184   0.00000  Uiso   1.00
C29    C     0.20580   0.18958   0.40779   0.00000  Uiso   1.00
C30    C     0.22410   0.22060   0.43751   0.00000  Uiso   1.00
C31    C     0.27280   0.23115   0.42131   0.00000  Uiso   1.00
C32    C     0.13575   0.16781   0.46165   0.00000  Uiso   1.00
C33    C     0.09548   0.18214   0.48332   0.00000  Uiso   1.00
C34    C     0.15521   0.14377   0.48054   0.00000  Uiso   1.00
C35    C     0.14340   0.14681   0.02249   0.00000  Uiso   1.00
C36    C     0.10190   0.15821   0.04381   0.00000  Uiso   1.00
C37    C     0.07830   0.17651   0.02448   0.00000  Uiso   1.00
H38    H     0.25352   0.07415   0.02277   0.00000  Uiso   1.00
H39    H     0.32725   0.12551   0.30848   0.00000  Uiso   1.00
H40    H     0.23697   0.32193   0.19818   0.00000  Uiso   1.00
H41    H     0.09527   0.01686   0.30214   0.00000  Uiso   1.00
H42    H     0.16008   0.20039   0.12118   0.00000  Uiso   1.00
H43    H     0.28950   0.09833   0.16207   0.00000  Uiso   1.00
H44    H     0.32292   0.06949   0.11923   0.00000  Uiso   1.00
H45    H     0.00770   0.12247   0.13487   0.00000  Uiso   1.00
H46    H     0.31491   0.11903   0.07459   0.00000  Uiso   1.00
H47    H     0.28271   0.14829   0.11715   0.00000  Uiso   1.00
H48    H     0.23049   0.07885   0.12967   0.00000  Uiso   1.00
H49    H     0.03280   0.18785   0.07427   0.00000  Uiso   1.00
H50    H     0.26192   0.05763   0.08268   0.00000  Uiso   1.00
H51    H     0.22733   0.04191   0.47583   0.00000  Uiso   1.00
H52    H     0.02318   0.23069   0.46758   0.00000  Uiso   1.00
H53    H     0.08452   0.24730   0.39190   0.00000  Uiso   1.00
H54    H     0.28913   0.20257   0.41592   0.00000  Uiso   1.00
H55    H     0.28076   0.24560   0.39294   0.00000  Uiso   1.00
H56    H     0.28504   0.25351   0.44341   0.00000  Uiso   1.00
H57    H     0.20857   0.24973   0.44330   0.00000  Uiso   1.00
H58    H     0.21751   0.20744   0.46634   0.00000  Uiso   1.00
H59    H     0.22212   0.16113   0.40094   0.00000  Uiso   1.00
H60    H     0.07155   0.26803   0.16377   0.00000  Uiso   1.00
H61    H     0.21541   0.20412   0.37937   0.00000  Uiso   1.00
H62    H     0.09289   0.12236   0.08580   0.00000  Uiso   1.00
H63    H     0.20140   0.07789   0.40871   0.00000  Uiso   1.00
H64    H     0.07503   0.22155   0.12874   0.00000  Uiso   1.00
H65    H     0.04173   0.26006   0.12718   0.00000  Uiso   1.00
H66    H     0.33020   0.19947   0.15864   0.00000  Uiso   1.00
H67    H     0.32732   0.24602   0.19420   0.00000  Uiso   1.00
H68    H     0.04944   0.22281   0.21950   0.00000  Uiso   1.00
H69    H     0.05085   0.17625   0.18532   0.00000  Uiso   1.00
O70    O     0.16667   0.16667   0.25000   0.00000  Uiso   1.00
O71    O     0.15693   0.12393   0.16625   0.00000  Uiso   1.00
O72    O     0.12687   0.20646   0.33749   0.00000  Uiso   1.00
O73    O     0.21088   0.17493   0.15877   0.00000  Uiso   1.00
O74    O     0.17198   0.16135   0.33749   0.00000  Uiso   1.00
O75    O     0.03821   0.18865   0.04522   0.00000  Uiso   1.00
O76    O     0.31129   0.13670   0.29307   0.00000  Uiso   1.00
O77    O     0.21707   0.00925   0.21279   0.00000  Uiso   1.00
O78    O     0.11349   0.32788   0.28811   0.00000  Uiso   1.00
O79    O     0.15112   0.18709   0.09742   0.00000  Uiso   1.00
O80    O     0.22959   0.06321   0.45774   0.00000  Uiso   1.00
O81    O     0.17849   0.08101   0.27821   0.00000  Uiso   1.00
O82    O     0.03410   0.21593   0.48451   0.00000  Uiso   1.00
O83    O     0.06661   0.22216   0.40312   0.00000  Uiso   1.00
O84    O     0.08128   0.14724   0.08189   0.00000  Uiso   1.00
O85    O     0.18079   0.09862   0.42056   0.00000  Uiso   1.00
O86    O     0.14581   0.26136   0.26767   0.00000  Uiso   1.00
O87    O     0.07452   0.13251   0.23607   0.00000  Uiso   1.00
O88    O     0.26785   0.19179   0.21806   0.00000  Uiso   1.00
O89    O     0.06990   0.18960   0.27820   0.00000  Uiso   1.00
O90    O     0.25440   0.15277   0.26768   0.00000  Uiso   1.00
O91    O     0.13800   0.06903   0.23607   0.00000  Uiso   1.00
O92    O     0.20437   0.25527   0.21806   0.00000  Uiso   1.00
Zn93   Zn    0.19244   0.14090   0.28278   0.00000  Uiso   1.00
Zn94   Zn    0.13459   0.12378   0.22258   0.00000  Uiso   1.00
Zn95   Zn    0.21166   0.19664   0.21188   0.00000  Uiso   1.00
Zn96   Zn    0.12798   0.20535   0.28277   0.00000  Uiso   1.00
C97    C     0.38590   0.15944   0.25939   0.00000  Uiso   1.00
C98    C     0.51561   0.11330   0.45906   0.00000  Uiso   1.00
C99    C     0.53837   0.09427   0.47890   0.00000  Uiso   1.00
C100   C     0.61476   0.17365   0.24093   0.00000  Uiso   1.00
C101   C     0.53583   0.10784   0.01956   0.00000  Uiso   1.00
C102   C     0.50547   0.13540   0.04134   0.00000  Uiso   1.00
C103   C     0.56275   0.09446   0.03884   0.00000  Uiso   1.00
C104   C     0.55885   0.10663   0.07941   0.00000  Uiso   1.00
C105   C     0.50625   0.15280   0.08035   0.00000  Uiso   1.00
C106   C     0.66138   0.17626   0.23679   0.00000  Uiso   1.00
C107   C     0.34061   0.15732   0.26271   0.00000  Uiso   1.00
C108   C     0.42383   0.20578   0.42224   0.00000  Uiso   1.00
C109   C     0.51480   0.32287   0.23894   0.00000  Uiso   1.00
C110   C     0.48396   0.01232   0.26240   0.00000  Uiso   1.00
C111   C     0.48918   0.05630   0.25892   0.00000  Uiso   1.00
C112   C     0.51034   0.27784   0.24142   0.00000  Uiso   1.00
C113   C     0.52160   0.14531   0.14371   0.00000  Uiso   1.00
C114   C     0.47864   0.18793   0.35663   0.00000  Uiso   1.00
C115   C     0.46473   0.19298   0.40120   0.00000  Uiso   1.00
C116   C     0.53045   0.13605   0.10026   0.00000  Uiso   1.00
C117   C     0.40652   0.20174   0.46340   0.00000  Uiso   1.00
C118   C     0.36287   0.19926   0.20432   0.00000  Uiso   1.00
C119   C     0.48990   0.18040   0.42278   0.00000  Uiso   1.00
C120   C     0.34812   0.22210   0.17639   0.00000  Uiso   1.00
C121   C     0.38660   0.24426   0.14726   0.00000  Uiso   1.00
C122   C     0.58466   0.08727   0.10001   0.00000  Uiso   1.00
C123   C     0.62467   0.11661   0.10450   0.00000  Uiso   1.00
C124   C     0.64578   0.10059   0.13184   0.00000  Uiso   1.00
C125   C     0.53913   0.18958   0.40779   0.00000  Uiso   1.00
C126   C     0.55744   0.22060   0.43751   0.00000  Uiso   1.00
C127   C     0.60613   0.23115   0.42131   0.00000  Uiso   1.00
C128   C     0.46908   0.16781   0.46165   0.00000  Uiso   1.00
C129   C     0.42881   0.18214   0.48332   0.00000  Uiso   1.00
C130   C     0.48854   0.14377   0.48054   0.00000  Uiso   1.00
C131   C     0.47673   0.14681   0.02249   0.00000  Uiso   1.00
C132   C     0.43523   0.15821   0.04381   0.00000  Uiso   1.00
C133   C     0.41164   0.17651   0.02448   0.00000  Uiso   1.00
H134   H     0.58686   0.07415   0.02277   0.00000  Uiso   1.00
H135   H     0.66059   0.12551   0.30848   0.00000  Uiso   1.00
H136   H     0.57030   0.32193   0.19818   0.00000  Uiso   1.00
H137   H     0.42861   0.01686   0.30214   0.00000  Uiso   1.00
H138   H     0.49341   0.20039   0.12118   0.00000  Uiso   1.00
H139   H     0.62284   0.09833   0.16207   0.00000  Uiso   1.00
H140   H     0.65625   0.06949   0.11923   0.00000  Uiso   1.00
H141   H     0.34103   0.12247   0.13487   0.00000  Uiso   1.00
H142   H     0.64825   0.11903   0.07459   0.00000  Uiso   1.00
H143   H     0.61605   0.14829   0.11715   0.00000  Uiso   1.00
H144   H     0.56383   0.07885   0.12967   0.00000  Uiso   1.00
H145   H     0.36613   0.18785   0.07427   0.00000  Uiso   1.00
H146   H     0.59525   0.05763   0.08268   0.00000  Uiso   1.00
H147   H     0.56067   0.04191   0.47583   0.00000  Uiso   1.00
H148   H     0.35651   0.23069   0.46758   0.00000  Uiso   1.00
H149   H     0.41785   0.24730   0.39190   0.00000  Uiso   1.00
H150   H     0.62246   0.20257   0.41592   0.00000  Uiso   1.00
H151   H     0.61410   0.24560   0.39294   0.00000  Uiso   1.00
H152   H     0.61837   0.25351   0.44341   0.00000  Uiso   1.00
H153   H     0.54190   0.24973   0.44330   0.00000  Uiso   1.00
H154   H     0.55084   0.20744   0.46634   0.00000  Uiso   1.00
H155   H     0.55545   0.16113   0.40094   0.00000  Uiso   1.00
H156   H     0.40488   0.26803   0.16377   0.00000  Uiso   1.00
H157   H     0.54875   0.20412   0.37937   0.00000  Uiso   1.00
H158   H     0.42622   0.12236   0.08580   0.00000  Uiso   1.00
H159   H     0.53474   0.07789   0.40871   0.00000  Uiso   1.00
H160   H     0.40837   0.22155   0.12874   0.00000  Uiso   1.00
H161   H     0.37506   0.26006   0.12718   0.00000  Uiso   1.00
H162   H     0.66353   0.19947   0.15864   0.00000  Uiso   1.00
H163   H     0.66066   0.24602   0.19420   0.00000  Uiso   1.00
H164   H     0.38277   0.22281   0.21950   0.00000  Uiso   1.00
H165   H     0.38418   0.17625   0.18532   0.00000  Uiso   1.00
O166   O     0.50000   0.16667   0.25000   0.00000  Uiso   1.00
O167   O     0.49027   0.12393   0.16625   0.00000  Uiso   1.00
O168   O     0.46020   0.20646   0.33749   0.00000  Uiso   1.00
O169   O     0.54421   0.17493   0.15877   0.00000  Uiso   1.00
O170   O     0.50532   0.16135   0.33749   0.00000  Uiso   1.00
O171   O     0.37154   0.18865   0.04522   0.00000  Uiso   1.00
O172   O     0.64462   0.13670   0.29307   0.00000  Uiso   1.00
O173   O     0.55040   0.00925   0.21279   0.00000  Uiso   1.00
O174   O     0.44682   0.32788   0.28811   0.00000  Uiso   1.00
O175   O     0.48445   0.18709   0.09742   0.00000  Uiso   1.00
O176   O     0.56293   0.06321   0.45774   0.00000  Uiso   1.00
O177   O     0.51182   0.08101   0.27821   0.00000  Uiso   1.00
O178   O     0.36744   0.21593   0.48451   0.00000  Uiso   1.00
O179   O     0.39994   0.22216   0.40312   0.00000  Uiso   1.00
O180   O     0.41462   0.14724   0.08189   0.00000  Uiso   1.00
O181   O     0.51412   0.09862   0.42056   0.00000  Uiso   1.00
O182   O     0.47914   0.26136   0.26767   0.00000  Uiso   1.00
O183   O     0.40785   0.13251   0.23607   0.00000  Uiso   1.00
O184   O     0.60119   0.19179   0.21806   0.00000  Uiso   1.00
O185   O     0.40323   0.18960   0.27820   0.00000  Uiso   1.00
O186   O     0.58773   0.15277   0.26768   0.00000  Uiso   1.00
O187   O     0.47133   0.06903   0.23607   0.00000  Uiso   1.00
O188   O     0.53771   0.25527   0.21806   0.00000  Uiso   1.00
Zn189  Zn    0.52577   0.14090   0.28278   0.00000  Uiso   1.00
Zn190  Zn    0.46792   0.12378   0.22258   0.00000  Uiso   1.00
Zn191  Zn    0.54500   0.19664   0.21188   0.00000  Uiso   1.00
Zn192  Zn    0.46131   0.20535   0.28277   0.00000  Uiso   1.00
C193   C     0.71923   0.15944   0.25939   0.00000  Uiso   1.00
C194   C     0.84895   0.11330   0.45906   0.00000  Uiso   1.00
C195   C     0.87170   0.09427   0.47890   0.00000  Uiso   1.00
C196   C     0.94810   0.17365   0.24093   0.00000  Uiso   1.00
C197   C     0.86917   0.10784   0.01956   0.00000  Uiso   1.00
C198   C     0.83881   0.13540   0.04134   0.00000  Uiso   1.00
C199   C     0.89608   0.09446   0.03884   0.00000  Uiso   1.00
C200   C     0.89218   0.10663   0.07941   0.00000  Uiso   1.00
C201   C     0.83958   0.15280   0.08035   0.00000  Uiso   1.00
C202   C     0.99472   0.17626   0.23679   0.00000  Uiso   1.00
C203   C     0.67394   0.15732   0.26271   0.00000  Uiso   1.00
C204   C     0.75716   0.20578   0.42224   0.00000  Uiso   1.00
C205   C     0.84814   0.32287   0.23894   0.00000  Uiso   1.00
C206   C     0.81729   0.01232   0.26240   0.00000  Uiso   1.00
C207   C     0.82251   0.05630   0.25892   0.00000  Uiso   1.00
C208   C     0.84368   0.27784   0.24142   0.00000  Uiso   1.00
C209   C     0.85493   0.14531   0.14371   0.00000  Uiso   1.00
C210   C     0.81198   0.18793   0.35663   0.00000  Uiso   1.00
C211   C     0.79806   0.19298   0.40120   0.00000  Uiso   1.00
C212   C     0.86379   0.13605   0.10026   0.00000  Uiso   1.00
C213   C     0.73985   0.20174   0.46340   0.00000  Uiso   1.00
C214   C     0.69621   0.19926   0.20432   0.00000  Uiso   1.00
C215   C     0.82323   0.18040   0.42278   0.00000  Uiso   1.00
C216   C     0.68145   0.22210   0.17639   0.00000  Uiso   1.00
C217   C     0.71993   0.24426   0.14726   0.00000  Uiso   1.00
C218   C     0.91799   0.08727   0.10001   0.00000  Uiso   1.00
C219   C     0.95800   0.11661   0.10450   0.00000  Uiso   1.00
C220   C     0.97911   0.10059   0.13184   0.00000  Uiso   1.00
C221   C     0.87246   0.18958   0.40779   0.00000  Uiso   1.00
C222   C     0.89077   0.22060   0.43751   0.00000  Uiso   1.00
C223   C     0.93946   0.23115   0.42131   0.00000  Uiso   1.00
C224   C     0.80242   0.16781   0.46165   0.00000  Uiso   1.00
C225   C     0.76214   0.18214   0.48332   0.00000  Uiso   1.00
C226   C     0.82188   0.14377   0.48054   0.00000  Uiso   1.00
C227   C     0.81006   0.14681   0.02249   0.00000  Uiso   1.00
C228   C     0.76856   0.15821   0.04381   0.00000  Uiso   1.00
C229   C     0.74497   0.17651   0.02448   0.00000  Uiso   1.00
H230   H     0.92019   0.07415   0.02277   0.00000  Uiso   1.00
H231   H     0.99392   0.12551   0.30848   0.00000  Uiso   1.00
H232   H     0.90364   0.32193   0.19818   0.00000  Uiso   1.00
H233   H     0.76194   0.01686   0.30214   0.00000  Uiso   1.00
H234   H     0.82675   0.20039   0.12118   0.00000  Uiso   1.00
H235   H     0.95617   0.09833   0.16207   0.00000  Uiso   1.00
H236   H     0.98959   0.06949   0.11923   0.00000  Uiso   1.00
H237   H     0.67436   0.12247   0.13487   0.00000  Uiso   1.00
H238   H     0.98158   0.11903   0.07459   0.00000  Uiso   1.00
H239   H     0.94938   0.14829   0.11715   0.00000  Uiso   1.00
H240   H     0.89716   0.07885   0.12967   0.00000  Uiso   1.00
H241   H     0.69947   0.18785   0.07427   0.00000  Uiso   1.00
H242   H     0.92859   0.05763   0.08268   0.00000  Uiso   1.00
H243   H     0.89400   0.04191   0.47583   0.00000  Uiso   1.00
H244   H     0.68985   0.23069   0.46758   0.00000  Uiso   1.00
H245   H     0.75118   0.24730   0.39190   0.00000  Uiso   1.00
H246   H     0.95579   0.20257   0.41592   0.00000  Uiso   1.00
H247   H     0.94743   0.24560   0.39294   0.00000  Uiso   1.00
H248   H     0.95171   0.25351   0.44341   0.00000  Uiso   1.00
H249   H     0.87523   0.24973   0.44330   0.00000  Uiso   1.00
H250   H     0.88417   0.20744   0.46634   0.00000  Uiso   1.00
H251   H     0.88878   0.16113   0.40094   0.00000  Uiso   1.00
H252   H     0.73821   0.26803   0.16377   0.00000  Uiso   1.00
H253   H     0.88208   0.20412   0.37937   0.00000  Uiso   1.00
H254   H     0.75956   0.12236   0.08580   0.00000  Uiso   1.00
H255   H     0.86807   0.07789   0.40871   0.00000  Uiso   1.00
H256   H     0.74170   0.22155   0.12874   0.00000  Uiso   1.00
H257   H     0.70840   0.26006   0.12718   0.00000  Uiso   1.00
H258   H     0.99686   0.19947   0.15864   0.00000  Uiso   1.00
H259   H     0.99399   0.24602   0.19420   0.00000  Uiso   1.00
H260   H     0.71611   0.22281   0.21950   0.00000  Uiso   1.00
H261   H     0.71752   0.17625   0.18532   0.00000  Uiso   1.00
O262   O     0.83333   0.16667   0.25000   0.00000  Uiso   1.00
O263   O     0.82360   0.12393   0.16625   0.00000  Uiso   1.00
O264   O     0.79354   0.20646   0.33749   0.00000  Uiso   1.00
O265   O     0.87755   0.17493   0.15877   0.00000  Uiso   1.00
O266   O     0.83865   0.16135   0.33749   0.00000  Uiso   1.00
O267   O     0.70488   0.18865   0.04522   0.00000  Uiso   1.00
O268   O     0.97796   0.13670   0.29307   0.00000  Uiso   1.00
O269   O     0.88373   0.00925   0.21279   0.00000  Uiso   1.00
O270   O     0.78016   0.32788   0.28811   0.00000  Uiso   1.00
O271   O     0.81779   0.18709   0.09742   0.00000  Uiso   1.00
O272   O     0.89626   0.06321   0.45774   0.00000  Uiso   1.00
O273   O     0.84515   0.08101   0.27821   0.00000  Uiso   1.00
O274   O     0.70077   0.21593   0.48451   0.00000  Uiso   1.00
O275   O     0.73327   0.22216   0.40312   0.00000  Uiso   1.00
O276   O     0.74795   0.14724   0.08189   0.00000  Uiso   1.00
O277   O     0.84746   0.09862   0.42056   0.00000  Uiso   1.00
O278   O     0.81247   0.26136   0.26767   0.00000  Uiso   1.00
O279   O     0.74119   0.13251   0.23607   0.00000  Uiso   1.00
O280   O     0.93452   0.19179   0.21806   0.00000  Uiso   1.00
O281   O     0.73656   0.18960   0.27820   0.00000  Uiso   1.00
O282   O     0.92106   0.15277   0.26768   0.00000  Uiso   1.00
O283   O     0.80467   0.06903   0.23607   0.00000  Uiso   1.00
O284   O     0.87104   0.25527   0.21806   0.00000  Uiso   1.00
Zn285  Zn    0.85910   0.14090   0.28278   0.00000  Uiso   1.00
Zn286  Zn    0.80125   0.12378   0.22258   0.00000  Uiso   1.00
Zn287  Zn    0.87833   0.19664   0.21188   0.00000  Uiso   1.00
Zn288  Zn    0.79465   0.20535   0.28277   0.00000  Uiso   1.00
C289   C     0.05256   0.49277   0.25939   0.00000  Uiso   1.00
C290   C     0.18228   0.44664   0.45906   0.00000  Uiso   1.00
C291   C     0.20503   0.42760   0.47890   0.00000  Uiso   1.00
C292   C     0.28143   0.50698   0.24093   0.00000  Uiso   1.00
C293   C     0.20250   0.44117   0.01956   0.00000  Uiso   1.00
C294   C     0.17214   0.46873   0.04134   0.00000  Uiso   1.00
C295   C     0.22941   0.42779   0.03884   0.00000  Uiso   1.00
C296   C     0.22551   0.43997   0.07941   0.00000  Uiso   1.00
C297   C     0.17292   0.48614   0.08035   0.00000  Uiso   1.00
C298   C     0.32805   0.50959   0.23679   0.00000  Uiso   1.00
C299   C     0.00728   0.49065   0.26271   0.00000  Uiso   1.00
C300   C     0.09049   0.53912   0.42224   0.00000  Uiso   1.00
C301   C     0.18147   0.65620   0.23894   0.00000  Uiso   1.00
C302   C     0.15062   0.34565   0.26240   0.00000  Uiso   1.00
C303   C     0.15584   0.38963   0.25892   0.00000  Uiso   1.00
C304   C     0.17701   0.61118   0.24142   0.00000  Uiso   1.00
C305   C     0.18826   0.47864   0.14371   0.00000  Uiso   1.00
C306   C     0.14531   0.52126   0.35663   0.00000  Uiso   1.00
C307   C     0.13139   0.52632   0.40120   0.00000  Uiso   1.00
C308   C     0.19712   0.46939   0.10026   0.00000  Uiso   1.00
C309   C     0.07319   0.53507   0.46340   0.00000  Uiso   1.00
C310   C     0.02954   0.53259   0.20432   0.00000  Uiso   1.00
C311   C     0.15657   0.51374   0.42278   0.00000  Uiso   1.00
C312   C     0.01479   0.55543   0.17639   0.00000  Uiso   1.00
C313   C     0.05327   0.57760   0.14726   0.00000  Uiso   1.00
C314   C     0.25133   0.42061   0.10001   0.00000  Uiso   1.00
C315   C     0.29134   0.44995   0.10450   0.00000  Uiso   1.00
C316   C     0.31244   0.43392   0.13184   0.00000  Uiso   1.00
C317   C     0.20580   0.52291   0.40779   0.00000  Uiso   1.00
C318   C     0.22410   0.55393   0.43751   0.00000  Uiso   1.00
C319   C     0.27280   0.56448   0.42131   0.00000  Uiso   1.00
C320   C     0.13575   0.50115   0.46165   0.00000  Uiso   1.00
C321   C     0.09548   0.51547   0.48332   0.00000  Uiso   1.00
C322   C     0.15521   0.47710   0.48054   0.00000  Uiso   1.00
C323   C     0.14340   0.48014   0.02249   0.00000  Uiso   1.00
C324   C     0.10190   0.49154   0.04381   0.00000  Uiso   1.00
C325   C     0.07830   0.50984   0.02448   0.00000  Uiso   1.00
H326   H     0.25352   0.40748   0.02277   0.00000  Uiso   1.00
H327   H     0.32725   0.45885   0.30848   0.00000  Uiso   1.00
H328   H     0.23697   0.65526   0.19818   0.00000  Uiso   1.00
H329   H     0.09527   0.35019   0.30214   0.00000  Uiso   1.00
H330   H     0.16008   0.53372   0.12118   0.00000  Uiso   1.00
H331   H     0.28950   0.43166   0.16207   0.00000  Uiso   1.00
H332   H     0.32292   0.40282   0.11923   0.00000  Uiso   1.00
H333   H     0.00770   0.45580   0.13487   0.00000  Uiso   1.00
H334   H     0.31491   0.45236   0.07459   0.00000  Uiso   1.00
H335   H     0.28271   0.48162   0.11715   0.00000  Uiso   1.00
H336   H     0.23049   0.41218   0.12967   0.00000  Uiso   1.00
H337   H     0.03280   0.52118   0.07427   0.00000  Uiso   1.00
H338   H     0.26192   0.39096   0.08268   0.00000  Uiso   1.00
H339   H     0.22733   0.37524   0.47583   0.00000  Uiso   1.00
H340   H     0.02318   0.56403   0.46758   0.00000  Uiso   1.00
H341   H     0.08452   0.58064   0.39190   0.00000  Uiso   1.00
H342   H     0.28913   0.53590   0.41592   0.00000  Uiso   1.00
H343   H     0.28076   0.57893   0.39294   0.00000  Uiso   1.00
H344   H     0.28504   0.58684   0.44341   0.00000  Uiso   1.00
H345   H     0.20857   0.58307   0.44330   0.00000  Uiso   1.00
H346   H     0.21751   0.54077   0.46634   0.00000  Uiso   1.00
H347   H     0.22212   0.49446   0.40094   0.00000  Uiso   1.00
H348   H     0.07155   0.60136   0.16377   0.00000  Uiso   1.00
H349   H     0.21541   0.53746   0.37937   0.00000  Uiso   1.00
H350   H     0.09289   0.45569   0.08580   0.00000  Uiso   1.00
H351   H     0.20140   0.41122   0.40871   0.00000  Uiso   1.00
H352   H     0.07503   0.55488   0.12874   0.00000  Uiso   1.00
H353   H     0.04173   0.59339   0.12718   0.00000  Uiso   1.00
H354   H     0.33020   0.53281   0.15864   0.00000  Uiso   1.00
H355   H     0.32732   0.57935   0.19420   0.00000  Uiso   1.00
H356   H     0.04944   0.55614   0.21950   0.00000  Uiso   1.00
H357   H     0.05085   0.50958   0.18532   0.00000  Uiso   1.00
O358   O     0.16667   0.50000   0.25000   0.00000  Uiso   1.00
O359   O     0.15693   0.45726   0.16625   0.00000  Uiso   1.00
O360   O     0.12687   0.53979   0.33749   0.00000  Uiso   1.00
O361   O     0.21088   0.50826   0.15877   0.00000  Uiso   1.00
O362   O     0.17198   0.49468   0.33749   0.00000  Uiso   1.00
O363   O     0.03821   0.52198   0.04522   0.00000  Uiso   1.00
O364   O     0.31129   0.47003   0.29307   0.00000  Uiso   1.00
O365   O     0.21707   0.34259   0.21279   0.00000  Uiso   1.00
O366   O     0.11349   0.66122   0.28811   0.00000  Uiso   1.00
O367   O     0.15112   0.52042   0.09742   0.00000  Uiso   1.00
O368   O     0.22959   0.39654   0.45774   0.00000  Uiso   1.00
O369   O     0.17849   0.41434   0.27821   0.00000  Uiso   1.00
O370   O     0.03410   0.54927   0.48451   0.00000  Uiso   1.00
O371   O     0.06661   0.55549   0.40312   0.00000  Uiso   1.00
O372   O     0.08128   0.48058   0.08189   0.00000  Uiso   1.00
O373   O     0.18079   0.43195   0.42056   0.00000  Uiso   1.00
O374   O     0.14581   0.59469   0.26767   0.00000  Uiso   1.00
O375   O     0.07452   0.46584   0.23607   0.00000  Uiso   1.00
O376   O     0.26785   0.52512   0.21806   0.00000  Uiso   1.00
O377   O     0.06990   0.52293   0.27820   0.00000  Uiso   1.00
O378   O     0.25440   0.48610   0.26768   0.00000  Uiso   1.00
O379   O     0.13800   0.40236   0.23607   0.00000  Uiso   1.00
O380   O     0.20437   0.58860   0.21806   0.00000  Uiso   1.00
Zn381  Zn    0.19244   0.47423   0.28278   0.00000  Uiso   1.00
Zn382  Zn    0.13459   0.45711   0.22258   0.00000  Uiso   1.00
Zn383  Zn    0.21166   0.52997   0.21188   0.00000  Uiso   1.00
Zn384  Zn    0.12798   0.53868   0.28277   0.00000  Uiso   1.00
C385   C     0.38590   0.49277   0.25939   0.00000  Uiso   1.00
C386   C     0.51561   0.44664   0.45906   0.00000  Uiso   1.00
C387   C     0.53837   0.42760   0.47890   0.00000  Uiso   1.00
C388   C     0.61476   0.50698   0.24093   0.00000  Uiso   1.00
C389   C     0.53583   0.44117   0.01956   0.00000  Uiso   1.00
C390   C     0.50547   0.46873   0.04134   0.00000  Uiso   1.00
C391   C     0.56275   0.42779   0.03884   0.00000  Uiso   1.00
C392   C     0.55885   0.43997   0.07941   0.00000  Uiso   1.00
C393   C     0.50625   0.48614   0.08035   0.00000  Uiso   1.00
C394   C     0.66138   0.50959   0.23679   0.00000  Uiso   1.00
C395   C     0.34061   0.49065   0.26271   0.00000  Uiso   1.00
C396   C     0.42383   0.53912   0.42224   0.00000  Uiso   1.00
C397   C     0.51480   0.65620   0.23894   0.00000  Uiso   1.00
C398   C     0.48396   0.34565   0.26240   0.00000  Uiso   1.00
C399   C     0.48918   0.38963   0.25892   0.00000  Uiso   1.00
C400   C     0.51034   0.61118   0.24142   0.00000  Uiso   1.00
C401   C     0.52160   0.47864   0.14371   0.00000  Uiso   1.00
C402   C     0.47864   0.52126   0.35663   0.00000  Uiso   1.00
C403   C     0.46473   0.52632   0.40120   0.00000  Uiso   1.00
C404   C     0.53045   0.46939   0.10026   0.00000  Uiso   1.00
C405   C     0.40652   0.53507   0.46340   0.00000  Uiso   1.00
C406   C     0.36287   0.53259   0.20432   0.00000  Uiso   1.00
C407   C     0.48990   0.51374   0.42278   0.00000  Uiso   1.00
C408   C     0.34812   0.55543   0.17639   0.00000  Uiso   1.00
C409   C     0.38660   0.57760   0.14726   0.00000  Uiso   1.00
C410   C     0.58466   0.42061   0.10001   0.00000  Uiso   1.00
C411   C     0.62467   0.44995   0.10450   0.00000  Uiso   1.00
C412   C     0.64578   0.43392   0.13184   0.00000  Uiso   1.00
C413   C     0.53913   0.52291   0.40779   0.00000  Uiso   1.00
C414   C     0.55744   0.55393   0.43751   0.00000  Uiso   1.00
C415   C     0.60613   0.56448   0.42131   0.00000  Uiso   1.00
C416   C     0.46908   0.50115   0.46165   0.00000  Uiso   1.00
C417   C     0.42881   0.51547   0.48332   0.00000  Uiso   1.00
C418   C     0.48854   0.47710   0.48054   0.00000  Uiso   1.00
C419   C     0.47673   0.48014   0.02249   0.00000  Uiso   1.00
C420   C     0.43523   0.49154   0.04381   0.00000  Uiso   1.00
C421   C     0.41164   0.50984   0.02448   0.00000  Uiso   1.00
H422   H     0.58686   0.40748   0.02277   0.00000  Uiso   1.00
H423   H     0.66059   0.45885   0.30848   0.00000  Uiso   1.00
H424   H     0.57030   0.65526   0.19818   0.00000  Uiso   1.00
H425   H     0.42861   0.35019   0.30214   0.00000  Uiso   1.00
H426   H     0.49341   0.53372   0.12118   0.00000  Uiso   1.00
H427   H     0.62284   0.43166   0.16207   0.00000  Uiso   1.00
H428   H     0.65625   0.40282   0.11923   0.00000  Uiso   1.00
H429   H     0.34103   0.45580   0.13487   0.00000  Uiso   1.00
H430   H     0.64825   0.45236   0.07459   0.00000  Uiso   1.00
H431   H     0.61605   0.48162   0.11715   0.00000  Uiso   1.00
H432   H     0.56383   0.41218   0.12967   0.00000  Uiso   1.00
H433   H     0.36613   0.52118   0.07427   0.00000  Uiso   1.00
H434   H     0.59525   0.39096   0.08268   0.00000  Uiso   1.00
H435   H     0.56067   0.37524   0.47583   0.00000  Uiso   1.00
H436   H     0.35651   0.56403   0.46758   0.00000  Uiso   1.00
H437   H     0.41785   0.58064   0.39190   0.00000  Uiso   1.00
H438   H     0.62246   0.53590   0.41592   0.00000  Uiso   1.00
H439   H     0.61410   0.57893   0.39294   0.00000  Uiso   1.00
H440   H     0.61837   0.58684   0.44341   0.00000  Uiso   1.00
H441   H     0.54190   0.58307   0.44330   0.00000  Uiso   1.00
H442   H     0.55084   0.54077   0.46634   0.00000  Uiso   1.00
H443   H     0.55545   0.49446   0.40094   0.00000  Uiso   1.00
H444   H     0.40488   0.60136   0.16377   0.00000  Uiso   1.00
H445   H     0.54875   0.53746   0.37937   0.00000  Uiso   1.00
H446   H     0.42622   0.45569   0.08580   0.00000  Uiso   1.00
H447   H     0.53474   0.41122   0.40871   0.00000  Uiso   1.00
H448   H     0.40837   0.55488   0.12874   0.00000  Uiso   1.00
H449   H     0.37506   0.59339   0.12718   0.00000  Uiso   1.00
H450   H     0.66353   0.53281   0.15864   0.00000  Uiso   1.00
H451   H     0.66066   0.57935   0.19420   0.00000  Uiso   1.00
H452   H     0.38277   0.55614   0.21950   0.00000  Uiso   1.00
H453   H     0.38418   0.50958   0.18532   0.00000  Uiso   1.00
O454   O     0.50000   0.50000   0.25000   0.00000  Uiso   1.00
O455   O     0.49027   0.45726   0.16625   0.00000  Uiso   1.00
O456   O     0.46020   0.53979   0.33749   0.00000  Uiso   1.00
O457   O     0.54421   0.50826   0.15877   0.00000  Uiso   1.00
O458   O     0.50532   0.49468   0.33749   0.00000  Uiso   1.00
O459   O     0.37154   0.52198   0.04522   0.00000  Uiso   1.00
O460   O     0.64462   0.47003   0.29307   0.00000  Uiso   1.00
O461   O     0.55040   0.34259   0.21279   0.00000  Uiso   1.00
O462   O     0.44682   0.66122   0.28811   0.00000  Uiso   1.00
O463   O     0.48445   0.52042   0.09742   0.00000  Uiso   1.00
O464   O     0.56293   0.39654   0.45774   0.00000  Uiso   1.00
O465   O     0.51182   0.41434   0.27821   0.00000  Uiso   1.00
O466   O     0.36744   0.54927   0.48451   0.00000  Uiso   1.00
O467   O     0.39994   0.55549   0.40312   0.00000  Uiso   1.00
O468   O     0.41462   0.48058   0.08189   0.00000  Uiso   1.00
O469   O     0.51412   0.43195   0.42056   0.00000  Uiso   1.00
O470   O     0.47914   0.59469   0.26767   0.00000  Uiso   1.00
O471   O     0.40785   0.46584   0.23607   0.00000  Uiso   1.00
O472   O     0.60119   0.52512   0.21806   0.00000  Uiso   1.00
O473   O     0.40323   0.52293   0.27820   0.00000  Uiso   1.00
O474   O     0.58773   0.48610   0.26768   0.00000  Uiso   1.00
O475   O     0.47133   0.40236   0.23607   0.00000  Uiso   1.00
O476   O     0.53771   0.58860   0.21806   0.00000  Uiso   1.00
Zn477  Zn    0.52577   0.47423   0.28278   0.00000  Uiso   1.00
Zn478  Zn    0.46792   0.45711   0.22258   0.00000  Uiso   1.00
Zn479  Zn    0.54500   0.52997   0.21188   0.00000  Uiso   1.00
Zn480  Zn    0.46131   0.53868   0.28277   0.00000  Uiso   1.00
C481   C     0.71923   0.49277   0.25939   0.00000  Uiso   1.00
C482   C     0.84895   0.44664   0.45906   0.00000  Uiso   1.00
C483   C     0.87170   0.42760   0.47890   0.00000  Uiso   1.00
C484   C     0.94810   0.50698   0.24093   0.00000  Uiso   1.00
C485   C     0.86917   0.44117   0.01956   0.00000  Uiso   1.00
C486   C     0.83881   0.46873   0.04134   0.00000  Uiso   1.00
C487   C     0.89608   0.42779   0.03884   0.00000  Uiso   1.00
C488   C     0.89218   0.43997   0.07941   0.00000  Uiso   1.00
C489   C     0.83958   0.48614   0.08035   0.00000  Uiso   1.00
C490   C     0.99472   0.50959   0.23679   0.00000  Uiso   1.00
C491   C     0.67394   0.49065   0.26271   0.00000  Uiso   1.00
C492   C     0.75716   0.53912   0.42224   0.00000  Uiso   1.00
C493   C     0.84814   0.65620   0.23894   0.00000  Uiso   1.00
C494   C     0.81729   0.34565   0.26240   0.00000  Uiso   1.00
C495   C     0.82251   0.38963   0.25892   0.00000  Uiso   1.00
C496   C     0.84368   0.61118   0.24142   0.00000  Uiso   1.00
C497   C     0.85493   0.47864   0.14371   0.00000  Uiso   1.00
C498   C     0.81198   0.52126   0.35663   0.00000  Uiso   1.00
C499   C     0.79806   0.52632   0.40120   0.00000  Uiso   1.00
C500   C     0.86379   0.46939   0.10026   0.00000  Uiso   1.00
C501   C     0.73985   0.53507   0.46340   0.00000  Uiso   1.00
C502   C     0.69621   0.53259   0.20432   0.00000  Uiso   1.00
C503   C     0.82323   0.51374   0.42278   0.00000  Uiso   1.00
C504   C     0.68145   0.55543   0.17639   0.00000  Uiso   1.00
C505   C     0.71993   0.57760   0.14726   0.00000  Uiso   1.00
C506   C     0.91799   0.42061   0.10001   0.00000  Uiso   1.00
C507   C     0.95800   0.44995   0.10450   0.00000  Uiso   1.00
C508   C     0.97911   0.43392   0.13184   0.00000  Uiso   1.00
C509   C     0.87246   0.52291   0.40779   0.00000  Uiso   1.00
C510   C     0.89077   0.55393   0.43751   0.00000  Uiso   1.00
C511   C     0.93946   0.56448   0.42131   0.00000  Uiso   1.00
C512   C     0.80242   0.50115   0.46165   0.00000  Uiso   1.00
C513   C     0.76214   0.51547   0.48332   0.00000  Uiso   1.00
C514   C     0.82188   0.47710   0.48054   0.00000  Uiso   1.00
C515   C     0.81006   0.48014   0.02249   0.00000  Uiso   1.00
C516   C     0.76856   0.49154   0.04381   0.00000  Uiso   1.00
C517   C     0.74497   0.50984   0.02448   0.00000  Uiso   1.00
H518   H     0.92019   0.40748   0.02277   0.00000  Uiso   1.00
H519   H     0.99392   0.45885   0.30848   0.00000  Uiso   1.00
H520   H     0.90364   0.65526   0.19818   0.00000  Uiso   1.00
H521   H     0.76194   0.35019   0.30214   0.00000  Uiso   1.00
H522   H     0.82675   0.53372   0.12118   0.00000  Uiso   1.00
H523   H     0.95617   0.43166   0.16207   0.00000  Uiso   1.00
H524   H     0.98959   0.40282   0.11923   0.00000  Uiso   1.00
H525   H     0.67436   0.45580   0.13487   0.00000  Uiso   1.00
H526   H     0.98158   0.45236   0.07459   0.00000  Uiso   1.00
H527   H     0.94938   0.48162   0.11715   0.00000  Uiso   1.00
H528   H     0.89716   0.41218   0.12967   0.00000  Uiso   1.00
H529   H     0.69947   0.52118   0.07427   0.00000  Uiso   1.00
H530   H     0.92859   0.39096   0.08268   0.00000  Uiso   1.00
H531   H     0.89400   0.37524   0.47583   0.00000  Uiso   1.00
H532   H     0.68985   0.56403   0.46758   0.00000  Uiso   1.00
H533   H     0.75118   0.58064   0.39190   0.00000  Uiso   1.00
H534   H     0.95579   0.53590   0.41592   0.00000  Uiso   1.00
H535   H     0.94743   0.57893   0.39294   0.00000  Uiso   1.00
H536   H     0.95171   0.58684   0.44341   0.00000  Uiso   1.00
H537   H     0.87523   0.58307   0.44330   0.00000  Uiso   1.00
H538   H     0.88417   0.54077   0.46634   0.00000  Uiso   1.00
H539   H     0.88878   0.49446   0.40094   0.00000  Uiso   1.00
H540   H     0.73821   0.60136   0.16377   0.00000  Uiso   1.00
H541   H     0.88208   0.53746   0.37937   0.00000  Uiso   1.00
H542   H     0.75956   0.45569   0.08580   0.00000  Uiso   1.00
H543   H     0.86807   0.41122   0.40871   0.00000  Uiso   1.00
H544   H     0.74170   0.55488   0.12874   0.00000  Uiso   1.00
H545   H     0.70840   0.59339   0.12718   0.00000  Uiso   1.00
H546   H     0.99686   0.53281   0.15864   0.00000  Uiso   1.00
H547   H     0.99399   0.57935   0.19420   0.00000  Uiso   1.00
H548   H     0.71611   0.55614   0.21950   0.00000  Uiso   1.00
H549   H     0.71752   0.50958   0.18532   0.00000  Uiso   1.00
O550   O     0.83333   0.50000   0.25000   0.00000  Uiso   1.00
O551   O     0.82360   0.45726   0.16625   0.00000  Uiso   1.00
O552   O     0.79354   0.53979   0.33749   0.00000  Uiso   1.00
O553   O     0.87755   0.50826   0.15877   0.00000  Uiso   1.00
O554   O     0.83865   0.49468   0.33749   0.00000  Uiso   1.00
O555   O     0.70488   0.52198   0.04522   0.00000  Uiso   1.00
O556   O     0.97796   0.47003   0.29307   0.00000  Uiso   1.00
O557   O     0.88373   0.34259   0.21279   0.00000  Uiso   1.00
O558   O     0.78016   0.66122   0.28811   0.00000  Uiso   1.00
O559   O     0.81779   0.52042   0.09742   0.00000  Uiso   1.00
O560   O     0.89626   0.39654   0.45774   0.00000  Uiso   1.00
O561   O     0.84515   0.41434   0.27821   0.00000  Uiso   1.00
O562   O     0.70077   0.54927   0.48451   0.00000  Uiso   1.00
O563   O     0.73327   0.55549   0.40312   0.00000  Uiso   1.00
O564   O     0.74795   0.48058   0.08189   0.00000  Uiso   1.00
O565   O     0.84746   0.43195   0.42056   0.00000  Uiso   1.00
O566   O     0.81247   0.59469   0.26767   0.00000  Uiso   1.00
O567   O     0.74119   0.46584   0.23607   0.00000  Uiso   1.00
O568   O     0.93452   0.52512   0.21806   0.00000  Uiso   1.00
O569   O     0.73656   0.52293   0.27820   0.00000  Uiso   1.00
O570   O     0.92106   0.48610   0.26768   0.00000  Uiso   1.00
O571   O     0.80467   0.40236   0.23607   0.00000  Uiso   1.00
O572   O     0.87104   0.58860   0.21806   0.00000  Uiso   1.00
Zn573  Zn    0.85910   0.47423   0.28278   0.00000  Uiso   1.00
Zn574  Zn    0.80125   0.45711   0.22258   0.00000  Uiso   1.00
Zn575  Zn    0.87833   0.52997   0.21188   0.00000  Uiso   1.00
Zn576  Zn    0.79465   0.53868   0.28277   0.00000  Uiso   1.00
C577   C     0.05256   0.82611   0.25939   0.00000  Uiso   1.00
C578   C     0.18228   0.77997   0.45906   0.00000  Uiso   1.00
C579   C     0.20503   0.76093   0.47890   0.00000  Uiso   1.00
C580   C     0.28143   0.84032   0.24093   0.00000  Uiso   1.00
C581   C     0.20250   0.77450   0.01956   0.00000  Uiso   1.00
C582   C     0.17214   0.80206   0.04134   0.00000  Uiso   1.00
C583   C     0.22941   0.76112   0.03884   0.00000  Uiso   1.00
C584   C     0.22551   0.77330   0.07941   0.00000  Uiso   1.00
C585   C     0.17292   0.81947   0.08035   0.00000  Uiso   1.00
C586   C     0.32805   0.84292   0.23679   0.00000  Uiso   1.00
C587   C     0.00728   0.82398   0.26271   0.00000  Uiso   1.00
C588   C     0.09049   0.87245   0.42224   0.00000  Uiso   1.00
C589   C     0.18147   0.98954   0.23894   0.00000  Uiso   1.00
C590   C     0.15062   0.67899   0.26240   0.00000  Uiso   1.00
C591   C     0.15584   0.72296   0.25892   0.00000  Uiso   1.00
C592   C     0.17701   0.94451   0.24142   0.00000  Uiso   1.00
C593   C     0.18826   0.81197   0.14371   0.00000  Uiso   1.00
C594   C     0.14531   0.85460   0.35663   0.00000  Uiso   1.00
C595   C     0.13139   0.85965   0.40120   0.00000  Uiso   1.00
C596   C     0.19712   0.80272   0.10026   0.00000  Uiso   1.00
C597   C     0.07319   0.86841   0.46340   0.00000  Uiso   1.00
C598   C     0.02954   0.86593   0.20432   0.00000  Uiso   1.00
C599   C     0.15657   0.84707   0.42278   0.00000  Uiso   1.00
C600   C     0.01479   0.88877   0.17639   0.00000  Uiso   1.00
C601   C     0.05327   0.91093   0.14726   0.00000  Uiso   1.00
C602   C     0.25133   0.75394   0.10001   0.00000  Uiso   1.00
C603   C     0.29134   0.78328   0.10450   0.00000  Uiso   1.00
C604   C     0.31244   0.76726   0.13184   0.00000  Uiso   1.00
C605   C     0.20580   0.85624   0.40779   0.00000  Uiso   1.00
C606   C     0.22410   0.88726   0.43751   0.00000  Uiso   1.00
C607   C     0.27280   0.89782   0.42131   0.00000  Uiso   1.00
C608   C     0.13575   0.83448   0.46165   0.00000  Uiso   1.00
C609   C     0.09548   0.84881   0.48332   0.00000  Uiso   1.00
C610   C     0.15521   0.81043   0.48054   0.00000  Uiso   1.00
C611   C     0.14340   0.81348   0.02249   0.00000  Uiso   1.00
C612   C     0.10190   0.82488   0.04381   0.00000  Uiso   1.00
C613   C     0.07830   0.84318   0.02448   0.00000  Uiso   1.00
H614   H     0.25352   0.74081   0.02277   0.00000  Uiso   1.00
H615   H     0.32725   0.79218   0.30848   0.00000  Uiso   1.00
H616   H     0.23697   0.98859   0.19818   0.00000  Uiso   1.00
H617   H     0.09527   0.68353   0.30214   0.00000  Uiso   1.00
H618   H     0.16008   0.86705   0.12118   0.00000  Uiso   1.00
H619   H     0.28950   0.76500   0.16207   0.00000  Uiso   1.00
H620   H     0.32292   0.73616   0.11923   0.00000  Uiso   1.00
H621   H     0.00770   0.78913   0.13487   0.00000  Uiso   1.00
H622   H     0.31491   0.78569   0.07459   0.00000  Uiso   1.00
H623   H     0.28271   0.81496   0.11715   0.00000  Uiso   1.00
H624   H     0.23049   0.74552   0.12967   0.00000  Uiso   1.00
H625   H     0.03280   0.85451   0.07427   0.00000  Uiso   1.00
H626   H     0.26192   0.72430   0.08268   0.00000  Uiso   1.00
H627   H     0.22733   0.70858   0.47583   0.00000  Uiso   1.00
H628   H     0.02318   0.89736   0.46758   0.00000  Uiso   1.00
H629   H     0.08452   0.91397   0.39190   0.00000  Uiso   1.00
H630   H     0.28913   0.86923   0.41592   0.00000  Uiso   1.00
H631   H     0.28076   0.91226   0.39294   0.00000  Uiso   1.00
H632   H     0.28504   0.92018   0.44341   0.00000  Uiso   1.00
H633   H     0.20857   0.91640   0.44330   0.00000  Uiso   1.00
H634   H     0.21751   0.87411   0.46634   0.00000  Uiso   1.00
H635   H     0.22212   0.82779   0.40094   0.00000  Uiso   1.00
H636   H     0.07155   0.93470   0.16377   0.00000  Uiso   1.00
H637   H     0.21541   0.87079   0.37937   0.00000  Uiso   1.00
H638   H     0.09289   0.78902   0.08580   0.00000  Uiso   1.00
H639   H     0.20140   0.74456   0.40871   0.00000  Uiso   1.00
H640   H     0.07503   0.88821   0.12874   0.00000  Uiso   1.00
H641   H     0.04173   0.92672   0.12718   0.00000  Uiso   1.00
H642   H     0.33020   0.86614   0.15864   0.00000  Uiso   1.00
H643   H     0.32732   0.91268   0.19420   0.00000  Uiso   1.00
H644   H     0.04944   0.88947   0.21950   0.00000  Uiso   1.00
H645   H     0.05085   0.84291   0.18532   0.00000  Uiso   1.00
O646   O     0.16667   0.83333   0.25000   0.00000  Uiso   1.00
O647   O     0.15693   0.79060   0.16625   0.00000  Uiso   1.00
O648   O     0.12687   0.87313   0.33749   0.00000  Uiso   1.00
O649   O     0.21088   0.84159   0.15877   0.00000  Uiso   1.00
O650   O     0.17198   0.82802   0.33749   0.00000  Uiso   1.00
O651   O     0.03821   0.85531   0.04522   0.00000  Uiso   1.00
O652   O     0.31129   0.80337   0.29307   0.00000  Uiso   1.00
O653   O     0.21707   0.67592   0.21279   0.00000  Uiso   1.00
O654   O     0.11349   0.99455   0.28811   0.00000  Uiso   1.00
O655   O     0.15112   0.85375   0.09742   0.00000  Uiso   1.00
O656   O     0.22959   0.72987   0.45774   0.00000  Uiso   1.00
O657   O     0.17849   0.74768   0.27821   0.00000  Uiso   1.00
O658   O     0.03410   0.88260   0.48451   0.00000  Uiso   1.00
O659   O     0.06661   0.88883   0.40312   0.00000  Uiso   1.00
O660   O     0.08128   0.81391   0.08189   0.00000  Uiso   1.00
O661   O     0.18079   0.76528   0.42056   0.00000  Uiso   1.00
O662   O     0.14581   0.92803   0.26767   0.00000  Uiso   1.00
O663   O     0.07452   0.79917   0.23607   0.00000  Uiso   1.00
O664   O     0.26785   0.85845   0.21806   0.00000  Uiso   1.00
O665   O     0.06990   0.85627   0.27820   0.00000  Uiso   1.00
O666   O     0.25440   0.81944   0.26768   0.00000  Uiso   1.00
O667   O     0.13800   0.73570   0.23607   0.00000  Uiso   1.00
O668   O     0.20437   0.92193   0.21806   0.00000  Uiso   1.00
Zn669  Zn    0.19244   0.80756   0.28278   0.00000  Uiso   1.00
Zn670  Zn    0.13459   0.79044   0.22258   0.00000  Uiso   1.00
Zn671  Zn    0.21166   0.86331   0.21188   0.00000  Uiso   1.00
Zn672  Zn    0.12798   0.87202   0.28277   0.00000  Uiso   1.00
C673   C     0.38590   0.82611   0.25939   0.00000  Uiso   1.00
C674   C     0.51561   0.77997   0.45906   0.00000  Uiso   1.00
C675   C     0.53837   0.76093   0.47890   0.00000  Uiso   1.00
C676   C     0.61476   0.84032   0.24093   0.00000  Uiso   1.00
C677   C     0.53583   0.77450   0.01956   0.00000  Uiso   1.00
C678   C     0.50547   0.80206   0.04134   0.00000  Uiso   1.00
C679   C     0.56275   0.76112   0.03884   0.00000  Uiso   1.00
C680   C     0.55885   0.77330   0.07941   0.00000  Uiso   1.00
C681   C     0.50625   0.81947   0.08035   0.00000  Uiso   1.00
C682   C     0.66138   0.84292   0.23679   0.00000  Uiso   1.00
C683   C     0.34061   0.82398   0.26271   0.00000  Uiso   1.00
C684   C     0.42383   0.87245   0.42224   0.00000  Uiso   1.00
C685   C     0.51480   0.98954   0.23894   0.00000  Uiso   1.00
C686   C     0.48396   0.67899   0.26240   0.00000  Uiso   1.00
C687   C     0.48918   0.72296   0.25892   0.00000  Uiso   1.00
C688   C     0.51034   0.94451   0.24142   0.00000  Uiso   1.00
C689   C     0.52160   0.81197   0.14371   0.00000  Uiso   1.00
C690   C     0.47864   0.85460   0.35663   0.00000  Uiso   1.00
C691   C     0.46473   0.85965   0.40120   0.00000  Uiso   1.00
C692   C     0.53045   0.80272   0.10026   0.00000  Uiso   1.00
C693   C     0.40652   0.86841   0.46340   0.00000  Uiso   1.00
C694   C     0.36287   0.86593   0.20432   0.00000  Uiso   1.00
C695   C     0.48990   0.84707   0.42278   0.00000  Uiso   1.00
C696   C     0.34812   0.88877   0.17639   0.00000  Uiso   1.00
C697   C     0.38660   0.91093   0.14726   0.00000  Uiso   1.00
C698   C     0.58466   0.75394   0.10001   0.00000  Uiso   1.00
C699   C     0.62467   0.78328   0.10450   0.00000  Uiso   1.00
C700   C     0.64578   0.76726   0.13184   0.00000  Uiso   1.00
C701   C     0.53913   0.85624   0.40779   0.00000  Uiso   1.00
C702   C     0.55744   0.88726   0.43751   0.00000  Uiso   1.00
C703   C     0.60613   0.89782   0.42131   0.00000  Uiso   1.00
C704   C     0.46908   0.83448   0.46165   0.00000  Uiso   1.00
C705   C     0.42881   0.84881   0.48332   0.00000  Uiso   1.00
C706   C     0.48854   0.81043   0.48054   0.00000  Uiso   1.00
C707   C     0.47673   0.81348   0.02249   0.00000  Uiso   1.00
C708   C     0.43523   0.82488   0.04381   0.00000  Uiso   1.00
C709   C     0.41164   0.84318   0.02448   0.00000  Uiso   1.00
H710   H     0.58686   0.74081   0.02277   0.00000  Uiso   1.00
H711   H     0.66059   0.79218   0.30848   0.00000  Uiso   1.00
H712   H     0.57030   0.98859   0.19818   0.00000  Uiso   1.00
H713   H     0.42861   0.68353   0.30214   0.00000  Uiso   1.00
H714   H     0.49341   0.86705   0.12118   0.00000  Uiso   1.00
H715   H     0.62284   0.76500   0.16207   0.00000  Uiso   1.00
H716   H     0.65625   0.73616   0.11923   0.00000  Uiso   1.00
H717   H     0.34103   0.78913   0.13487   0.00000  Uiso   1.00
H718   H     0.64825   0.78569   0.07459   0.00000  Uiso   1.00
H719   H     0.61605   0.81496   0.11715   0.00000  Uiso   1.00
H720   H     0.56383   0.74552   0.12967   0.00000  Uiso   1.00
H721   H     0.36613   0.85451   0.07427   0.00000  Uiso   1.00
H722   H     0.59525   0.72430   0.08268   0.00000  Uiso   1.00
H723   H     0.56067   0.70858   0.47583   0.00000  Uiso   1.00
H724   H     0.35651   0.89736   0.46758   0.00000  Uiso   1.00
H725   H     0.41785   0.91397   0.39190   0.00000  Uiso   1.00
H726   H     0.62246   0.86923   0.41592   0.00000  Uiso   1.00
H727   H     0.61410   0.91226   0.39294   0.00000  Uiso   1.00
H728   H     0.61837   0.92018   0.44341   0.00000  Uiso   1.00
H729   H     0.54190   0.91640   0.44330   0.00000  Uiso   1.00
H730   H     0.55084   0.87411   0.46634   0.00000  Uiso   1.00
H731   H     0.55545   0.82779   0.40094   0.00000  Uiso   1.00
H732   H     0.40488   0.93470   0.16377   0.00000  Uiso   1.00
H733   H     0.54875   0.87079   0.37937   0.00000  Uiso   1.00
H734   H     0.42622   0.78902   0.08580   0.00000  Uiso   1.00
H735   H     0.53474   0.74456   0.40871   0.00000  Uiso   1.00
H736   H     0.40837   0.88821   0.12874   0.00000  Uiso   1.00
H737   H     0.37506   0.92672   0.12718   0.00000  Uiso   1.00
H738   H     0.66353   0.86614   0.15864   0.00000  Uiso   1.00
H739   H     0.66066   0.91268   0.19420   0.00000  Uiso   1.00
H740   H     0.38277   0.88947   0.21950   0.00000  Uiso   1.00
H741   H     0.38418   0.84291   0.18532   0.00000  Uiso   1.00
O742   O     0.50000   0.83333   0.25000   0.00000  Uiso   1.00
O743   O     0.49027   0.79060   0.16625   0.00000  Uiso   1.00
O744   O     0.46020   0.87313   0.33749   0.00000  Uiso   1.00
O745   O     0.54421   0.84159   0.15877   0.00000  Uiso   1.00
O746   O     0.50532   0.82802   0.33749   0.00000  Uiso   1.00
O747   O     0.37154   0.85531   0.04522   0.00000  Uiso   1.00
O748   O     0.64462   0.80337   0.29307   0.00000  Uiso   1.00
O749   O     0.55040   0.67592   0.21279   0.00000  Uiso   1.00
O750   O     0.44682   0.99455   0.28811   0.00000  Uiso   1.00
O751   O     0.48445   0.85375   0.09742   0.00000  Uiso   1.00
O752   O     0.56293   0.72987   0.45774   0.00000  Uiso   1.00
O753   O     0.51182   0.74768   0.27821   0.00000  Uiso   1.00
O754   O     0.36744   0.88260   0.48451   0.00000  Uiso   1.00
O755   O     0.39994   0.88883   0.40312   0.00000  Uiso   1.00
O756   O     0.41462   0.81391   0.08189   0.00000  Uiso   1.00
O757   O     0.51412   0.76528   0.42056   0.00000  Uiso   1.00
O758   O     0.47914   0.92803   0.26767   0.00000  Uiso   1.00
O759   O     0.40785   0.79917   0.23607   0.00000  Uiso   1.00
O760   O     0.60119   0.85845   0.21806   0.00000  Uiso   1.00
O761   O     0.40323   0.85627   0.27820   0.00000  Uiso   1.00
O762   O     0.58773   0.81944   0.26768   0.00000  Uiso   1.00
O763   O     0.47133   0.73570   0.23607   0.00000  Uiso   1.00
O764   O     0.53771   0.92193   0.21806   0.00000  Uiso   1.00
Zn765  Zn    0.52577   0.80756   0.28278   0.00000  Uiso   1.00
Zn766  Zn    0.46792   0.79044   0.22258   0.00000  Uiso   1.00
Zn767  Zn    0.54500   0.86331   0.21188   0.00000  Uiso   1.00
Zn768  Zn    0.46131   0.87202   0.28277   0.00000  Uiso   1.00
C769   C     0.71923   0.82611   0.25939   0.00000  Uiso   1.00
C770   C     0.84895   0.77997   0.45906   0.00000  Uiso   1.00
C771   C     0.87170   0.76093   0.47890   0.00000  Uiso   1.00
C772   C     0.94810   0.84032   0.24093   0.00000  Uiso   1.00
C773   C     0.86917   0.77450   0.01956   0.00000  Uiso   1.00
C774   C     0.83881   0.80206   0.04134   0.00000  Uiso   1.00
C775   C     0.89608   0.76112   0.03884   0.00000  Uiso   1.00
C776   C     0.89218   0.77330   0.07941   0.00000  Uiso   1.00
C777   C     0.83958   0.81947   0.08035   0.00000  Uiso   1.00
C778   C     0.99472   0.84292   0.23679   0.00000  Uiso   1.00
C779   C     0.67394   0.82398   0.26271   0.00000  Uiso   1.00
C780   C     0.75716   0.87245   0.42224   0.00000  Uiso   1.00
C781   C     0.84814   0.98954   0.23894   0.00000  Uiso   1.00
C782   C     0.81729   0.67899   0.26240   0.00000  Uiso   1.00
C783   C     0.82251   0.72296   0.25892   0.00000  Uiso   1.00
C784   C     0.84368   0.94451   0.24142   0.00000  Uiso   1.00
C785   C     0.85493   0.81197   0.14371   0.00000  Uiso   1.00
C786   C     0.81198   0.85460   0.35663   0.00000  Uiso   1.00
C787   C     0.79806   0.85965   0.40120   0.00000  Uiso   1.00
C788   C     0.86379   0.80272   0.10026   0.00000  Uiso   1.00
C789   C     0.73985   0.86841   0.46340   0.00000  Uiso   1.00
C790   C     0.69621   0.86593   0.20432   0.00000  Uiso   1.00
C791   C     0.82323   0.84707   0.42278   0.00000  Uiso   1.00
C792   C     0.68145   0.88877   0.17639   0.00000  Uiso   1.00
C793   C     0.71993   0.91093   0.14726   0.00000  Uiso   1.00
C794   C     0.91799   0.75394   0.10001   0.00000  Uiso   1.00
C795   C     0.95800   0.78328   0.10450   0.00000  Uiso   1.00
C796   C     0.97911   0.76726   0.13184   0.00000  Uiso   1.00
C797   C     0.87246   0.85624   0.40779   0.00000  Uiso   1.00
C798   C     0.89077   0.88726   0.43751   0.00000  Uiso   1.00
C799   C     0.93946   0.89782   0.42131   0.00000  Uiso   1.00
C800   C     0.80242   0.83448   0.46165   0.00000  Uiso   1.00
C801   C     0.76214   0.84881   0.48332   0.00000  Uiso   1.00
C802   C     0.82188   0.81043   0.48054   0.00000  Uiso   1.00
C803   C     0.81006   0.81348   0.02249   0.00000  Uiso   1.00
C804   C     0.76856   0.82488   0.04381   0.00000  Uiso   1.00
C805   C     0.74497   0.84318   0.02448   0.00000  Uiso   1.00
H806   H     0.92019   0.74081   0.02277   0.00000  Uiso   1.00
H807   H     0.99392   0.79218   0.30848   0.00000  Uiso   1.00
H808   H     0.90364   0.98859   0.19818   0.00000  Uiso   1.00
H809   H     0.76194   0.68353   0.30214   0.00000  Uiso   1.00
H810   H     0.82675   0.86705   0.12118   0.00000  Uiso   1.00
H811   H     0.95617   0.76500   0.16207   0.00000  Uiso   1.00
H812   H     0.98959   0.73616   0.11923   0.00000  Uiso   1.00
H813   H     0.67436   0.78913   0.13487   0.00000  Uiso   1.00
H814   H     0.98158   0.78569   0.07459   0.00000  Uiso   1.00
H815   H     0.94938   0.81496   0.11715   0.00000  Uiso   1.00
H816   H     0.89716   0.74552   0.12967   0.00000  Uiso   1.00
H817   H     0.69947   0.85451   0.07427   0.00000  Uiso   1.00
H818   H     0.92859   0.72430   0.08268   0.00000  Uiso   1.00
H819   H     0.89400   0.70858   0.47583   0.00000  Uiso   1.00
H820   H     0.68985   0.89736   0.46758   0.00000  Uiso   1.00
H821   H     0.75118   0.91397   0.39190   0.00000  Uiso   1.00
H822   H     0.95579   0.86923   0.41592   0.00000  Uiso   1.00
H823   H     0.94743   0.91226   0.39294   0.00000  Uiso   1.00
H824   H     0.95171   0.92018   0.44341   0.00000  Uiso   1.00
H825   H     0.87523   0.91640   0.44330   0.00000  Uiso   1.00
H826   H     0.88417   0.87411   0.46634   0.00000  Uiso   1.00
H827   H     0.88878   0.82779   0.40094   0.00000  Uiso   1.00
H828   H     0.73821   0.93470   0.16377   0.00000  Uiso   1.00
H829   H     0.88208   0.87079   0.37937   0.00000  Uiso   1.00
H830   H     0.75956   0.78902   0.08580   0.00000  Uiso   1.00
H831   H     0.86807   0.74456   0.40871   0.00000  Uiso   1.00
H832   H     0.74170   0.88821   0.12874   0.00000  Uiso   1.00
H833   H     0.70840   0.92672   0.12718   0.00000  Uiso   1.00
H834   H     0.99686   0.86614   0.15864   0.00000  Uiso   1.00
H835   H     0.99399   0.91268   0.19420   0.00000  Uiso   1.00
H836   H     0.71611   0.88947   0.21950   0.00000  Uiso   1.00
H837   H     0.71752   0.84291   0.18532   0.00000  Uiso   1.00
O838   O     0.83333   0.83333   0.25000   0.00000  Uiso   1.00
O839   O     0.82360   0.79060   0.16625   0.00000  Uiso   1.00
O840   O     0.79354   0.87313   0.33749   0.00000  Uiso   1.00
O841   O     0.87755   0.84159   0.15877   0.00000  Uiso   1.00
O842   O     0.83865   0.82802   0.33749   0.00000  Uiso   1.00
O843   O     0.70488   0.85531   0.04522   0.00000  Uiso   1.00
O844   O     0.97796   0.80337   0.29307   0.00000  Uiso   1.00
O845   O     0.88373   0.67592   0.21279   0.00000  Uiso   1.00
O846   O     0.78016   0.99455   0.28811   0.00000  Uiso   1.00
O847   O     0.81779   0.85375   0.09742   0.00000  Uiso   1.00
O848   O     0.89626   0.72987   0.45774   0.00000  Uiso   1.00
O849   O     0.84515   0.74768   0.27821   0.00000  Uiso   1.00
O850   O     0.70077   0.88260   0.48451   0.00000  Uiso   1.00
O851   O     0.73327   0.88883   0.40312   0.00000  Uiso   1.00
O852   O     0.74795   0.81391   0.08189   0.00000  Uiso   1.00
O853   O     0.84746   0.76528   0.42056   0.00000  Uiso   1.00
O854   O     0.81247   0.92803   0.26767   0.00000  Uiso   1.00
O855   O     0.74119   0.79917   0.23607   0.00000  Uiso   1.00
O856   O     0.93452   0.85845   0.21806   0.00000  Uiso   1.00
O857   O     0.73656   0.85627   0.27820   0.00000  Uiso   1.00
O858   O     0.92106   0.81944   0.26768   0.00000  Uiso   1.00
O859   O     0.80467   0.73570   0.23607   0.00000  Uiso   1.00
O860   O     0.87104   0.92193   0.21806   0.00000  Uiso   1.00
Zn861  Zn    0.85910   0.80756   0.28278   0.00000  Uiso   1.00
Zn862  Zn    0.80125   0.79044   0.22258   0.00000  Uiso   1.00
Zn863  Zn    0.87833   0.86331   0.21188   0.00000  Uiso   1.00
Zn864  Zn    0.79465   0.87202   0.28277   0.00000  Uiso   1.00
C865   C     0.05256   0.15944   0.75939   0.00000  Uiso   1.00
C866   C     0.18228   0.11330   0.95906   0.00000  Uiso   1.00
C867   C     0.20503   0.09427   0.97890   0.00000  Uiso   1.00
C868   C     0.28143   0.17365   0.74093   0.00000  Uiso   1.00
C869   C     0.20250   0.10784   0.51956   0.00000  Uiso   1.00
C870   C     0.17214   0.13540   0.54134   0.00000  Uiso   1.00
C871   C     0.22941   0.09446   0.53884   0.00000  Uiso   1.00
C872   C     0.22551   0.10663   0.57941   0.00000  Uiso   1.00
C873   C     0.17292   0.15280   0.58035   0.00000  Uiso   1.00
C874   C     0.32805   0.17626   0.73679   0.00000  Uiso   1.00
C875   C     0.00728   0.15732   0.76271   0.00000  Uiso   1.00
C876   C     0.09049   0.20578   0.92224   0.00000  Uiso   1.00
C877   C     0.18147   0.32287   0.73894   0.00000  Uiso   1.00
C878   C     0.15062   0.01232   0.76240   0.00000  Uiso   1.00
C879   C     0.15584   0.05630   0.75892   0.00000  Uiso   1.00
C880   C     0.17701   0.27784   0.74142   0.00000  Uiso   1.00
C881   C     0.18826   0.14531   0.64371   0.00000  Uiso   1.00
C882   C     0.14531   0.18793   0.85663   0.00000  Uiso   1.00
C883   C     0.13139   0.19298   0.90120   0.00000  Uiso   1.00
C884   C     0.19712   0.13605   0.60026   0.00000  Uiso   1.00
C885   C     0.07319   0.20174   0.96340   0.00000  Uiso   1.00
C886   C     0.02954   0.19926   0.70432   0.00000  Uiso   1.00
C887   C     0.15657   0.18040   0.92278   0.00000  Uiso   1.00
C888   C     0.01479   0.22210   0.67639   0.00000  Uiso   1.00
C889   C     0.05327   0.24426   0.64726   0.00000  Uiso   1.00
C890   C     0.25133   0.08727   0.60001   0.00000  Uiso   1.00
C891   C     0.29134   0.11661   0.60450   0.00000  Uiso   1.00
C892   C     0.31244   0.10059   0.63184   0.00000  Uiso   1.00
C893   C     0.20580   0.18958   0.90779   0.00000  Uiso   1.00
C894   C     0.22410   0.22060   0.93751   0.00000  Uiso   1.00
C895   C     0.27280   0.23115   0.92131   0.00000  Uiso   1.00
C896   C     0.13575   0.16781   0.96165   0.00000  Uiso   1.00
C897   C     0.09548   0.18214   0.98332   0.00000  Uiso   1.00
C898   C     0.15521   0.14377   0.98054   0.00000  Uiso   1.00
C899   C     0.14340   0.14681   0.52249   0.00000  Uiso   1.00
C900   C     0.10190   0.15821   0.54381   0.00000  Uiso   1.00
C901   C     0.07830   0.17651   0.52448   0.00000  Uiso   1.00
H902   H     0.25352   0.07415   0.52277   0.00000  Uiso   1.00
H903   H     0.32725   0.12551   0.80848   0.00000  Uiso   1.00
H904   H     0.23697   0.32193   0.69818   0.00000  Uiso   1.00
H905   H     0.09527   0.01686   0.80214   0.00000  Uiso   1.00
H906   H     0.16008   0.20039   0.62118   0.00000  Uiso   1.00
H907   H     0.28950   0.09833   0.66207   0.00000  Uiso   1.00
H908   H     0.32292   0.06949   0.61923   0.00000  Uiso   1.00
H909   H     0.00770   0.12247   0.63487   0.00000  Uiso   1.00
H910   H     0.31491   0.11903   0.57459   0.00000  Uiso   1.00
H911   H     0.28271   0.14829   0.61715   0.00000  Uiso   1.00
H912   H     0.23049   0.07885   0.62967   0.00000  Uiso   1.00
H913   H     0.03280   0.18785   0.57427   0.00000  Uiso   1.00
H914   H     0.26192   0.05763   0.58268   0.00000  Uiso   1.00
H915   H     0.22733   0.04191   0.97583   0.00000  Uiso   1.00
H916   H     0.02318   0.23069   0.96758   0.00000  Uiso   1.00
H917   H     0.08452   0.24730   0.89190   0.00000  Uiso   1.00
H918   H     0.28913   0.20257   0.91592   0.00000  Uiso   1.00
H919   H     0.28076   0.24560   0.89294   0.00000  Uiso   1.00
H920   H     0.28504   0.25351   0.94341   0.00000  Uiso   1.00
H921   H     0.20857   0.24973   0.94330   0.00000  Uiso   1.00
H922   H     0.21751   0.20744   0.96634   0.00000  Uiso   1.00
H923   H     0.22212   0.16113   0.90094   0.00000  Uiso   1.00
H924   H     0.07155   0.26803   0.66377   0.00000  Uiso   1.00
H925   H     0.21541   0.20412   0.87937   0.00000  Uiso   1.00
H926   H     0.09289   0.12236   0.58580   0.00000  Uiso   1.00
H927   H     0.20140   0.07789   0.90871   0.00000  Uiso   1.00
H928   H     0.07503   0.22155   0.62874   0.00000  Uiso   1.00
H929   H     0.04173   0.26006   0.62718   0.00000  Uiso   1.00
H930   H     0.33020   0.19947   0.65864   0.00000  Uiso   1.00
H931   H     0.32732   0.24602   0.69420   0.00000  Uiso   1.00
H932   H     0.04944   0.22281   0.71950   0.00000  Uiso   1.00
H933   H     0.05085   0.17625   0.68532   0.00000  Uiso   1.00
O934   O     0.16667   0.16667   0.75000   0.00000  Uiso   1.00
O935   O     0.15693   0.12393   0.66625   0.00000  Uiso   1.00
O936   O     0.12687   0.20646   0.83749   0.00000  Uiso   1.00
O937   O     0.21088   0.17493   0.65877   0.00000  Uiso   1.00
O938   O     0.17198   0.16135   0.83749   0.00000  Uiso   1.00
O939   O     0.03821   0.18865   0.54522   0.00000  Uiso   1.00
O940   O     0.31129   0.13670   0.79307   0.00000  Uiso   1.00
O941   O     0.21707   0.00925   0.71279   0.00000  Uiso   1.00
O942   O     0.11349   0.32788   0.78811   0.00000  Uiso   1.00
O943   O     0.15112   0.18709   0.59742   0.00000  Uiso   1.00
O944   O     0.22959   0.06321   0.95774   0.00000  Uiso   1.00
O945   O     0.17849   0.08101   0.77821   0.00000  Uiso   1.00
O946   O     0.03410   0.21593   0.98451   0.00000  Uiso   1.00
O947   O     0.06661   0.22216   0.90312   0.00000  Uiso   1.00
O948   O     0.08128   0.14724   0.58189   0.00000  Uiso   1.00
O949   O     0.18079   0.09862   0.92056   0.00000  Uiso   1.00
O950   O     0.14581   0.26136   0.76767   0.00000  Uiso   1.00
O951   O     0.07452   0.13251   0.73607   0.00000  Uiso   1.00
O952   O     0.26785   0.19179   0.71806   0.00000  Uiso   1.00
O953   O     0.06990   0.18960   0.77820   0.00000  Uiso   1.00
O954   O     0.25440   0.15277   0.76768   0.00000  Uiso   1.00
O955   O     0.13800   0.06903   0.73607   0.00000  Uiso   1.00
O956   O     0.20437   0.25527   0.71806   0.00000  Uiso   1.00
Zn957  Zn    0.19244   0.14090   0.78278   0.00000  Uiso   1.00
Zn958  Zn    0.13459   0.12378   0.72258   0.00000  Uiso   1.00
Zn959  Zn    0.21166   0.19664   0.71188   0.00000  Uiso   1.00
Zn960  Zn    0.12798   0.20535   0.78277   0.00000  Uiso   1.00
C961   C     0.38590   0.15944   0.75939   0.00000  Uiso   1.00
C962   C     0.51561   0.11330   0.95906   0.00000  Uiso   1.00
C963   C     0.53837   0.09427   0.97890   0.00000  Uiso   1.00
C964   C     0.61476   0.17365   0.74093   0.00000  Uiso   1.00
C965   C     0.53583   0.10784   0.51956   0.00000  Uiso   1.00
C966   C     0.50547   0.13540   0.54134   0.00000  Uiso   1.00
C967   C     0.56275   0.09446   0.53884   0.00000  Uiso   1.00
C968   C     0.55885   0.10663   0.57941   0.00000  Uiso   1.00
C969   C     0.50625   0.15280   0.58035   0.00000  Uiso   1.00
C970   C     0.66138   0.17626   0.73679   0.00000  Uiso   1.00
C971   C     0.34061   0.15732   0.76271   0.00000  Uiso   1.00
C972   C     0.42383   0.20578   0.92224   0.00000  Uiso   1.00
C973   C     0.51480   0.32287   0.73894   0.00000  Uiso   1.00
C974   C     0.48396   0.01232   0.76240   0.00000  Uiso   1.00
C975   C     0.48918   0.05630   0.75892   0.00000  Uiso   1.00
C976   C     0.51034   0.27784   0.74142   0.00000  Uiso   1.00
C977   C     0.52160   0.14531   0.64371   0.00000  Uiso   1.00
C978   C     0.47864   0.18793   0.85663   0.00000  Uiso   1.00
C979   C     0.46473   0.19298   0.90120   0.00000  Uiso   1.00
C980   C     0.53045   0.13605   0.60026   0.00000  Uiso   1.00
C981   C     0.40652   0.20174   0.96340   0.00000  Uiso   1.00
C982   C     0.36287   0.19926   0.70432   0.00000  Uiso   1.00
C983   C     0.48990   0.18040   0.92278   0.00000  Uiso   1.00
C984   C     0.34812   0.22210   0.67639   0.00000  Uiso   1.00
C985   C     0.38660   0.24426   0.64726   0.00000  Uiso   1.00
C986   C     0.58466   0.08727   0.60001   0.00000  Uiso   1.00
C987   C     0.62467   0.11661   0.60450   0.00000  Uiso   1.00
C988   C     0.64578   0.10059   0.63184   0.00000  Uiso   1.00
C989   C     0.53913   0.18958   0.90779   0.00000  Uiso   1.00
C990   C     0.55744   0.22060   0.93751   0.00000  Uiso   1.00
C991   C     0.60613   0.23115   0.92131   0.00000  Uiso   1.00
C992   C     0.46908   0.16781   0.96165   0.00000  Uiso   1.00
C993   C     0.42881   0.18214   0.98332   0.00000  Uiso   1.00
C994   C     0.48854   0.14377   0.98054   0.00000  Uiso   1.00
C995   C     0.47673   0.14681   0.52249   0.00000  Uiso   1.00
C996   C     0.43523   0.15821   0.54381   0.00000  Uiso   1.00
C997   C     0.41164   0.17651   0.52448   0.00000  Uiso   1.00
H998   H     0.58686   0.07415   0.52277   0.00000  Uiso   1.00
H999   H     0.66059   0.12551   0.80848   0.00000  Uiso   1.00
H1000  H     0.57030   0.32193   0.69818   0.00000  Uiso   1.00
H1001  H     0.42861   0.01686   0.80214   0.00000  Uiso   1.00
H1002  H     0.49341   0.20039   0.62118   0.00000  Uiso   1.00
H1003  H     0.62284   0.09833   0.66207   0.00000  Uiso   1.00
H1004  H     0.65625   0.06949   0.61923   0.00000  Uiso   1.00
H1005  H     0.34103   0.12247   0.63487   0.00000  Uiso   1.00
H1006  H     0.64825   0.11903   0.57459   0.00000  Uiso   1.00
H1007  H     0.61605   0.14829   0.61715   0.00000  Uiso   1.00
H1008  H     0.56383   0.07885   0.62967   0.00000  Uiso   1.00
H1009  H     0.36613   0.18785   0.57427   0.00000  Uiso   1.00
H1010  H     0.59525   0.05763   0.58268   0.00000  Uiso   1.00
H1011  H     0.56067   0.04191   0.97583   0.00000  Uiso   1.00
H1012  H     0.35651   0.23069   0.96758   0.00000  Uiso   1.00
H1013  H     0.41785   0.24730   0.89190   0.00000  Uiso   1.00
H1014  H     0.62246   0.20257   0.91592   0.00000  Uiso   1.00
H1015  H     0.61410   0.24560   0.89294   0.00000  Uiso   1.00
H1016  H     0.61837   0.25351   0.94341   0.00000  Uiso   1.00
H1017  H     0.54190   0.24973   0.94330   0.00000  Uiso   1.00
H1018  H     0.55084   0.20744   0.96634   0.00000  Uiso   1.00
H1019  H     0.55545   0.16113   0.90094   0.00000  Uiso   1.00
H1020  H     0.40488   0.26803   0.66377   0.00000  Uiso   1.00
H1021  H     0.54875   0.20412   0.87937   0.00000  Uiso   1.00
H1022  H     0.42622   0.12236   0.58580   0.00000  Uiso   1.00
H1023  H     0.53474   0.07789   0.90871   0.00000  Uiso   1.00
H1024  H     0.40837   0.22155   0.62874   0.00000  Uiso   1.00
H1025  H     0.37506   0.26006   0.62718   0.00000  Uiso   1.00
H1026  H     0.66353   0.19947   0.65864   0.00000  Uiso   1.00
H1027  H     0.66066   0.24602   0.69420   0.00000  Uiso   1.00
H1028  H     0.38277   0.22281   0.71950   0.00000  Uiso   1.00
H1029  H     0.38418   0.17625   0.68532   0.00000  Uiso   1.00
O1030  O     0.50000   0.16667   0.75000   0.00000  Uiso   1.00
O1031  O     0.49027   0.12393   0.66625   0.00000  Uiso   1.00
O1032  O     0.46020   0.20646   0.83749   0.00000  Uiso   1.00
O1033  O     0.54421   0.17493   0.65877   0.00000  Uiso   1.00
O1034  O     0.50532   0.16135   0.83749   0.00000  Uiso   1.00
O1035  O     0.37154   0.18865   0.54522   0.00000  Uiso   1.00
O1036  O     0.64462   0.13670   0.79307   0.00000  Uiso   1.00
O1037  O     0.55040   0.00925   0.71279   0.00000  Uiso   1.00
O1038  O     0.44682   0.32788   0.78811   0.00000  Uiso   1.00
O1039  O     0.48445   0.18709   0.59742   0.00000  Uiso   1.00
O1040  O     0.56293   0.06321   0.95774   0.00000  Uiso   1.00
O1041  O     0.51182   0.08101   0.77821   0.00000  Uiso   1.00
O1042  O     0.36744   0.21593   0.98451   0.00000  Uiso   1.00
O1043  O     0.39994   0.22216   0.90312   0.00000  Uiso   1.00
O1044  O     0.41462   0.14724   0.58189   0.00000  Uiso   1.00
O1045  O     0.51412   0.09862   0.92056   0.00000  Uiso   1.00
O1046  O     0.47914   0.26136   0.76767   0.00000  Uiso   1.00
O1047  O     0.40785   0.13251   0.73607   0.00000  Uiso   1.00
O1048  O     0.60119   0.19179   0.71806   0.00000  Uiso   1.00
O1049  O     0.40323   0.18960   0.77820   0.00000  Uiso   1.00
O1050  O     0.58773   0.15277   0.76768   0.00000  Uiso   1.00
O1051  O     0.47133   0.06903   0.73607   0.00000  Uiso   1.00
O1052  O     0.53771   0.25527   0.71806   0.00000  Uiso   1.00
Zn1053 Zn    0.52577   0.14090   0.78278   0.00000  Uiso   1.00
Zn1054 Zn    0.46792   0.12378   0.72258   0.00000  Uiso   1.00
Zn1055 Zn    0.54500   0.19664   0.71188   0.00000  Uiso   1.00
Zn1056 Zn    0.46131   0.20535   0.78277   0.00000  Uiso   1.00
C1057  C     0.71923   0.15944   0.75939   0.00000  Uiso   1.00
C1058  C     0.84895   0.11330   0.95906   0.00000  Uiso   1.00
C1059  C     0.87170   0.09427   0.97890   0.00000  Uiso   1.00
C1060  C     0.94810   0.17365   0.74093   0.00000  Uiso   1.00
C1061  C     0.86917   0.10784   0.51956   0.00000  Uiso   1.00
C1062  C     0.83881   0.13540   0.54134   0.00000  Uiso   1.00
C1063  C     0.89608   0.09446   0.53884   0.00000  Uiso   1.00
C1064  C     0.89218   0.10663   0.57941   0.00000  Uiso   1.00
C1065  C     0.83958   0.15280   0.58035   0.00000  Uiso   1.00
C1066  C     0.99472   0.17626   0.73679   0.00000  Uiso   1.00
C1067  C     0.67394   0.15732   0.76271   0.00000  Uiso   1.00
C1068  C     0.75716   0.20578   0.92224   0.00000  Uiso   1.00
C1069  C     0.84814   0.32287   0.73894   0.00000  Uiso   1.00
C1070  C     0.81729   0.01232   0.76240   0.00000  Uiso   1.00
C1071  C     0.82251   0.05630   0.75892   0.00000  Uiso   1.00
C1072  C     0.84368   0.27784   0.74142   0.00000  Uiso   1.00
C1073  C     0.85493   0.14531   0.64371   0.00000  Uiso   1.00
C1074  C     0.81198   0.18793   0.85663   0.00000  Uiso   1.00
C1075  C     0.79806   0.19298   0.90120   0.00000  Uiso   1.00
C1076  C     0.86379   0.13605   0.60026   0.00000  Uiso   1.00
C1077  C     0.73985   0.20174   0.96340   0.00000  Uiso   1.00
C1078  C     0.69621   0.19926   0.70432   0.00000  Uiso   1.00
C1079  C     0.82323   0.18040   0.92278   0.00000  Uiso   1.00
C1080  C     0.68145   0.22210   0.67639   0.00000  Uiso   1.00
C1081  C     0.71993   0.24426   0.64726   0.00000  Uiso   1.00
C1082  C     0.91799   0.08727   0.60001   0.00000  Uiso   1.00
C1083  C     0.95800   0.11661   0.60450   0.00000  Uiso   1.00
C1084  C     0.97911   0.10059   0.63184   0.00000  Uiso   1.00
C1085  C     0.87246   0.18958   0.90779   0.00000  Uiso   1.00
C1086  C     0.89077   0.22060   0.93751   0.00000  Uiso   1.00
C1087  C     0.93946   0.23115   0.92131   0.00000  Uiso   1.00
C1088  C     0.80242   0.16781   0.96165   0.00000  Uiso   1.00
C1089  C     0.76214   0.18214   0.98332   0.00000  Uiso   1.00
C1090  C     0.82188   0.14377   0.98054   0.00000  Uiso   1.00
C1091  C     0.81006   0.14681   0.52249   0.00000  Uiso   1.00
C1092  C     0.76856   0.15821   0.54381   0.00000  Uiso   1.00
C1093  C     0.74497   0.17651   0.52448   0.00000  Uiso   1.00
H1094  H     0.92019   0.07415   0.52277   0.00000  Uiso   1.00
H1095  H     0.99392   0.12551   0.80848   0.00000  Uiso   1.00
H1096  H     0.90364   0.32193   0.69818   0.00000  Uiso   1.00
H1097  H     0.76194   0.01686   0.80214   0.00000  Uiso   1.00
H1098  H     0.82675   0.20039   0.62118   0.00000  Uiso   1.00
H1099  H     0.95617   0.09833   0.66207   0.00000  Uiso   1.00
H1100  H     0.98959   0.06949   0.61923   0.00000  Uiso   1.00
H1101  H     0.67436   0.12247   0.63487   0.00000  Uiso   1.00
H1102  H     0.98158   0.11903   0.57459   0.00000  Uiso   1.00
H1103  H     0.94938   0.14829   0.61715   0.00000  Uiso   1.00
H1104  H     0.89716   0.07885   0.62967   0.00000  Uiso   1.00
H1105  H     0.69947   0.18785   0.57427   0.00000  Uiso   1.00
H1106  H     0.92859   0.05763   0.58268   0.00000  Uiso   1.00
H1107  H     0.89400   0.04191   0.97583   0.00000  Uiso   1.00
H1108  H     0.68985   0.23069   0.96758   0.00000  Uiso   1.00
H1109  H     0.75118   0.24730   0.89190   0.00000  Uiso   1.00
H1110  H     0.95579   0.20257   0.91592   0.00000  Uiso   1.00
H1111  H     0.94743   0.24560   0.89294   0.00000  Uiso   1.00
H1112  H     0.95171   0.25351   0.94341   0.00000  Uiso   1.00
H1113  H     0.87523   0.24973   0.94330   0.00000  Uiso   1.00
H1114  H     0.88417   0.20744   0.96634   0.00000  Uiso   1.00
H1115  H     0.88878   0.16113   0.90094   0.00000  Uiso   1.00
H1116  H     0.73821   0.26803   0.66377   0.00000  Uiso   1.00
H1117  H     0.88208   0.20412   0.87937   0.00000  Uiso   1.00
H1118  H     0.75956   0.12236   0.58580   0.00000  Uiso   1.00
H1119  H     0.86807   0.07789   0.90871   0.00000  Uiso   1.00
H1120  H     0.74170   0.22155   0.62874   0.00000  Uiso   1.00
H1121  H     0.70840   0.26006   0.62718   0.00000  Uiso   1.00
H1122  H     0.99686   0.19947   0.65864   0.00000  Uiso   1.00
H1123  H     0.99399   0.24602   0.69420   0.00000  Uiso   1.00
H1124  H     0.71611   0.22281   0.71950   0.00000  Uiso   1.00
H1125  H     0.71752   0.17625   0.68532   0.00000  Uiso   1.00
O1126  O     0.83333   0.16667   0.75000   0.00000  Uiso   1.00
O1127  O     0.82360   0.12393   0.66625   0.00000  Uiso   1.00
O1128  O     0.79354   0.20646   0.83749   0.00000  Uiso   1.00
O1129  O     0.87755   0.17493   0.65877   0.00000  Uiso   1.00
O1130  O     0.83865   0.16135   0.83749   0.00000  Uiso   1.00
O1131  O     0.70488   0.18865   0.54522   0.00000  Uiso   1.00
O1132  O     0.97796   0.13670   0.79307   0.00000  Uiso   1.00
O1133  O     0.88373   0.00925   0.71279   0.00000  Uiso   1.00
O1134  O     0.78016   0.32788   0.78811   0.00000  Uiso   1.00
O1135  O     0.81779   0.18709   0.59742   0.00000  Uiso   1.00
O1136  O     0.89626   0.06321   0.95774   0.00000  Uiso   1.00
O1137  O     0.84515   0.08101   0.77821   0.00000  Uiso   1.00
O1138  O     0.70077   0.21593   0.98451   0.00000  Uiso   1.00
O1139  O     0.73327   0.22216   0.90312   0.00000  Uiso   1.00
O1140  O     0.74795   0.14724   0.58189   0.00000  Uiso   1.00
O1141  O     0.84746   0.09862   0.92056   0.00000  Uiso   1.00
O1142  O     0.81247   0.26136   0.76767   0.00000  Uiso   1.00
O1143  O     0.74119   0.13251   0.73607   0.00000  Uiso   1.00
O1144  O     0.93452   0.19179   0.71806   0.00000  Uiso   1.00
O1145  O     0.73656   0.18960   0.77820   0.00000  Uiso   1.00
O1146  O     0.92106   0.15277   0.76768   0.00000  Uiso   1.00
O1147  O     0.80467   0.06903   0.73607   0.00000  Uiso   1.00
O1148  O     0.87104   0.25527   0.71806   0.00000  Uiso   1.00
Zn1149 Zn    0.85910   0.14090   0.78278   0.00000  Uiso   1.00
Zn1150 Zn    0.80125   0.12378   0.72258   0.00000  Uiso   1.00
Zn1151 Zn    0.87833   0.19664   0.71188   0.00000  Uiso   1.00
Zn1152 Zn    0.79465   0.20535   0.78277   0.00000  Uiso   1.00
C1153  C     0.05256   0.49277   0.75939   0.00000  Uiso   1.00
C1154  C     0.18228   0.44664   0.95906   0.00000  Uiso   1.00
C1155  C     0.20503   0.42760   0.97890   0.00000  Uiso   1.00
C1156  C     0.28143   0.50698   0.74093   0.00000  Uiso   1.00
C1157  C     0.20250   0.44117   0.51956   0.00000  Uiso   1.00
C1158  C     0.17214   0.46873   0.54134   0.00000  Uiso   1.00
C1159  C     0.22941   0.42779   0.53884   0.00000  Uiso   1.00
C1160  C     0.22551   0.43997   0.57941   0.00000  Uiso   1.00
C1161  C     0.17292   0.48614   0.58035   0.00000  Uiso   1.00
C1162  C     0.32805   0.50959   0.73679   0.00000  Uiso   1.00
C1163  C     0.00728   0.49065   0.76271   0.00000  Uiso   1.00
C1164  C     0.09049   0.53912   0.92224   0.00000  Uiso   1.00
C1165  C     0.18147   0.65620   0.73894   0.00000  Uiso   1.00
C1166  C     0.15062   0.34565   0.76240   0.00000  Uiso   1.00
C1167  C     0.15584   0.38963   0.75892   0.00000  Uiso   1.00
C1168  C     0.17701   0.61118   0.74142   0.00000  Uiso   1.00
C1169  C     0.18826   0.47864   0.64371   0.00000  Uiso   1.00
C1170  C     0.14531   0.52126   0.85663   0.00000  Uiso   1.00
C1171  C     0.13139   0.52632   0.90120   0.00000  Uiso   1.00
C1172  C     0.19712   0.46939   0.60026   0.00000  Uiso   1.00
C1173  C     0.07319   0.53507   0.96340   0.00000  Uiso   1.00
C1174  C     0.02954   0.53259   0.70432   0.00000  Uiso   1.00
C1175  C     0.15657   0.51374   0.92278   0.00000  Uiso   1.00
C1176  C     0.01479   0.55543   0.67639   0.00000  Uiso   1.00
C1177  C     0.05327   0.57760   0.64726   0.00000  Uiso   1.00
C1178  C     0.25133   0.42061   0.60001   0.00000  Uiso   1.00
C1179  C     0.29134   0.44995   0.60450   0.00000  Uiso   1.00
C1180  C     0.31244   0.43392   0.63184   0.00000  Uiso   1.00
C1181  C     0.20580   0.52291   0.90779   0.00000  Uiso   1.00
C1182  C     0.22410   0.55393   0.93751   0.00000  Uiso   1.00
C1183  C     0.27280   0.56448   0.92131   0.00000  Uiso   1.00
C1184  C     0.13575   0.50115   0.96165   0.00000  Uiso   1.00
C1185  C     0.09548   0.51547   0.98332   0.00000  Uiso   1.00
C1186  C     0.15521   0.47710   0.98054   0.00000  Uiso   1.00
C1187  C     0.14340   0.48014   0.52249   0.00000  Uiso   1.00
C1188  C     0.10190   0.49154   0.54381   0.00000  Uiso   1.00
C1189  C     0.07830   0.50984   0.52448   0.00000  Uiso   1.00
H1190  H     0.25352   0.40748   0.52277   0.00000  Uiso   1.00
H1191  H     0.32725   0.45885   0.80848   0.00000  Uiso   1.00
H1192  H     0.23697   0.65526   0.69818   0.00000  Uiso   1.00
H1193  H     0.09527   0.35019   0.80214   0.00000  Uiso   1.00
H1194  H     0.16008   0.53372   0.62118   0.00000  Uiso   1.00
H1195  H     0.28950   0.43166   0.66207   0.00000  Uiso   1.00
H1196  H     0.32292   0.40282   0.61923   0.00000  Uiso   1.00
H1197  H     0.00770   0.45580   0.63487   0.00000  Uiso   1.00
H1198  H     0.31491   0.45236   0.57459   0.00000  Uiso   1.00
H1199  H     0.28271   0.48162   0.61715   0.00000  Uiso   1.00
H1200  H     0.23049   0.41218   0.62967   0.00000  Uiso   1.00
H1201  H     0.03280   0.52118   0.57427   0.00000  Uiso   1.00
H1202  H     0.26192   0.39096   0.58268   0.00000  Uiso   1.00
H1203  H     0.22733   0.37524   0.97583   0.00000  Uiso   1.00
H1204  H     0.02318   0.56403   0.96758   0.00000  Uiso   1.00
H1205  H     0.08452   0.58064   0.89190   0.00000  Uiso   1.00
H1206  H     0.28913   0.53590   0.91592   0.00000  Uiso   1.00
H1207  H     0.28076   0.57893   0.89294   0.00000  Uiso   1.00
H1208  H     0.28504   0.58684   0.94341   0.00000  Uiso   1.00
H1209  H     0.20857   0.58307   0.94330   0.00000  Uiso   1.00
H1210  H     0.21751   0.54077   0.96634   0.00000  Uiso   1.00
H1211  H     0.22212   0.49446   0.90094   0.00000  Uiso   1.00
H1212  H     0.07155   0.60136   0.66377   0.00000  Uiso   1.00
H1213  H     0.21541   0.53746   0.87937   0.00000  Uiso   1.00
H1214  H     0.09289   0.45569   0.58580   0.00000  Uiso   1.00
H1215  H     0.20140   0.41122   0.90871   0.00000  Uiso   1.00
H1216  H     0.07503   0.55488   0.62874   0.00000  Uiso   1.00
H1217  H     0.04173   0.59339   0.62718   0.00000  Uiso   1.00
H1218  H     0.33020   0.53281   0.65864   0.00000  Uiso   1.00
H1219  H     0.32732   0.57935   0.69420   0.00000  Uiso   1.00
H1220  H     0.04944   0.55614   0.71950   0.00000  Uiso   1.00
H1221  H     0.05085   0.50958   0.68532   0.00000  Uiso   1.00
O1222  O     0.16667   0.50000   0.75000   0.00000  Uiso   1.00
O1223  O     0.15693   0.45726   0.66625   0.00000  Uiso   1.00
O1224  O     0.12687   0.53979   0.83749   0.00000  Uiso   1.00
O1225  O     0.21088   0.50826   0.65877   0.00000  Uiso   1.00
O1226  O     0.17198   0.49468   0.83749   0.00000  Uiso   1.00
O1227  O     0.03821   0.52198   0.54522   0.00000  Uiso   1.00
O1228  O     0.31129   0.47003   0.79307   0.00000  Uiso   1.00
O1229  O     0.21707   0.34259   0.71279   0.00000  Uiso   1.00
O1230  O     0.11349   0.66122   0.78811   0.00000  Uiso   1.00
O1231  O     0.15112   0.52042   0.59742   0.00000  Uiso   1.00
O1232  O     0.22959   0.39654   0.95774   0.00000  Uiso   1.00
O1233  O     0.17849   0.41434   0.77821   0.00000  Uiso   1.00
O1234  O     0.03410   0.54927   0.98451   0.00000  Uiso   1.00
O1235  O     0.06661   0.55549   0.90312   0.00000  Uiso   1.00
O1236  O     0.08128   0.48058   0.58189   0.00000  Uiso   1.00
O1237  O     0.18079   0.43195   0.92056   0.00000  Uiso   1.00
O1238  O     0.14581   0.59469   0.76767   0.00000  Uiso   1.00
O1239  O     0.07452   0.46584   0.73607   0.00000  Uiso   1.00
O1240  O     0.26785   0.52512   0.71806   0.00000  Uiso   1.00
O1241  O     0.06990   0.52293   0.77820   0.00000  Uiso   1.00
O1242  O     0.25440   0.48610   0.76768   0.00000  Uiso   1.00
O1243  O     0.13800   0.40236   0.73607   0.00000  Uiso   1.00
O1244  O     0.20437   0.58860   0.71806   0.00000  Uiso   1.00
Zn1245 Zn    0.19244   0.47423   0.78278   0.00000  Uiso   1.00
Zn1246 Zn    0.13459   0.45711   0.72258   0.00000  Uiso   1.00
Zn1247 Zn    0.21166   0.52997   0.71188   0.00000  Uiso   1.00
Zn1248 Zn    0.12798   0.53868   0.78277   0.00000  Uiso   1.00
C1249  C     0.38590   0.49277   0.75939   0.00000  Uiso   1.00
C1250  C     0.51561   0.44664   0.95906   0.00000  Uiso   1.00
C1251  C     0.53837   0.42760   0.97890   0.00000  Uiso   1.00
C1252  C     0.61476   0.50698   0.74093   0.00000  Uiso   1.00
C1253  C     0.53583   0.44117   0.51956   0.00000  Uiso   1.00
C1254  C     0.50547   0.46873   0.54134   0.00000  Uiso   1.00
C1255  C     0.56275   0.42779   0.53884   0.00000  Uiso   1.00
C1256  C     0.55885   0.43997   0.57941   0.00000  Uiso   1.00
C1257  C     0.50625   0.48614   0.58035   0.00000  Uiso   1.00
C1258  C     0.66138   0.50959   0.73679   0.00000  Uiso   1.00
C1259  C     0.34061   0.49065   0.76271   0.00000  Uiso   1.00
C1260  C     0.42383   0.53912   0.92224   0.00000  Uiso   1.00
C1261  C     0.51480   0.65620   0.73894   0.00000  Uiso   1.00
C1262  C     0.48396   0.34565   0.76240   0.00000  Uiso   1.00
C1263  C     0.48918   0.38963   0.75892   0.00000  Uiso   1.00
C1264  C     0.51034   0.61118   0.74142   0.00000  Uiso   1.00
C1265  C     0.52160   0.47864   0.64371   0.00000  Uiso   1.00
C1266  C     0.47864   0.52126   0.85663   0.00000  Uiso   1.00
C1267  C     0.46473   0.52632   0.90120   0.00000  Uiso   1.00
C1268  C     0.53045   0.46939   0.60026   0.00000  Uiso   1.00
C1269  C     0.40652   0.53507   0.96340   0.00000  Uiso   1.00
C1270  C     0.36287   0.53259   0.70432   0.00000  Uiso   1.00
C1271  C     0.48990   0.51374   0.92278   0.00000  Uiso   1.00
C1272  C     0.34812   0.55543   0.67639   0.00000  Uiso   1.00
C1273  C     0.38660   0.57760   0.64726   0.00000  Uiso   1.00
C1274  C     0.58466   0.42061   0.60001   0.00000  Uiso   1.00
C1275  C     0.62467   0.44995   0.60450   0.00000  Uiso   1.00
C1276  C     0.64578   0.43392   0.63184   0.00000  Uiso   1.00
C1277  C     0.53913   0.52291   0.90779   0.00000  Uiso   1.00
C1278  C     0.55744   0.55393   0.93751   0.00000  Uiso   1.00
C1279  C     0.60613   0.56448   0.92131   0.00000  Uiso   1.00
C1280  C     0.46908   0.50115   0.96165   0.00000  Uiso   1.00
C1281  C     0.42881   0.51547   0.98332   0.00000  Uiso   1.00
C1282  C     0.48854   0.47710   0.98054   0.00000  Uiso   1.00
C1283  C     0.47673   0.48014   0.52249   0.00000  Uiso   1.00
C1284  C     0.43523   0.49154   0.54381   0.00000  Uiso   1.00
C1285  C     0.41164   0.50984   0.52448   0.00000  Uiso   1.00
H1286  H     0.58686   0.40748   0.52277   0.00000  Uiso   1.00
H1287  H     0.66059   0.45885   0.80848   0.00000  Uiso   1.00
H1288  H     0.57030   0.65526   0.69818   0.00000  Uiso   1.00
H1289  H     0.42861   0.35019   0.80214   0.00000  Uiso   1.00
H1290  H     0.49341   0.53372   0.62118   0.00000  Uiso   1.00
H1291  H     0.62284   0.43166   0.66207   0.00000  Uiso   1.00
H1292  H     0.65625   0.40282   0.61923   0.00000  Uiso   1.00
H1293  H     0.34103   0.45580   0.63487   0.00000  Uiso   1.00
H1294  H     0.64825   0.45236   0.57459   0.00000  Uiso   1.00
H1295  H     0.61605   0.48162   0.61715   0.00000  Uiso   1.00
H1296  H     0.56383   0.41218   0.62967   0.00000  Uiso   1.00
H1297  H     0.36613   0.52118   0.57427   0.00000  Uiso   1.00
H1298  H     0.59525   0.39096   0.58268   0.00000  Uiso   1.00
H1299  H     0.56067   0.37524   0.97583   0.00000  Uiso   1.00
H1300  H     0.35651   0.56403   0.96758   0.00000  Uiso   1.00
H1301  H     0.41785   0.58064   0.89190   0.00000  Uiso   1.00
H1302  H     0.62246   0.53590   0.91592   0.00000  Uiso   1.00
H1303  H     0.61410   0.57893   0.89294   0.00000  Uiso   1.00
H1304  H     0.61837   0.58684   0.94341   0.00000  Uiso   1.00
H1305  H     0.54190   0.58307   0.94330   0.00000  Uiso   1.00
H1306  H     0.55084   0.54077   0.96634   0.00000  Uiso   1.00
H1307  H     0.55545   0.49446   0.90094   0.00000  Uiso   1.00
H1308  H     0.40488   0.60136   0.66377   0.00000  Uiso   1.00
H1309  H     0.54875   0.53746   0.87937   0.00000  Uiso   1.00
H1310  H     0.42622   0.45569   0.58580   0.00000  Uiso   1.00
H1311  H     0.53474   0.41122   0.90871   0.00000  Uiso   1.00
H1312  H     0.40837   0.55488   0.62874   0.00000  Uiso   1.00
H1313  H     0.37506   0.59339   0.62718   0.00000  Uiso   1.00
H1314  H     0.66353   0.53281   0.65864   0.00000  Uiso   1.00
H1315  H     0.66066   0.57935   0.69420   0.00000  Uiso   1.00
H1316  H     0.38277   0.55614   0.71950   0.00000  Uiso   1.00
H1317  H     0.38418   0.50958   0.68532   0.00000  Uiso   1.00
O1318  O     0.50000   0.50000   0.75000   0.00000  Uiso   1.00
O1319  O     0.49027   0.45726   0.66625   0.00000  Uiso   1.00
O1320  O     0.46020   0.53979   0.83749   0.00000  Uiso   1.00
O1321  O     0.54421   0.50826   0.65877   0.00000  Uiso   1.00
O1322  O     0.50532   0.49468   0.83749   0.00000  Uiso   1.00
O1323  O     0.37154   0.52198   0.54522   0.00000  Uiso   1.00
O1324  O     0.64462   0.47003   0.79307   0.00000  Uiso   1.00
O1325  O     0.55040   0.34259   0.71279   0.00000  Uiso   1.00
O1326  O     0.44682   0.66122   0.78811   0.00000  Uiso   1.00
O1327  O     0.48445   0.52042   0.59742   0.00000  Uiso   1.00
O1328  O     0.56293   0.39654   0.95774   0.00000  Uiso   1.00
O1329  O     0.51182   0.41434   0.77821   0.00000  Uiso   1.00
O1330  O     0.36744   0.54927   0.98451   0.00000  Uiso   1.00
O1331  O     0.39994   0.55549   0.90312   0.00000  Uiso   1.00
O1332  O     0.41462   0.48058   0.58189   0.00000  Uiso   1.00
O1333  O     0.51412   0.43195   0.92056   0.00000  Uiso   1.00
O1334  O     0.47914   0.59469   0.76767   0.00000  Uiso   1.00
O1335  O     0.40785   0.46584   0.73607   0.00000  Uiso   1.00
O1336  O     0.60119   0.52512   0.71806   0.00000  Uiso   1.00
O1337  O     0.40323   0.52293   0.77820   0.00000  Uiso   1.00
O1338  O     0.58773   0.48610   0.76768   0.00000  Uiso   1.00
O1339  O     0.47133   0.40236   0.73607   0.00000  Uiso   1.00
O1340  O     0.53771   0.58860   0.71806   0.00000  Uiso   1.00
Zn1341 Zn    0.52577   0.47423   0.78278   0.00000  Uiso   1.00
Zn1342 Zn    0.46792   0.45711   0.72258   0.00000  Uiso   1.00
Zn1343 Zn    0.54500   0.52997   0.71188   0.00000  Uiso   1.00
Zn1344 Zn    0.46131   0.53868   0.78277   0.00000  Uiso   1.00
C1345  C     0.71923   0.49277   0.75939   0.00000  Uiso   1.00
C1346  C     0.84895   0.44664   0.95906   0.00000  Uiso   1.00
C1347  C     0.87170   0.42760   0.97890   0.00000  Uiso   1.00
C1348  C     0.94810   0.50698   0.74093   0.00000  Uiso   1.00
C1349  C     0.86917   0.44117   0.51956   0.00000  Uiso   1.00
C1350  C     0.83881   0.46873   0.54134   0.00000  Uiso   1.00
C1351  C     0.89608   0.42779   0.53884   0.00000  Uiso   1.00
C1352  C     0.89218   0.43997   0.57941   0.00000  Uiso   1.00
C1353  C     0.83958   0.48614   0.58035   0.00000  Uiso   1.00
C1354  C     0.99472   0.50959   0.73679   0.00000  Uiso   1.00
C1355  C     0.67394   0.49065   0.76271   0.00000  Uiso   1.00
C1356  C     0.75716   0.53912   0.92224   0.00000  Uiso   1.00
C1357  C     0.84814   0.65620   0.73894   0.00000  Uiso   1.00
C1358  C     0.81729   0.34565   0.76240   0.00000  Uiso   1.00
C1359  C     0.82251   0.38963   0.75892   0.00000  Uiso   1.00
C1360  C     0.84368   0.61118   0.74142   0.00000  Uiso   1.00
C1361  C     0.85493   0.47864   0.64371   0.00000  Uiso   1.00
C1362  C     0.81198   0.52126   0.85663   0.00000  Uiso   1.00
C1363  C     0.79806   0.52632   0.90120   0.00000  Uiso   1.00
C1364  C     0.86379   0.46939   0.60026   0.00000  Uiso   1.00
C1365  C     0.73985   0.53507   0.96340   0.00000  Uiso   1.00
C1366  C     0.69621   0.53259   0.70432   0.00000  Uiso   1.00
C1367  C     0.82323   0.51374   0.92278   0.00000  Uiso   1.00
C1368  C     0.68145   0.55543   0.67639   0.00000  Uiso   1.00
C1369  C     0.71993   0.57760   0.64726   0.00000  Uiso   1.00
C1370  C     0.91799   0.42061   0.60001   0.00000  Uiso   1.00
C1371  C     0.95800   0.44995   0.60450   0.00000  Uiso   1.00
C1372  C     0.97911   0.43392   0.63184   0.00000  Uiso   1.00
C1373  C     0.87246   0.52291   0.90779   0.00000  Uiso   1.00
C1374  C     0.89077   0.55393   0.93751   0.00000  Uiso   1.00
C1375  C     0.93946   0.56448   0.92131   0.00000  Uiso   1.00
C1376  C     0.80242   0.50115   0.96165   0.00000  Uiso   1.00
C1377  C     0.76214   0.51547   0.98332   0.00000  Uiso   1.00
C1378  C     0.82188   0.47710   0.98054   0.00000  Uiso   1.00
C1379  C     0.81006   0.48014   0.52249   0.00000  Uiso   1.00
C1380  C     0.76856   0.49154   0.54381   0.00000  Uiso   1.00
C1381  C     0.74497   0.50984   0.52448   0.00000  Uiso   1.00
H1382  H     0.92019   0.40748   0.52277   0.00000  Uiso   1.00
H1383  H     0.99392   0.45885   0.80848   0.00000  Uiso   1.00
H1384  H     0.90364   0.65526   0.69818   0.00000  Uiso   1.00
H1385  H     0.76194   0.35019   0.80214   0.00000  Uiso   1.00
H1386  H     0.82675   0.53372   0.62118   0.00000  Uiso   1.00
H1387  H     0.95617   0.43166   0.66207   0.00000  Uiso   1.00
H1388  H     0.98959   0.40282   0.61923   0.00000  Uiso   1.00
H1389  H     0.67436   0.45580   0.63487   0.00000  Uiso   1.00
H1390  H     0.98158   0.45236   0.57459   0.00000  Uiso   1.00
H1391  H     0.94938   0.48162   0.61715   0.00000  Uiso   1.00
H1392  H     0.89716   0.41218   0.62967   0.00000  Uiso   1.00
H1393  H     0.69947   0.52118   0.57427   0.00000  Uiso   1.00
H1394  H     0.92859   0.39096   0.58268   0.00000  Uiso   1.00
H1395  H     0.89400   0.37524   0.97583   0.00000  Uiso   1.00
H1396  H     0.68985   0.56403   0.96758   0.00000  Uiso   1.00
H1397  H     0.75118   0.58064   0.89190   0.00000  Uiso   1.00
H1398  H     0.95579   0.53590   0.91592   0.00000  Uiso   1.00
H1399  H     0.94743   0.57893   0.89294   0.00000  Uiso   1.00
H1400  H     0.95171   0.58684   0.94341   0.00000  Uiso   1.00
H1401  H     0.87523   0.58307   0.94330   0.00000  Uiso   1.00
H1402  H     0.88417   0.54077   0.96634   0.00000  Uiso   1.00
H1403  H     0.88878   0.49446   0.90094   0.00000  Uiso   1.00
H1404  H     0.73821   0.60136   0.66377   0.00000  Uiso   1.00
H1405  H     0.88208   0.53746   0.87937   0.00000  Uiso   1.00
H1406  H     0.75956   0.45569   0.58580   0.00000  Uiso   1.00
H1407  H     0.86807   0.41122   0.90871   0.00000  Uiso   1.00
H1408  H     0.74170   0.55488   0.62874   0.00000  Uiso   1.00
H1409  H     0.70840   0.59339   0.62718   0.00000  Uiso   1.00
H1410  H     0.99686   0.53281   0.65864   0.00000  Uiso   1.00
H1411  H     0.99399   0.57935   0.69420   0.00000  Uiso   1.00
H1412  H     0.71611   0.55614   0.71950   0.00000  Uiso   1.00
H1413  H     0.71752   0.50958   0.68532   0.00000  Uiso   1.00
O1414  O     0.83333   0.50000   0.75000   0.00000  Uiso   1.00
O1415  O     0.82360   0.45726   0.66625   0.00000  Uiso   1.00
O1416  O     0.79354   0.53979   0.83749   0.00000  Uiso   1.00
O1417  O     0.87755   0.50826   0.65877   0.00000  Uiso   1.00
O1418  O     0.83865   0.49468   0.83749   0.00000  Uiso   1.00
O1419  O     0.70488   0.52198   0.54522   0.00000  Uiso   1.00
O1420  O     0.97796   0.47003   0.79307   0.00000  Uiso   1.00
O1421  O     0.88373   0.34259   0.71279   0.00000  Uiso   1.00
O1422  O     0.78016   0.66122   0.78811   0.00000  Uiso   1.00
O1423  O     0.81779   0.52042   0.59742   0.00000  Uiso   1.00
O1424  O     0.89626   0.39654   0.95774   0.00000  Uiso   1.00
O1425  O     0.84515   0.41434   0.77821   0.00000  Uiso   1.00
O1426  O     0.70077   0.54927   0.98451   0.00000  Uiso   1.00
O1427  O     0.73327   0.55549   0.90312   0.00000  Uiso   1.00
O1428  O     0.74795   0.48058   0.58189   0.00000  Uiso   1.00
O1429  O     0.84746   0.43195   0.92056   0.00000  Uiso   1.00
O1430  O     0.81247   0.59469   0.76767   0.00000  Uiso   1.00
O1431  O     0.74119   0.46584   0.73607   0.00000  Uiso   1.00
O1432  O     0.93452   0.52512   0.71806   0.00000  Uiso   1.00
O1433  O     0.73656   0.52293   0.77820   0.00000  Uiso   1.00
O1434  O     0.92106   0.48610   0.76768   0.00000  Uiso   1.00
O1435  O     0.80467   0.40236   0.73607   0.00000  Uiso   1.00
O1436  O     0.87104   0.58860   0.71806   0.00000  Uiso   1.00
Zn1437 Zn    0.85910   0.47423   0.78278   0.00000  Uiso   1.00
Zn1438 Zn    0.80125   0.45711   0.72258   0.00000  Uiso   1.00
Zn1439 Zn    0.87833   0.52997   0.71188   0.00000  Uiso   1.00
Zn1440 Zn    0.79465   0.53868   0.78277   0.00000  Uiso   1.00
C1441  C     0.05256   0.82611   0.75939   0.00000  Uiso   1.00
C1442  C     0.18228   0.77997   0.95906   0.00000  Uiso   1.00
C1443  C     0.20503   0.76093   0.97890   0.00000  Uiso   1.00
C1444  C     0.28143   0.84032   0.74093   0.00000  Uiso   1.00
C1445  C     0.20250   0.77450   0.51956   0.00000  Uiso   1.00
C1446  C     0.17214   0.80206   0.54134   0.00000  Uiso   1.00
C1447  C     0.22941   0.76112   0.53884   0.00000  Uiso   1.00
C1448  C     0.22551   0.77330   0.57941   0.00000  Uiso   1.00
C1449  C     0.17292   0.81947   0.58035   0.00000  Uiso   1.00
C1450  C     0.32805   0.84292   0.73679   0.00000  Uiso   1.00
C1451  C     0.00728   0.82398   0.76271   0.00000  Uiso   1.00
C1452  C     0.09049   0.87245   0.92224   0.00000  Uiso   1.00
C1453  C     0.18147   0.98954   0.73894   0.00000  Uiso   1.00
C1454  C     0.15062   0.67899   0.76240   0.00000  Uiso   1.00
C1455  C     0.15584   0.72296   0.75892   0.00000  Uiso   1.00
C1456  C     0.17701   0.94451   0.74142   0.00000  Uiso   1.00
C1457  C     0.18826   0.81197   0.64371   0.00000  Uiso   1.00
C1458  C     0.14531   0.85460   0.85663   0.00000  Uiso   1.00
C1459  C     0.13139   0.85965   0.90120   0.00000  Uiso   1.00
C1460  C     0.19712   0.80272   0.60026   0.00000  Uiso   1.00
C1461  C     0.07319   0.86841   0.96340   0.00000  Uiso   1.00
C1462  C     0.02954   0.86593   0.70432   0.00000  Uiso   1.00
C1463  C     0.15657   0.84707   0.92278   0.00000  Uiso   1.00
C1464  C     0.01479   0.88877   0.67639   0.00000  Uiso   1.00
C1465  C     0.05327   0.91093   0.64726   0.00000  Uiso   1.00
C1466  C     0.25133   0.75394   0.60001   0.00000  Uiso   1.00
C1467  C     0.29134   0.78328   0.60450   0.00000  Uiso   1.00
C1468  C     0.31244   0.76726   0.63184   0.00000  Uiso   1.00
C1469  C     0.20580   0.85624   0.90779   0.00000  Uiso   1.00
C1470  C     0.22410   0.88726   0.93751   0.00000  Uiso   1.00
C1471  C     0.27280   0.89782   0.92131   0.00000  Uiso   1.00
C1472  C     0.13575   0.83448   0.96165   0.00000  Uiso   1.00
C1473  C     0.09548   0.84881   0.98332   0.00000  Uiso   1.00
C1474  C     0.15521   0.81043   0.98054   0.00000  Uiso   1.00
C1475  C     0.14340   0.81348   0.52249   0.00000  Uiso   1.00
C1476  C     0.10190   0.82488   0.54381   0.00000  Uiso   1.00
C1477  C     0.07830   0.84318   0.52448   0.00000  Uiso   1.00
H1478  H     0.25352   0.74081   0.52277   0.00000  Uiso   1.00
H1479  H     0.32725   0.79218   0.80848   0.00000  Uiso   1.00
H1480  H     0.23697   0.98859   0.69818   0.00000  Uiso   1.00
H1481  H     0.09527   0.68353   0.80214   0.00000  Uiso   1.00
H1482  H     0.16008   0.86705   0.62118   0.00000  Uiso   1.00
H1483  H     0.28950   0.76500   0.66207   0.00000  Uiso   1.00
H1484  H     0.32292   0.73616   0.61923   0.00000  Uiso   1.00
H1485  H     0.00770   0.78913   0.63487   0.00000  Uiso   1.00
H1486  H     0.31491   0.78569   0.57459   0.00000  Uiso   1.00
H1487  H     0.28271   0.81496   0.61715   0.00000  Uiso   1.00
H1488  H     0.23049   0.74552   0.62967   0.00000  Uiso   1.00
H1489  H     0.03280   0.85451   0.57427   0.00000  Uiso   1.00
H1490  H     0.26192   0.72430   0.58268   0.00000  Uiso   1.00
H1491  H     0.22733   0.70858   0.97583   0.00000  Uiso   1.00
H1492  H     0.02318   0.89736   0.96758   0.00000  Uiso   1.00
H1493  H     0.08452   0.91397   0.89190   0.00000  Uiso   1.00
H1494  H     0.28913   0.86923   0.91592   0.00000  Uiso   1.00
H1495  H     0.28076   0.91226   0.89294   0.00000  Uiso   1.00
H1496  H     0.28504   0.92018   0.94341   0.00000  Uiso   1.00
H1497  H     0.20857   0.91640   0.94330   0.00000  Uiso   1.00
H1498  H     0.21751   0.87411   0.96634   0.00000  Uiso   1.00
H1499  H     0.22212   0.82779   0.90094   0.00000  Uiso   1.00
H1500  H     0.07155   0.93470   0.66377   0.00000  Uiso   1.00
H1501  H     0.21541   0.87079   0.87937   0.00000  Uiso   1.00
H1502  H     0.09289   0.78902   0.58580   0.00000  Uiso   1.00
H1503  H     0.20140   0.74456   0.90871   0.00000  Uiso   1.00
H1504  H     0.07503   0.88821   0.62874   0.00000  Uiso   1.00
H1505  H     0.04173   0.92672   0.62718   0.00000  Uiso   1.00
H1506  H     0.33020   0.86614   0.65864   0.00000  Uiso   1.00
H1507  H     0.32732   0.91268   0.69420   0.00000  Uiso   1.00
H1508  H     0.04944   0.88947   0.71950   0.00000  Uiso   1.00
H1509  H     0.05085   0.84291   0.68532   0.00000  Uiso   1.00
O1510  O     0.16667   0.83333   0.75000   0.00000  Uiso   1.00
O1511  O     0.15693   0.79060   0.66625   0.00000  Uiso   1.00
O1512  O     0.12687   0.87313   0.83749   0.00000  Uiso   1.00
O1513  O     0.21088   0.84159   0.65877   0.00000  Uiso   1.00
O1514  O     0.17198   0.82802   0.83749   0.00000  Uiso   1.00
O1515  O     0.03821   0.85531   0.54522   0.00000  Uiso   1.00
O1516  O     0.31129   0.80337   0.79307   0.00000  Uiso   1.00
O1517  O     0.21707   0.67592   0.71279   0.00000  Uiso   1.00
O1518  O     0.11349   0.99455   0.78811   0.00000  Uiso   1.00
O1519  O     0.15112   0.85375   0.59742   0.00000  Uiso   1.00
O1520  O     0.22959   0.72987   0.95774   0.00000  Uiso   1.00
O1521  O     0.17849   0.74768   0.77821   0.00000  Uiso   1.00
O1522  O     0.03410   0.88260   0.98451   0.00000  Uiso   1.00
O1523  O     0.06661   0.88883   0.90312   0.00000  Uiso   1.00
O1524  O     0.08128   0.81391   0.58189   0.00000  Uiso   1.00
O1525  O     0.18079   0.76528   0.92056   0.00000  Uiso   1.00
O1526  O     0.14581   0.92803   0.76767   0.00000  Uiso   1.00
O1527  O     0.07452   0.79917   0.73607   0.00000  Uiso   1.00
O1528  O     0.26785   0.85845   0.71806   0.00000  Uiso   1.00
O1529  O     0.06990   0.85627   0.77820   0.00000  Uiso   1.00
O1530  O     0.25440   0.81944   0.76768   0.00000  Uiso   1.00
O1531  O     0.13800   0.73570   0.73607   0.00000  Uiso   1.00
O1532  O     0.20437   0.92193   0.71806   0.00000  Uiso   1.00
Zn1533 Zn    0.19244   0.80756   0.78278   0.00000  Uiso   1.00
Zn1534 Zn    0.13459   0.79044   0.72258   0.00000  Uiso   1.00
Zn1535 Zn    0.21166   0.86331   0.71188   0.00000  Uiso   1.00
Zn1536 Zn    0.12798   0.87202   0.78277   0.00000  Uiso   1.00
C1537  C     0.38590   0.82611   0.75939   0.00000  Uiso   1.00
C1538  C     0.51561   0.77997   0.95906   0.00000  Uiso   1.00
C1539  C     0.53837   0.76093   0.97890   0.00000  Uiso   1.00
C1540  C     0.61476   0.84032   0.74093   0.00000  Uiso   1.00
C1541  C     0.53583   0.77450   0.51956   0.00000  Uiso   1.00
C1542  C     0.50547   0.80206   0.54134   0.00000  Uiso   1.00
C1543  C     0.56275   0.76112   0.53884   0.00000  Uiso   1.00
C1544  C     0.55885   0.77330   0.57941   0.00000  Uiso   1.00
C1545  C     0.50625   0.81947   0.58035   0.00000  Uiso   1.00
C1546  C     0.66138   0.84292   0.73679   0.00000  Uiso   1.00
C1547  C     0.34061   0.82398   0.76271   0.00000  Uiso   1.00
C1548  C     0.42383   0.87245   0.92224   0.00000  Uiso   1.00
C1549  C     0.51480   0.98954   0.73894   0.00000  Uiso   1.00
C1550  C     0.48396   0.67899   0.76240   0.00000  Uiso   1.00
C1551  C     0.48918   0.72296   0.75892   0.00000  Uiso   1.00
C1552  C     0.51034   0.94451   0.74142   0.00000  Uiso   1.00
C1553  C     0.52160   0.81197   0.64371   0.00000  Uiso   1.00
C1554  C     0.47864   0.85460   0.85663   0.00000  Uiso   1.00
C1555  C     0.46473   0.85965   0.90120   0.00000  Uiso   1.00
C1556  C     0.53045   0.80272   0.60026   0.00000  Uiso   1.00
C1557  C     0.40652   0.86841   0.96340   0.00000  Uiso   1.00
C1558  C     0.36287   0.86593   0.70432   0.00000  Uiso   1.00
C1559  C     0.48990   0.84707   0.92278   0.00000  Uiso   1.00
C1560  C     0.34812   0.88877   0.67639   0.00000  Uiso   1.00
C1561  C     0.38660   0.91093   0.64726   0.00000  Uiso   1.00
C1562  C     0.58466   0.75394   0.60001   0.00000  Uiso   1.00
C1563  C     0.62467   0.78328   0.60450   0.00000  Uiso   1.00
C1564  C     0.64578   0.76726   0.63184   0.00000  Uiso   1.00
C1565  C     0.53913   0.85624   0.90779   0.00000  Uiso   1.00
C1566  C     0.55744   0.88726   0.93751   0.00000  Uiso   1.00
C1567  C     0.60613   0.89782   0.92131   0.00000  Uiso   1.00
C1568  C     0.46908   0.83448   0.96165   0.00000  Uiso   1.00
C1569  C     0.42881   0.84881   0.98332   0.00000  Uiso   1.00
C1570  C     0.48854   0.81043   0.98054   0.00000  Uiso   1.00
C1571  C     0.47673   0.81348   0.52249   0.00000  Uiso   1.00
C1572  C     0.43523   0.82488   0.54381   0.00000  Uiso   1.00
C1573  C     0.41164   0.84318   0.52448   0.00000  Uiso   1.00
H1574  H     0.58686   0.74081   0.52277   0.00000  Uiso   1.00
H1575  H     0.66059   0.79218   0.80848   0.00000  Uiso   1.00
H1576  H     0.57030   0.98859   0.69818   0.00000  Uiso   1.00
H1577  H     0.42861   0.68353   0.80214   0.00000  Uiso   1.00
H1578  H     0.49341   0.86705   0.62118   0.00000  Uiso   1.00
H1579  H     0.62284   0.76500   0.66207   0.00000  Uiso   1.00
H1580  H     0.65625   0.73616   0.61923   0.00000  Uiso   1.00
H1581  H     0.34103   0.78913   0.63487   0.00000  Uiso   1.00
H1582  H     0.64825   0.78569   0.57459   0.00000  Uiso   1.00
H1583  H     0.61605   0.81496   0.61715   0.00000  Uiso   1.00
H1584  H     0.56383   0.74552   0.62967   0.00000  Uiso   1.00
H1585  H     0.36613   0.85451   0.57427   0.00000  Uiso   1.00
H1586  H     0.59525   0.72430   0.58268   0.00000  Uiso   1.00
H1587  H     0.56067   0.70858   0.97583   0.00000  Uiso   1.00
H1588  H     0.35651   0.89736   0.96758   0.00000  Uiso   1.00
H1589  H     0.41785   0.91397   0.89190   0.00000  Uiso   1.00
H1590  H     0.62246   0.86923   0.91592   0.00000  Uiso   1.00
H1591  H     0.61410   0.91226   0.89294   0.00000  Uiso   1.00
H1592  H     0.61837   0.92018   0.94341   0.00000  Uiso   1.00
H1593  H     0.54190   0.91640   0.94330   0.00000  Uiso   1.00
H1594  H     0.55084   0.87411   0.96634   0.00000  Uiso   1.00
H1595  H     0.55545   0.82779   0.90094   0.00000  Uiso   1.00
H1596  H     0.40488   0.93470   0.66377   0.00000  Uiso   1.00
H1597  H     0.54875   0.87079   0.87937   0.00000  Uiso   1.00
H1598  H     0.42622   0.78902   0.58580   0.00000  Uiso   1.00
H1599  H     0.53474   0.74456   0.90871   0.00000  Uiso   1.00
H1600  H     0.40837   0.88821   0.62874   0.00000  Uiso   1.00
H1601  H     0.37506   0.92672   0.62718   0.00000  Uiso   1.00
H1602  H     0.66353   0.86614   0.65864   0.00000  Uiso   1.00
H1603  H     0.66066   0.91268   0.69420   0.00000  Uiso   1.00
H1604  H     0.38277   0.88947   0.71950   0.00000  Uiso   1.00
H1605  H     0.38418   0.84291   0.68532   0.00000  Uiso   1.00
O1606  O     0.50000   0.83333   0.75000   0.00000  Uiso   1.00
O1607  O     0.49027   0.79060   0.66625   0.00000  Uiso   1.00
O1608  O     0.46020   0.87313   0.83749   0.00000  Uiso   1.00
O1609  O     0.54421   0.84159   0.65877   0.00000  Uiso   1.00
O1610  O     0.50532   0.82802   0.83749   0.00000  Uiso   1.00
O1611  O     0.37154   0.85531   0.54522   0.00000  Uiso   1.00
O1612  O     0.64462   0.80337   0.79307   0.00000  Uiso   1.00
O1613  O     0.55040   0.67592   0.71279   0.00000  Uiso   1.00
O1614  O     0.44682   0.99455   0.78811   0.00000  Uiso   1.00
O1615  O     0.48445   0.85375   0.59742   0.00000  Uiso   1.00
O1616  O     0.56293   0.72987   0.95774   0.00000  Uiso   1.00
O1617  O     0.51182   0.74768   0.77821   0.00000  Uiso   1.00
O1618  O     0.36744   0.88260   0.98451   0.00000  Uiso   1.00
O1619  O     0.39994   0.88883   0.90312   0.00000  Uiso   1.00
O1620  O     0.41462   0.81391   0.58189   0.00000  Uiso   1.00
O1621  O     0.51412   0.76528   0.92056   0.00000  Uiso   1.00
O1622  O     0.47914   0.92803   0.76767   0.00000  Uiso   1.00
O1623  O     0.40785   0.79917   0.73607   0.00000  Uiso   1.00
O1624  O     0.60119   0.85845   0.71806   0.00000  Uiso   1.00
O1625  O     0.40323   0.85627   0.77820   0.00000  Uiso   1.00
O1626  O     0.58773   0.81944   0.76768   0.00000  Uiso   1.00
O1627  O     0.47133   0.73570   0.73607   0.00000  Uiso   1.00
O1628  O     0.53771   0.92193   0.71806   0.00000  Uiso   1.00
Zn1629 Zn    0.52577   0.80756   0.78278   0.00000  Uiso   1.00
Zn1630 Zn    0.46792   0.79044   0.72258   0.00000  Uiso   1.00
Zn1631 Zn    0.54500   0.86331   0.71188   0.00000  Uiso   1.00
Zn1632 Zn    0.46131   0.87202   0.78277   0.00000  Uiso   1.00
C1633  C     0.71923   0.82611   0.75939   0.00000  Uiso   1.00
C1634  C     0.84895   0.77997   0.95906   0.00000  Uiso   1.00
C1635  C     0.87170   0.76093   0.97890   0.00000  Uiso   1.00
C1636  C     0.94810   0.84032   0.74093   0.00000  Uiso   1.00
C1637  C     0.86917   0.77450   0.51956   0.00000  Uiso   1.00
C1638  C     0.83881   0.80206   0.54134   0.00000  Uiso   1.00
C1639  C     0.89608   0.76112   0.53884   0.00000  Uiso   1.00
C1640  C     0.89218   0.77330   0.57941   0.00000  Uiso   1.00
C1641  C     0.83958   0.81947   0.58035   0.00000  Uiso   1.00
C1642  C     0.99472   0.84292   0.73679   0.00000  Uiso   1.00
C1643  C     0.67394   0.82398   0.76271   0.00000  Uiso   1.00
C1644  C     0.75716   0.87245   0.92224   0.00000  Uiso   1.00
C1645  C     0.84814   0.98954   0.73894   0.00000  Uiso   1.00
C1646  C     0.81729   0.67899   0.76240   0.00000  Uiso   1.00
C1647  C     0.82251   0.72296   0.75892   0.00000  Uiso   1.00
C1648  C     0.84368   0.94451   0.74142   0.00000  Uiso   1.00
C1649  C     0.85493   0.81197   0.64371   0.00000  Uiso   1.00
C1650  C     0.81198   0.85460   0.85663   0.00000  Uiso   1.00
C1651  C     0.79806   0.85965   0.90120   0.00000  Uiso   1.00
C1652  C     0.86379   0.80272   0.60026   0.00000  Uiso   1.00
C1653  C     0.73985   0.86841   0.96340   0.00000  Uiso   1.00
C1654  C     0.69621   0.86593   0.70432   0.00000  Uiso   1.00
C1655  C     0.82323   0.84707   0.92278   0.00000  Uiso   1.00
C1656  C     0.68145   0.88877   0.67639   0.00000  Uiso   1.00
C1657  C     0.71993   0.91093   0.64726   0.00000  Uiso   1.00
C1658  C     0.91799   0.75394   0.60001   0.00000  Uiso   1.00
C1659  C     0.95800   0.78328   0.60450   0.00000  Uiso   1.00
C1660  C     0.97911   0.76726   0.63184   0.00000  Uiso   1.00
C1661  C     0.87246   0.85624   0.90779   0.00000  Uiso   1.00
C1662  C     0.89077   0.88726   0.93751   0.00000  Uiso   1.00
C1663  C     0.93946   0.89782   0.92131   0.00000  Uiso   1.00
C1664  C     0.80242   0.83448   0.96165   0.00000  Uiso   1.00
C1665  C     0.76214   0.84881   0.98332   0.00000  Uiso   1.00
C1666  C     0.82188   0.81043   0.98054   0.00000  Uiso   1.00
C1667  C     0.81006   0.81348   0.52249   0.00000  Uiso   1.00
C1668  C     0.76856   0.82488   0.54381   0.00000  Uiso   1.00
C1669  C     0.74497   0.84318   0.52448   0.00000  Uiso   1.00
H1670  H     0.92019   0.74081   0.52277   0.00000  Uiso   1.00
H1671  H     0.99392   0.79218   0.80848   0.00000  Uiso   1.00
H1672  H     0.90364   0.98859   0.69818   0.00000  Uiso   1.00
H1673  H     0.76194   0.68353   0.80214   0.00000  Uiso   1.00
H1674  H     0.82675   0.86705   0.62118   0.00000  Uiso   1.00
H1675  H     0.95617   0.76500   0.66207   0.00000  Uiso   1.00
H1676  H     0.98959   0.73616   0.61923   0.00000  Uiso   1.00
H1677  H     0.67436   0.78913   0.63487   0.00000  Uiso   1.00
H1678  H     0.98158   0.78569   0.57459   0.00000  Uiso   1.00
H1679  H     0.94938   0.81496   0.61715   0.00000  Uiso   1.00
H1680  H     0.89716   0.74552   0.62967   0.00000  Uiso   1.00
H1681  H     0.69947   0.85451   0.57427   0.00000  Uiso   1.00
H1682  H     0.92859   0.72430   0.58268   0.00000  Uiso   1.00
H1683  H     0.89400   0.70858   0.97583   0.00000  Uiso   1.00
H1684  H     0.68985   0.89736   0.96758   0.00000  Uiso   1.00
H1685  H     0.75118   0.91397   0.89190   0.00000  Uiso   1.00
H1686  H     0.95579   0.86923   0.91592   0.00000  Uiso   1.00
H1687  H     0.94743   0.91226   0.89294   0.00000  Uiso   1.00
H1688  H     0.95171   0.92018   0.94341   0.00000  Uiso   1.00
H1689  H     0.87523   0.91640   0.94330   0.00000  Uiso   1.00
H1690  H     0.88417   0.87411   0.96634   0.00000  Uiso   1.00
H1691  H     0.88878   0.82779   0.90094   0.00000  Uiso   1.00
H1692  H     0.73821   0.93470   0.66377   0.00000  Uiso   1.00
H1693  H     0.88208   0.87079   0.87937   0.00000  Uiso   1.00
H1694  H     0.75956   0.78902   0.58580   0.00000  Uiso   1.00
H1695  H     0.86807   0.74456   0.90871   0.00000  Uiso   1.00
H1696  H     0.74170   0.88821   0.62874   0.00000  Uiso   1.00
H1697  H     0.70840   0.92672   0.62718   0.00000  Uiso   1.00
H1698  H     0.99686   0.86614   0.65864   0.00000  Uiso   1.00
H1699  H     0.99399   0.91268   0.69420   0.00000  Uiso   1.00
H1700  H     0.71611   0.88947   0.71950   0.00000  Uiso   1.00
H1701  H     0.71752   0.84291   0.68532   0.00000  Uiso   1.00
O1702  O     0.83333   0.83333   0.75000   0.00000  Uiso   1.00
O1703  O     0.82360   0.79060   0.66625   0.00000  Uiso   1.00
O1704  O     0.79354   0.87313   0.83749   0.00000  Uiso   1.00
O1705  O     0.87755   0.84159   0.65877   0.00000  Uiso   1.00
O1706  O     0.83865   0.82802   0.83749   0.00000  Uiso   1.00
O1707  O     0.70488   0.85531   0.54522   0.00000  Uiso   1.00
O1708  O     0.97796   0.80337   0.79307   0.00000  Uiso   1.00
O1709  O     0.88373   0.67592   0.71279   0.00000  Uiso   1.00
O1710  O     0.78016   0.99455   0.78811   0.00000  Uiso   1.00
O1711  O     0.81779   0.85375   0.59742   0.00000  Uiso   1.00
O1712  O     0.89626   0.72987   0.95774   0.00000  Uiso   1.00
O1713  O     0.84515   0.74768   0.77821   0.00000  Uiso   1.00
O1714  O     0.70077   0.88260   0.98451   0.00000  Uiso   1.00
O1715  O     0.73327   0.88883   0.90312   0.00000  Uiso   1.00
O1716  O     0.74795   0.81391   0.58189   0.00000  Uiso   1.00
O1717  O     0.84746   0.76528   0.92056   0.00000  Uiso   1.00
O1718  O     0.81247   0.92803   0.76767   0.00000  Uiso   1.00
O1719  O     0.74119   0.79917   0.73607   0.00000  Uiso   1.00
O1720  O     0.93452   0.85845   0.71806   0.00000  Uiso   1.00
O1721  O     0.73656   0.85627   0.77820   0.00000  Uiso   1.00
O1722  O     0.92106   0.81944   0.76768   0.00000  Uiso   1.00
O1723  O     0.80467   0.73570   0.73607   0.00000  Uiso   1.00
O1724  O     0.87104   0.92193   0.71806   0.00000  Uiso   1.00
Zn1725 Zn    0.85910   0.80756   0.78278   0.00000  Uiso   1.00
Zn1726 Zn    0.80125   0.79044   0.72258   0.00000  Uiso   1.00
Zn1727 Zn    0.87833   0.86331   0.71188   0.00000  Uiso   1.00
Zn1728 Zn    0.79465   0.87202   0.78277   0.00000  Uiso   1.00
loop_
_geom_bond_atom_site_label_1
_geom_bond_atom_site_label_2
_geom_bond_distance
_geom_bond_site_symmetry_2
_ccdc_geom_bond_type
C1     O87     1.265   .     A
C1     C11     1.443   .     S
C1     O89     1.264   .     A
C2     O85     1.385   .     S
C2     C34     1.415   .     A
C2     C3      1.416   .     A
C3     O80     1.381   .     S
C3     C869    1.420   .     S
C4     O90     1.282   .     A
C4     C10     1.479   .     S
C4     O88     1.276   .     A
C5     C6      1.417   .     A
C5     C7      1.409   .     A
C5     C867    1.420   1_554 S
C6     C9      1.416   .     A
C6     C35     1.419   .     A
C7     C8      1.401   .     A
C7     H38     1.082   .     S
C8     C26     1.517   .     S
C8     C20     1.411   .     A
C9     O79     1.386   .     S
C9     C20     1.411   .     A
C10    C107    1.360   .     S
C10    C118    1.544   .     S
C11    C202    1.360   1_455 S
C11    O268    1.385   1_455 S
C12    C21     1.410   .     A
C12    O83     1.377   .     S
C12    C19     1.417   .     A
C13    C16     1.469   .     S
C13    C302    1.347   .     S
C13    O365    1.388   .     S
C14    C15     1.439   .     S
C14    C589    1.347   1_545 S
C14    O654    1.385   1_545 S
C15    O81     1.273   .     A
C15    O91     1.270   .     A
C16    O86     1.266   .     A
C16    O92     1.270   .     A
C17    C20     1.467   .     S
C17    O73     1.278   .     A
C17    O71     1.276   .     A
C18    C19     1.492   .     S
C18    O74     1.298   .     A
C18    O72     1.287   .     A
C19    C23     1.411   .     A
C21    C33     1.418   .     A
C21    O82     1.386   .     S
C22    H69     1.113   .     S
C22    H68     1.113   .     S
C22    C24     1.537   .     S
C22    C202    1.544   1_455 S
C23    C29     1.535   .     S
C23    C32     1.426   .     A
C24    C25     1.527   .     S
C24    H258    1.111   1_455 S
C24    H259    1.111   1_455 S
C25    H60     1.111   .     S
C25    H65     1.110   .     S
C25    H64     1.109   .     S
C26    C27     1.534   .     S
C26    H50     1.112   .     S
C26    H48     1.112   .     S
C27    H46     1.111   .     S
C27    H47     1.110   .     S
C27    C28     1.527   .     S
C28    H44     1.111   .     S
C28    H43     1.111   .     S
C28    H141    1.109   .     S
C29    H59     1.104   .     S
C29    H61     1.110   .     S
C29    C30     1.538   .     S
C30    H57     1.112   .     S
C30    C31     1.527   .     S
C30    H58     1.110   .     S
C31    H56     1.110   .     S
C31    H54     1.111   .     S
C31    H55     1.111   .     S
C32    C34     1.421   .     A
C32    C33     1.424   .     A
C33    C901    1.420   .     S
C34    C899    1.406   .     S
C35    C36     1.419   .     A
C35    C898    1.406   1_554 S
C36    C37     1.410   .     A
C36    O84     1.383   .     S
C37    O75     1.385   .     S
C37    C897    1.420   1_554 S
H39    O76     0.993   .     S
H40    O365    0.990   .     S
H41    O654    0.992   1_545 S
H42    O79     0.989   .     S
H45    C220    1.109   1_455 S
H49    O75     0.990   .     S
H51    O80     0.990   .     S
H52    O82     0.989   .     S
H53    O83     0.992   .     S
H62    O84     0.991   .     S
H63    O85     0.989   .     S
H66    C120    1.111   .     S
H67    C120    1.111   .     S
O70    Zn94    1.940   .     S
O70    Zn93    1.957   .     S
O70    Zn96    1.932   .     S
O70    Zn95    1.923   .     S
O71    Zn94    1.902   .     S
O72    Zn96    1.913   .     S
O73    Zn95    1.910   .     S
O74    Zn93    1.901   .     S
O76    C107    1.385   .     S
O77    C589    1.388   1_545 S
O77    H616    0.990   1_545 S
O78    C302    1.385   .     S
O78    H329    0.992   .     S
O81    Zn93    1.935   .     S
O86    Zn96    1.935   .     S
O87    Zn94    1.936   .     S
O88    Zn95    1.946   .     S
O89    Zn96    1.939   .     S
O90    Zn93    1.929   .     S
O91    Zn94    1.943   .     S
O92    Zn95    1.940   .     S
C97    O183    1.265   .     A
C97    C107    1.443   .     S
C97    O185    1.264   .     A
C98    O181    1.385   .     S
C98    C130    1.415   .     A
C98    C99     1.416   .     A
C99    O176    1.381   .     S
C99    C965    1.420   .     S
C100   O186    1.282   .     A
C100   C106    1.479   .     S
C100   O184    1.276   .     A
C101   C102    1.417   .     A
C101   C103    1.409   .     A
C101   C963    1.420   1_554 S
C102   C105    1.416   .     A
C102   C131    1.419   .     A
C103   C104    1.401   .     A
C103   H134    1.082   .     S
C104   C122    1.517   .     S
C104   C116    1.411   .     A
C105   O175    1.386   .     S
C105   C116    1.411   .     A
C106   C203    1.360   .     S
C106   C214    1.544   .     S
C108   C117    1.410   .     A
C108   O179    1.377   .     S
C108   C115    1.417   .     A
C109   C112    1.469   .     S
C109   C398    1.347   .     S
C109   O461    1.388   .     S
C110   C111    1.439   .     S
C110   C685    1.347   1_545 S
C110   O750    1.385   1_545 S
C111   O177    1.273   .     A
C111   O187    1.270   .     A
C112   O182    1.266   .     A
C112   O188    1.270   .     A
C113   C116    1.467   .     S
C113   O169    1.278   .     A
C113   O167    1.276   .     A
C114   C115    1.492   .     S
C114   O170    1.298   .     A
C114   O168    1.287   .     A
C115   C119    1.411   .     A
C117   C129    1.418   .     A
C117   O178    1.386   .     S
C118   H165    1.113   .     S
C118   H164    1.113   .     S
C118   C120    1.537   .     S
C119   C125    1.535   .     S
C119   C128    1.426   .     A
C120   C121    1.527   .     S
C121   H156    1.111   .     S
C121   H161    1.110   .     S
C121   H160    1.109   .     S
C122   C123    1.534   .     S
C122   H146    1.112   .     S
C122   H144    1.112   .     S
C123   H142    1.111   .     S
C123   H143    1.110   .     S
C123   C124    1.527   .     S
C124   H140    1.111   .     S
C124   H139    1.111   .     S
C124   H237    1.109   .     S
C125   H155    1.104   .     S
C125   H157    1.110   .     S
C125   C126    1.538   .     S
C126   H153    1.112   .     S
C126   C127    1.527   .     S
C126   H154    1.110   .     S
C127   H152    1.110   .     S
C127   H150    1.111   .     S
C127   H151    1.111   .     S
C128   C130    1.421   .     A
C128   C129    1.424   .     A
C129   C997    1.420   .     S
C130   C995    1.406   .     S
C131   C132    1.419   .     A
C131   C994    1.406   1_554 S
C132   C133    1.410   .     A
C132   O180    1.383   .     S
C133   O171    1.385   .     S
C133   C993    1.420   1_554 S
H135   O172    0.993   .     S
H136   O461    0.990   .     S
H137   O750    0.992   1_545 S
H138   O175    0.989   .     S
H145   O171    0.990   .     S
H147   O176    0.990   .     S
H148   O178    0.989   .     S
H149   O179    0.992   .     S
H158   O180    0.991   .     S
H159   O181    0.989   .     S
H162   C216    1.111   .     S
H163   C216    1.111   .     S
O166   Zn190   1.940   .     S
O166   Zn189   1.957   .     S
O166   Zn192   1.932   .     S
O166   Zn191   1.923   .     S
O167   Zn190   1.902   .     S
O168   Zn192   1.913   .     S
O169   Zn191   1.910   .     S
O170   Zn189   1.901   .     S
O172   C203    1.385   .     S
O173   C685    1.388   1_545 S
O173   H712    0.990   1_545 S
O174   C398    1.385   .     S
O174   H425    0.992   .     S
O177   Zn189   1.935   .     S
O182   Zn192   1.935   .     S
O183   Zn190   1.936   .     S
O184   Zn191   1.946   .     S
O185   Zn192   1.939   .     S
O186   Zn189   1.929   .     S
O187   Zn190   1.943   .     S
O188   Zn191   1.940   .     S
C193   O279    1.265   .     A
C193   C203    1.443   .     S
C193   O281    1.264   .     A
C194   O277    1.385   .     S
C194   C226    1.415   .     A
C194   C195    1.416   .     A
C195   O272    1.381   .     S
C195   C1061   1.420   .     S
C196   O282    1.282   .     A
C196   C202    1.479   .     S
C196   O280    1.276   .     A
C197   C198    1.417   .     A
C197   C199    1.409   .     A
C197   C1059   1.420   1_554 S
C198   C201    1.416   .     A
C198   C227    1.419   .     A
C199   C200    1.401   .     A
C199   H230    1.082   .     S
C200   C218    1.517   .     S
C200   C212    1.411   .     A
C201   O271    1.386   .     S
C201   C212    1.411   .     A
C202   C11     1.360   1_655 S
C202   C22     1.544   1_655 S
C204   C213    1.410   .     A
C204   O275    1.377   .     S
C204   C211    1.417   .     A
C205   C208    1.469   .     S
C205   C494    1.347   .     S
C205   O557    1.388   .     S
C206   C207    1.439   .     S
C206   C781    1.347   1_545 S
C206   O846    1.385   1_545 S
C207   O273    1.273   .     A
C207   O283    1.270   .     A
C208   O278    1.266   .     A
C208   O284    1.270   .     A
C209   C212    1.467   .     S
C209   O265    1.278   .     A
C209   O263    1.276   .     A
C210   C211    1.492   .     S
C210   O266    1.298   .     A
C210   O264    1.287   .     A
C211   C215    1.411   .     A
C213   C225    1.418   .     A
C213   O274    1.386   .     S
C214   H261    1.113   .     S
C214   H260    1.113   .     S
C214   C216    1.537   .     S
C215   C221    1.535   .     S
C215   C224    1.426   .     A
C216   C217    1.527   .     S
C217   H252    1.111   .     S
C217   H257    1.110   .     S
C217   H256    1.109   .     S
C218   C219    1.534   .     S
C218   H242    1.112   .     S
C218   H240    1.112   .     S
C219   H238    1.111   .     S
C219   H239    1.110   .     S
C219   C220    1.527   .     S
C220   H236    1.111   .     S
C220   H235    1.111   .     S
C220   H45     1.109   1_655 S
C221   H251    1.104   .     S
C221   H253    1.110   .     S
C221   C222    1.538   .     S
C222   H249    1.112   .     S
C222   C223    1.527   .     S
C222   H250    1.110   .     S
C223   H248    1.110   .     S
C223   H246    1.111   .     S
C223   H247    1.111   .     S
C224   C226    1.421   .     A
C224   C225    1.424   .     A
C225   C1093   1.420   .     S
C226   C1091   1.406   .     S
C227   C228    1.419   .     A
C227   C1090   1.406   1_554 S
C228   C229    1.410   .     A
C228   O276    1.383   .     S
C229   O267    1.385   .     S
C229   C1089   1.420   1_554 S
H231   O268    0.993   .     S
H232   O557    0.990   .     S
H233   O846    0.992   1_545 S
H234   O271    0.989   .     S
H241   O267    0.990   .     S
H243   O272    0.990   .     S
H244   O274    0.989   .     S
H245   O275    0.992   .     S
H254   O276    0.991   .     S
H255   O277    0.989   .     S
H258   C24     1.111   1_655 S
H259   C24     1.111   1_655 S
O262   Zn286   1.940   .     S
O262   Zn285   1.957   .     S
O262   Zn288   1.932   .     S
O262   Zn287   1.923   .     S
O263   Zn286   1.902   .     S
O264   Zn288   1.913   .     S
O265   Zn287   1.910   .     S
O266   Zn285   1.901   .     S
O268   C11     1.385   1_655 S
O269   C781    1.388   1_545 S
O269   H808    0.990   1_545 S
O270   C494    1.385   .     S
O270   H521    0.992   .     S
O273   Zn285   1.935   .     S
O278   Zn288   1.935   .     S
O279   Zn286   1.936   .     S
O280   Zn287   1.946   .     S
O281   Zn288   1.939   .     S
O282   Zn285   1.929   .     S
O283   Zn286   1.943   .     S
O284   Zn287   1.940   .     S
C289   O375    1.265   .     A
C289   C299    1.443   .     S
C289   O377    1.264   .     A
C290   O373    1.385   .     S
C290   C322    1.415   .     A
C290   C291    1.416   .     A
C291   O368    1.381   .     S
C291   C1157   1.420   .     S
C292   O378    1.282   .     A
C292   C298    1.479   .     S
C292   O376    1.276   .     A
C293   C294    1.417   .     A
C293   C295    1.409   .     A
C293   C1155   1.420   1_554 S
C294   C297    1.416   .     A
C294   C323    1.419   .     A
C295   C296    1.401   .     A
C295   H326    1.082   .     S
C296   C314    1.517   .     S
C296   C308    1.411   .     A
C297   O367    1.386   .     S
C297   C308    1.411   .     A
C298   C395    1.360   .     S
C298   C406    1.544   .     S
C299   C490    1.360   1_455 S
C299   O556    1.385   1_455 S
C300   C309    1.410   .     A
C300   O371    1.377   .     S
C300   C307    1.417   .     A
C301   C304    1.469   .     S
C301   C590    1.347   .     S
C301   O653    1.388   .     S
C302   C303    1.439   .     S
C303   O369    1.273   .     A
C303   O379    1.270   .     A
C304   O374    1.266   .     A
C304   O380    1.270   .     A
C305   C308    1.467   .     S
C305   O361    1.278   .     A
C305   O359    1.276   .     A
C306   C307    1.492   .     S
C306   O362    1.298   .     A
C306   O360    1.287   .     A
C307   C311    1.411   .     A
C309   C321    1.418   .     A
C309   O370    1.386   .     S
C310   H357    1.113   .     S
C310   H356    1.113   .     S
C310   C312    1.537   .     S
C310   C490    1.544   1_455 S
C311   C317    1.535   .     S
C311   C320    1.426   .     A
C312   C313    1.527   .     S
C312   H546    1.111   1_455 S
C312   H547    1.111   1_455 S
C313   H348    1.111   .     S
C313   H353    1.110   .     S
C313   H352    1.109   .     S
C314   C315    1.534   .     S
C314   H338    1.112   .     S
C314   H336    1.112   .     S
C315   H334    1.111   .     S
C315   H335    1.110   .     S
C315   C316    1.527   .     S
C316   H332    1.111   .     S
C316   H331    1.111   .     S
C316   H429    1.109   .     S
C317   H347    1.104   .     S
C317   H349    1.110   .     S
C317   C318    1.538   .     S
C318   H345    1.112   .     S
C318   C319    1.527   .     S
C318   H346    1.110   .     S
C319   H344    1.110   .     S
C319   H342    1.111   .     S
C319   H343    1.111   .     S
C320   C322    1.421   .     A
C320   C321    1.424   .     A
C321   C1189   1.420   .     S
C322   C1187   1.406   .     S
C323   C324    1.419   .     A
C323   C1186   1.406   1_554 S
C324   C325    1.410   .     A
C324   O372    1.383   .     S
C325   O363    1.385   .     S
C325   C1185   1.420   1_554 S
H327   O364    0.993   .     S
H328   O653    0.990   .     S
H330   O367    0.989   .     S
H333   C508    1.109   1_455 S
H337   O363    0.990   .     S
H339   O368    0.990   .     S
H340   O370    0.989   .     S
H341   O371    0.992   .     S
H350   O372    0.991   .     S
H351   O373    0.989   .     S
H354   C408    1.111   .     S
H355   C408    1.111   .     S
O358   Zn382   1.940   .     S
O358   Zn381   1.957   .     S
O358   Zn384   1.932   .     S
O358   Zn383   1.923   .     S
O359   Zn382   1.902   .     S
O360   Zn384   1.913   .     S
O361   Zn383   1.910   .     S
O362   Zn381   1.901   .     S
O364   C395    1.385   .     S
O366   C590    1.385   .     S
O366   H617    0.992   .     S
O369   Zn381   1.935   .     S
O374   Zn384   1.935   .     S
O375   Zn382   1.936   .     S
O376   Zn383   1.946   .     S
O377   Zn384   1.939   .     S
O378   Zn381   1.929   .     S
O379   Zn382   1.943   .     S
O380   Zn383   1.940   .     S
C385   O471    1.265   .     A
C385   C395    1.443   .     S
C385   O473    1.264   .     A
C386   O469    1.385   .     S
C386   C418    1.415   .     A
C386   C387    1.416   .     A
C387   O464    1.381   .     S
C387   C1253   1.420   .     S
C388   O474    1.282   .     A
C388   C394    1.479   .     S
C388   O472    1.276   .     A
C389   C390    1.417   .     A
C389   C391    1.409   .     A
C389   C1251   1.420   1_554 S
C390   C393    1.416   .     A
C390   C419    1.419   .     A
C391   C392    1.401   .     A
C391   H422    1.082   .     S
C392   C410    1.517   .     S
C392   C404    1.411   .     A
C393   O463    1.386   .     S
C393   C404    1.411   .     A
C394   C491    1.360   .     S
C394   C502    1.544   .     S
C396   C405    1.410   .     A
C396   O467    1.377   .     S
C396   C403    1.417   .     A
C397   C400    1.469   .     S
C397   C686    1.347   .     S
C397   O749    1.388   .     S
C398   C399    1.439   .     S
C399   O465    1.273   .     A
C399   O475    1.270   .     A
C400   O470    1.266   .     A
C400   O476    1.270   .     A
C401   C404    1.467   .     S
C401   O457    1.278   .     A
C401   O455    1.276   .     A
C402   C403    1.492   .     S
C402   O458    1.298   .     A
C402   O456    1.287   .     A
C403   C407    1.411   .     A
C405   C417    1.418   .     A
C405   O466    1.386   .     S
C406   H453    1.113   .     S
C406   H452    1.113   .     S
C406   C408    1.537   .     S
C407   C413    1.535   .     S
C407   C416    1.426   .     A
C408   C409    1.527   .     S
C409   H444    1.111   .     S
C409   H449    1.110   .     S
C409   H448    1.109   .     S
C410   C411    1.534   .     S
C410   H434    1.112   .     S
C410   H432    1.112   .     S
C411   H430    1.111   .     S
C411   H431    1.110   .     S
C411   C412    1.527   .     S
C412   H428    1.111   .     S
C412   H427    1.111   .     S
C412   H525    1.109   .     S
C413   H443    1.104   .     S
C413   H445    1.110   .     S
C413   C414    1.538   .     S
C414   H441    1.112   .     S
C414   C415    1.527   .     S
C414   H442    1.110   .     S
C415   H440    1.110   .     S
C415   H438    1.111   .     S
C415   H439    1.111   .     S
C416   C418    1.421   .     A
C416   C417    1.424   .     A
C417   C1285   1.420   .     S
C418   C1283   1.406   .     S
C419   C420    1.419   .     A
C419   C1282   1.406   1_554 S
C420   C421    1.410   .     A
C420   O468    1.383   .     S
C421   O459    1.385   .     S
C421   C1281   1.420   1_554 S
H423   O460    0.993   .     S
H424   O749    0.990   .     S
H426   O463    0.989   .     S
H433   O459    0.990   .     S
H435   O464    0.990   .     S
H436   O466    0.989   .     S
H437   O467    0.992   .     S
H446   O468    0.991   .     S
H447   O469    0.989   .     S
H450   C504    1.111   .     S
H451   C504    1.111   .     S
O454   Zn478   1.940   .     S
O454   Zn477   1.957   .     S
O454   Zn480   1.932   .     S
O454   Zn479   1.923   .     S
O455   Zn478   1.902   .     S
O456   Zn480   1.913   .     S
O457   Zn479   1.910   .     S
O458   Zn477   1.901   .     S
O460   C491    1.385   .     S
O462   C686    1.385   .     S
O462   H713    0.992   .     S
O465   Zn477   1.935   .     S
O470   Zn480   1.935   .     S
O471   Zn478   1.936   .     S
O472   Zn479   1.946   .     S
O473   Zn480   1.939   .     S
O474   Zn477   1.929   .     S
O475   Zn478   1.943   .     S
O476   Zn479   1.940   .     S
C481   O567    1.265   .     A
C481   C491    1.443   .     S
C481   O569    1.264   .     A
C482   O565    1.385   .     S
C482   C514    1.415   .     A
C482   C483    1.416   .     A
C483   O560    1.381   .     S
C483   C1349   1.420   .     S
C484   O570    1.282   .     A
C484   C490    1.479   .     S
C484   O568    1.276   .     A
C485   C486    1.417   .     A
C485   C487    1.409   .     A
C485   C1347   1.420   1_554 S
C486   C489    1.416   .     A
C486   C515    1.419   .     A
C487   C488    1.401   .     A
C487   H518    1.082   .     S
C488   C506    1.517   .     S
C488   C500    1.411   .     A
C489   O559    1.386   .     S
C489   C500    1.411   .     A
C490   C299    1.360   1_655 S
C490   C310    1.544   1_655 S
C492   C501    1.410   .     A
C492   O563    1.377   .     S
C492   C499    1.417   .     A
C493   C496    1.469   .     S
C493   C782    1.347   .     S
C493   O845    1.388   .     S
C494   C495    1.439   .     S
C495   O561    1.273   .     A
C495   O571    1.270   .     A
C496   O566    1.266   .     A
C496   O572    1.270   .     A
C497   C500    1.467   .     S
C497   O553    1.278   .     A
C497   O551    1.276   .     A
C498   C499    1.492   .     S
C498   O554    1.298   .     A
C498   O552    1.287   .     A
C499   C503    1.411   .     A
C501   C513    1.418   .     A
C501   O562    1.386   .     S
C502   H549    1.113   .     S
C502   H548    1.113   .     S
C502   C504    1.537   .     S
C503   C509    1.535   .     S
C503   C512    1.426   .     A
C504   C505    1.527   .     S
C505   H540    1.111   .     S
C505   H545    1.110   .     S
C505   H544    1.109   .     S
C506   C507    1.534   .     S
C506   H530    1.112   .     S
C506   H528    1.112   .     S
C507   H526    1.111   .     S
C507   H527    1.110   .     S
C507   C508    1.527   .     S
C508   H524    1.111   .     S
C508   H523    1.111   .     S
C508   H333    1.109   1_655 S
C509   H539    1.104   .     S
C509   H541    1.110   .     S
C509   C510    1.538   .     S
C510   H537    1.112   .     S
C510   C511    1.527   .     S
C510   H538    1.110   .     S
C511   H536    1.110   .     S
C511   H534    1.111   .     S
C511   H535    1.111   .     S
C512   C514    1.421   .     A
C512   C513    1.424   .     A
C513   C1381   1.420   .     S
C514   C1379   1.406   .     S
C515   C516    1.419   .     A
C515   C1378   1.406   1_554 S
C516   C517    1.410   .     A
C516   O564    1.383   .     S
C517   O555    1.385   .     S
C517   C1377   1.420   1_554 S
H519   O556    0.993   .     S
H520   O845    0.990   .     S
H522   O559    0.989   .     S
H529   O555    0.990   .     S
H531   O560    0.990   .     S
H532   O562    0.989   .     S
H533   O563    0.992   .     S
H542   O564    0.991   .     S
H543   O565    0.989   .     S
H546   C312    1.111   1_655 S
H547   C312    1.111   1_655 S
O550   Zn574   1.940   .     S
O550   Zn573   1.957   .     S
O550   Zn576   1.932   .     S
O550   Zn575   1.923   .     S
O551   Zn574   1.902   .     S
O552   Zn576   1.913   .     S
O553   Zn575   1.910   .     S
O554   Zn573   1.901   .     S
O556   C299    1.385   1_655 S
O558   C782    1.385   .     S
O558   H809    0.992   .     S
O561   Zn573   1.935   .     S
O566   Zn576   1.935   .     S
O567   Zn574   1.936   .     S
O568   Zn575   1.946   .     S
O569   Zn576   1.939   .     S
O570   Zn573   1.929   .     S
O571   Zn574   1.943   .     S
O572   Zn575   1.940   .     S
C577   O663    1.265   .     A
C577   C587    1.443   .     S
C577   O665    1.264   .     A
C578   O661    1.385   .     S
C578   C610    1.415   .     A
C578   C579    1.416   .     A
C579   O656    1.381   .     S
C579   C1445   1.420   .     S
C580   O666    1.282   .     A
C580   C586    1.479   .     S
C580   O664    1.276   .     A
C581   C582    1.417   .     A
C581   C583    1.409   .     A
C581   C1443   1.420   1_554 S
C582   C585    1.416   .     A
C582   C611    1.419   .     A
C583   C584    1.401   .     A
C583   H614    1.082   .     S
C584   C602    1.517   .     S
C584   C596    1.411   .     A
C585   O655    1.386   .     S
C585   C596    1.411   .     A
C586   C683    1.360   .     S
C586   C694    1.544   .     S
C587   C778    1.360   1_455 S
C587   O844    1.385   1_455 S
C588   C597    1.410   .     A
C588   O659    1.377   .     S
C588   C595    1.417   .     A
C589   C592    1.469   .     S
C589   C14     1.347   1_565 S
C589   O77     1.388   1_565 S
C590   C591    1.439   .     S
C591   O657    1.273   .     A
C591   O667    1.270   .     A
C592   O662    1.266   .     A
C592   O668    1.270   .     A
C593   C596    1.467   .     S
C593   O649    1.278   .     A
C593   O647    1.276   .     A
C594   C595    1.492   .     S
C594   O650    1.298   .     A
C594   O648    1.287   .     A
C595   C599    1.411   .     A
C597   C609    1.418   .     A
C597   O658    1.386   .     S
C598   H645    1.113   .     S
C598   H644    1.113   .     S
C598   C600    1.537   .     S
C598   C778    1.544   1_455 S
C599   C605    1.535   .     S
C599   C608    1.426   .     A
C600   C601    1.527   .     S
C600   H834    1.111   1_455 S
C600   H835    1.111   1_455 S
C601   H636    1.111   .     S
C601   H641    1.110   .     S
C601   H640    1.109   .     S
C602   C603    1.534   .     S
C602   H626    1.112   .     S
C602   H624    1.112   .     S
C603   H622    1.111   .     S
C603   H623    1.110   .     S
C603   C604    1.527   .     S
C604   H620    1.111   .     S
C604   H619    1.111   .     S
C604   H717    1.109   .     S
C605   H635    1.104   .     S
C605   H637    1.110   .     S
C605   C606    1.538   .     S
C606   H633    1.112   .     S
C606   C607    1.527   .     S
C606   H634    1.110   .     S
C607   H632    1.110   .     S
C607   H630    1.111   .     S
C607   H631    1.111   .     S
C608   C610    1.421   .     A
C608   C609    1.424   .     A
C609   C1477   1.420   .     S
C610   C1475   1.406   .     S
C611   C612    1.419   .     A
C611   C1474   1.406   1_554 S
C612   C613    1.410   .     A
C612   O660    1.383   .     S
C613   O651    1.385   .     S
C613   C1473   1.420   1_554 S
H615   O652    0.993   .     S
H616   O77     0.990   1_565 S
H618   O655    0.989   .     S
H621   C796    1.109   1_455 S
H625   O651    0.990   .     S
H627   O656    0.990   .     S
H628   O658    0.989   .     S
H629   O659    0.992   .     S
H638   O660    0.991   .     S
H639   O661    0.989   .     S
H642   C696    1.111   .     S
H643   C696    1.111   .     S
O646   Zn670   1.940   .     S
O646   Zn669   1.957   .     S
O646   Zn672   1.932   .     S
O646   Zn671   1.923   .     S
O647   Zn670   1.902   .     S
O648   Zn672   1.913   .     S
O649   Zn671   1.910   .     S
O650   Zn669   1.901   .     S
O652   C683    1.385   .     S
O654   C14     1.385   1_565 S
O654   H41     0.992   1_565 S
O657   Zn669   1.935   .     S
O662   Zn672   1.935   .     S
O663   Zn670   1.936   .     S
O664   Zn671   1.946   .     S
O665   Zn672   1.939   .     S
O666   Zn669   1.929   .     S
O667   Zn670   1.943   .     S
O668   Zn671   1.940   .     S
C673   O759    1.265   .     A
C673   C683    1.443   .     S
C673   O761    1.264   .     A
C674   O757    1.385   .     S
C674   C706    1.415   .     A
C674   C675    1.416   .     A
C675   O752    1.381   .     S
C675   C1541   1.420   .     S
C676   O762    1.282   .     A
C676   C682    1.479   .     S
C676   O760    1.276   .     A
C677   C678    1.417   .     A
C677   C679    1.409   .     A
C677   C1539   1.420   1_554 S
C678   C681    1.416   .     A
C678   C707    1.419   .     A
C679   C680    1.401   .     A
C679   H710    1.082   .     S
C680   C698    1.517   .     S
C680   C692    1.411   .     A
C681   O751    1.386   .     S
C681   C692    1.411   .     A
C682   C779    1.360   .     S
C682   C790    1.544   .     S
C684   C693    1.410   .     A
C684   O755    1.377   .     S
C684   C691    1.417   .     A
C685   C688    1.469   .     S
C685   C110    1.347   1_565 S
C685   O173    1.388   1_565 S
C686   C687    1.439   .     S
C687   O753    1.273   .     A
C687   O763    1.270   .     A
C688   O758    1.266   .     A
C688   O764    1.270   .     A
C689   C692    1.467   .     S
C689   O745    1.278   .     A
C689   O743    1.276   .     A
C690   C691    1.492   .     S
C690   O746    1.298   .     A
C690   O744    1.287   .     A
C691   C695    1.411   .     A
C693   C705    1.418   .     A
C693   O754    1.386   .     S
C694   H741    1.113   .     S
C694   H740    1.113   .     S
C694   C696    1.537   .     S
C695   C701    1.535   .     S
C695   C704    1.426   .     A
C696   C697    1.527   .     S
C697   H732    1.111   .     S
C697   H737    1.110   .     S
C697   H736    1.109   .     S
C698   C699    1.534   .     S
C698   H722    1.112   .     S
C698   H720    1.112   .     S
C699   H718    1.111   .     S
C699   H719    1.110   .     S
C699   C700    1.527   .     S
C700   H716    1.111   .     S
C700   H715    1.111   .     S
C700   H813    1.109   .     S
C701   H731    1.104   .     S
C701   H733    1.110   .     S
C701   C702    1.538   .     S
C702   H729    1.112   .     S
C702   C703    1.527   .     S
C702   H730    1.110   .     S
C703   H728    1.110   .     S
C703   H726    1.111   .     S
C703   H727    1.111   .     S
C704   C706    1.421   .     A
C704   C705    1.424   .     A
C705   C1573   1.420   .     S
C706   C1571   1.406   .     S
C707   C708    1.419   .     A
C707   C1570   1.406   1_554 S
C708   C709    1.410   .     A
C708   O756    1.383   .     S
C709   O747    1.385   .     S
C709   C1569   1.420   1_554 S
H711   O748    0.993   .     S
H712   O173    0.990   1_565 S
H714   O751    0.989   .     S
H721   O747    0.990   .     S
H723   O752    0.990   .     S
H724   O754    0.989   .     S
H725   O755    0.992   .     S
H734   O756    0.991   .     S
H735   O757    0.989   .     S
H738   C792    1.111   .     S
H739   C792    1.111   .     S
O742   Zn766   1.940   .     S
O742   Zn765   1.957   .     S
O742   Zn768   1.932   .     S
O742   Zn767   1.923   .     S
O743   Zn766   1.902   .     S
O744   Zn768   1.913   .     S
O745   Zn767   1.910   .     S
O746   Zn765   1.901   .     S
O748   C779    1.385   .     S
O750   C110    1.385   1_565 S
O750   H137    0.992   1_565 S
O753   Zn765   1.935   .     S
O758   Zn768   1.935   .     S
O759   Zn766   1.936   .     S
O760   Zn767   1.946   .     S
O761   Zn768   1.939   .     S
O762   Zn765   1.929   .     S
O763   Zn766   1.943   .     S
O764   Zn767   1.940   .     S
C769   O855    1.265   .     A
C769   C779    1.443   .     S
C769   O857    1.264   .     A
C770   O853    1.385   .     S
C770   C802    1.415   .     A
C770   C771    1.416   .     A
C771   O848    1.381   .     S
C771   C1637   1.420   .     S
C772   O858    1.282   .     A
C772   C778    1.479   .     S
C772   O856    1.276   .     A
C773   C774    1.417   .     A
C773   C775    1.409   .     A
C773   C1635   1.420   1_554 S
C774   C777    1.416   .     A
C774   C803    1.419   .     A
C775   C776    1.401   .     A
C775   H806    1.082   .     S
C776   C794    1.517   .     S
C776   C788    1.411   .     A
C777   O847    1.386   .     S
C777   C788    1.411   .     A
C778   C587    1.360   1_655 S
C778   C598    1.544   1_655 S
C780   C789    1.410   .     A
C780   O851    1.377   .     S
C780   C787    1.417   .     A
C781   C784    1.469   .     S
C781   C206    1.347   1_565 S
C781   O269    1.388   1_565 S
C782   C783    1.439   .     S
C783   O849    1.273   .     A
C783   O859    1.270   .     A
C784   O854    1.266   .     A
C784   O860    1.270   .     A
C785   C788    1.467   .     S
C785   O841    1.278   .     A
C785   O839    1.276   .     A
C786   C787    1.492   .     S
C786   O842    1.298   .     A
C786   O840    1.287   .     A
C787   C791    1.411   .     A
C789   C801    1.418   .     A
C789   O850    1.386   .     S
C790   H837    1.113   .     S
C790   H836    1.113   .     S
C790   C792    1.537   .     S
C791   C797    1.535   .     S
C791   C800    1.426   .     A
C792   C793    1.527   .     S
C793   H828    1.111   .     S
C793   H833    1.110   .     S
C793   H832    1.109   .     S
C794   C795    1.534   .     S
C794   H818    1.112   .     S
C794   H816    1.112   .     S
C795   H814    1.111   .     S
C795   H815    1.110   .     S
C795   C796    1.527   .     S
C796   H812    1.111   .     S
C796   H811    1.111   .     S
C796   H621    1.109   1_655 S
C797   H827    1.104   .     S
C797   H829    1.110   .     S
C797   C798    1.538   .     S
C798   H825    1.112   .     S
C798   C799    1.527   .     S
C798   H826    1.110   .     S
C799   H824    1.110   .     S
C799   H822    1.111   .     S
C799   H823    1.111   .     S
C800   C802    1.421   .     A
C800   C801    1.424   .     A
C801   C1669   1.420   .     S
C802   C1667   1.406   .     S
C803   C804    1.419   .     A
C803   C1666   1.406   1_554 S
C804   C805    1.410   .     A
C804   O852    1.383   .     S
C805   O843    1.385   .     S
C805   C1665   1.420   1_554 S
H807   O844    0.993   .     S
H808   O269    0.990   1_565 S
H810   O847    0.989   .     S
H817   O843    0.990   .     S
H819   O848    0.990   .     S
H820   O850    0.989   .     S
H821   O851    0.992   .     S
H830   O852    0.991   .     S
H831   O853    0.989   .     S
H834   C600    1.111   1_655 S
H835   C600    1.111   1_655 S
O838   Zn862   1.940   .     S
O838   Zn861   1.957   .     S
O838   Zn864   1.932   .     S
O838   Zn863   1.923   .     S
O839   Zn862   1.902   .     S
O840   Zn864   1.913   .     S
O841   Zn863   1.910   .     S
O842   Zn861   1.901   .     S
O844   C587    1.385   1_655 S
O846   C206    1.385   1_565 S
O846   H233    0.992   1_565 S
O849   Zn861   1.935   .     S
O854   Zn864   1.935   .     S
O855   Zn862   1.936   .     S
O856   Zn863   1.946   .     S
O857   Zn864   1.939   .     S
O858   Zn861   1.929   .     S
O859   Zn862   1.943   .     S
O860   Zn863   1.940   .     S
C865   O951    1.265   .     A
C865   C875    1.443   .     S
C865   O953    1.264   .     A
C866   O949    1.385   .     S
C866   C898    1.415   .     A
C866   C867    1.416   .     A
C867   O944    1.381   .     S
C867   C5      1.420   1_556 S
C868   O954    1.282   .     A
C868   C874    1.479   .     S
C868   O952    1.276   .     A
C869   C870    1.417   .     A
C869   C871    1.409   .     A
C870   C873    1.416   .     A
C870   C899    1.419   .     A
C871   C872    1.401   .     A
C871   H902    1.082   .     S
C872   C890    1.517   .     S
C872   C884    1.411   .     A
C873   O943    1.386   .     S
C873   C884    1.411   .     A
C874   C971    1.360   .     S
C874   C982    1.544   .     S
C875   C1066   1.360   1_455 S
C875   O1132   1.385   1_455 S
C876   C885    1.410   .     A
C876   O947    1.377   .     S
C876   C883    1.417   .     A
C877   C880    1.469   .     S
C877   C1166   1.347   .     S
C877   O1229   1.388   .     S
C878   C879    1.439   .     S
C878   C1453   1.347   1_545 S
C878   O1518   1.385   1_545 S
C879   O945    1.273   .     A
C879   O955    1.270   .     A
C880   O950    1.266   .     A
C880   O956    1.270   .     A
C881   C884    1.467   .     S
C881   O937    1.278   .     A
C881   O935    1.276   .     A
C882   C883    1.492   .     S
C882   O938    1.298   .     A
C882   O936    1.287   .     A
C883   C887    1.411   .     A
C885   C897    1.418   .     A
C885   O946    1.386   .     S
C886   H933    1.113   .     S
C886   H932    1.113   .     S
C886   C888    1.537   .     S
C886   C1066   1.544   1_455 S
C887   C893    1.535   .     S
C887   C896    1.426   .     A
C888   C889    1.527   .     S
C888   H1122   1.111   1_455 S
C888   H1123   1.111   1_455 S
C889   H924    1.111   .     S
C889   H929    1.110   .     S
C889   H928    1.109   .     S
C890   C891    1.534   .     S
C890   H914    1.112   .     S
C890   H912    1.112   .     S
C891   H910    1.111   .     S
C891   H911    1.110   .     S
C891   C892    1.527   .     S
C892   H908    1.111   .     S
C892   H907    1.111   .     S
C892   H1005   1.109   .     S
C893   H923    1.104   .     S
C893   H925    1.110   .     S
C893   C894    1.538   .     S
C894   H921    1.112   .     S
C894   C895    1.527   .     S
C894   H922    1.110   .     S
C895   H920    1.110   .     S
C895   H918    1.111   .     S
C895   H919    1.111   .     S
C896   C898    1.421   .     A
C896   C897    1.424   .     A
C897   C37     1.420   1_556 S
C898   C35     1.406   1_556 S
C899   C900    1.419   .     A
C900   C901    1.410   .     A
C900   O948    1.383   .     S
C901   O939    1.385   .     S
H903   O940    0.993   .     S
H904   O1229   0.990   .     S
H905   O1518   0.992   1_545 S
H906   O943    0.989   .     S
H909   C1084   1.109   1_455 S
H913   O939    0.990   .     S
H915   O944    0.990   .     S
H916   O946    0.989   .     S
H917   O947    0.992   .     S
H926   O948    0.991   .     S
H927   O949    0.989   .     S
H930   C984    1.111   .     S
H931   C984    1.111   .     S
O934   Zn958   1.940   .     S
O934   Zn957   1.957   .     S
O934   Zn960   1.932   .     S
O934   Zn959   1.923   .     S
O935   Zn958   1.902   .     S
O936   Zn960   1.913   .     S
O937   Zn959   1.910   .     S
O938   Zn957   1.901   .     S
O940   C971    1.385   .     S
O941   C1453   1.388   1_545 S
O941   H1480   0.990   1_545 S
O942   C1166   1.385   .     S
O942   H1193   0.992   .     S
O945   Zn957   1.935   .     S
O950   Zn960   1.935   .     S
O951   Zn958   1.936   .     S
O952   Zn959   1.946   .     S
O953   Zn960   1.939   .     S
O954   Zn957   1.929   .     S
O955   Zn958   1.943   .     S
O956   Zn959   1.940   .     S
C961   O1047   1.265   .     A
C961   C971    1.443   .     S
C961   O1049   1.264   .     A
C962   O1045   1.385   .     S
C962   C994    1.415   .     A
C962   C963    1.416   .     A
C963   O1040   1.381   .     S
C963   C101    1.420   1_556 S
C964   O1050   1.282   .     A
C964   C970    1.479   .     S
C964   O1048   1.276   .     A
C965   C966    1.417   .     A
C965   C967    1.409   .     A
C966   C969    1.416   .     A
C966   C995    1.419   .     A
C967   C968    1.401   .     A
C967   H998    1.082   .     S
C968   C986    1.517   .     S
C968   C980    1.411   .     A
C969   O1039   1.386   .     S
C969   C980    1.411   .     A
C970   C1067   1.360   .     S
C970   C1078   1.544   .     S
C972   C981    1.410   .     A
C972   O1043   1.377   .     S
C972   C979    1.417   .     A
C973   C976    1.469   .     S
C973   C1262   1.347   .     S
C973   O1325   1.388   .     S
C974   C975    1.439   .     S
C974   C1549   1.347   1_545 S
C974   O1614   1.385   1_545 S
C975   O1041   1.273   .     A
C975   O1051   1.270   .     A
C976   O1046   1.266   .     A
C976   O1052   1.270   .     A
C977   C980    1.467   .     S
C977   O1033   1.278   .     A
C977   O1031   1.276   .     A
C978   C979    1.492   .     S
C978   O1034   1.298   .     A
C978   O1032   1.287   .     A
C979   C983    1.411   .     A
C981   C993    1.418   .     A
C981   O1042   1.386   .     S
C982   H1029   1.113   .     S
C982   H1028   1.113   .     S
C982   C984    1.537   .     S
C983   C989    1.535   .     S
C983   C992    1.426   .     A
C984   C985    1.527   .     S
C985   H1020   1.111   .     S
C985   H1025   1.110   .     S
C985   H1024   1.109   .     S
C986   C987    1.534   .     S
C986   H1010   1.112   .     S
C986   H1008   1.112   .     S
C987   H1006   1.111   .     S
C987   H1007   1.110   .     S
C987   C988    1.527   .     S
C988   H1004   1.111   .     S
C988   H1003   1.111   .     S
C988   H1101   1.109   .     S
C989   H1019   1.104   .     S
C989   H1021   1.110   .     S
C989   C990    1.538   .     S
C990   H1017   1.112   .     S
C990   C991    1.527   .     S
C990   H1018   1.110   .     S
C991   H1016   1.110   .     S
C991   H1014   1.111   .     S
C991   H1015   1.111   .     S
C992   C994    1.421   .     A
C992   C993    1.424   .     A
C993   C133    1.420   1_556 S
C994   C131    1.406   1_556 S
C995   C996    1.419   .     A
C996   C997    1.410   .     A
C996   O1044   1.383   .     S
C997   O1035   1.385   .     S
H999   O1036   0.993   .     S
H1000  O1325   0.990   .     S
H1001  O1614   0.992   1_545 S
H1002  O1039   0.989   .     S
H1009  O1035   0.990   .     S
H1011  O1040   0.990   .     S
H1012  O1042   0.989   .     S
H1013  O1043   0.992   .     S
H1022  O1044   0.991   .     S
H1023  O1045   0.989   .     S
H1026  C1080   1.111   .     S
H1027  C1080   1.111   .     S
O1030  Zn1054  1.940   .     S
O1030  Zn1053  1.957   .     S
O1030  Zn1056  1.932   .     S
O1030  Zn1055  1.923   .     S
O1031  Zn1054  1.902   .     S
O1032  Zn1056  1.913   .     S
O1033  Zn1055  1.910   .     S
O1034  Zn1053  1.901   .     S
O1036  C1067   1.385   .     S
O1037  C1549   1.388   1_545 S
O1037  H1576   0.990   1_545 S
O1038  C1262   1.385   .     S
O1038  H1289   0.992   .     S
O1041  Zn1053  1.935   .     S
O1046  Zn1056  1.935   .     S
O1047  Zn1054  1.936   .     S
O1048  Zn1055  1.946   .     S
O1049  Zn1056  1.939   .     S
O1050  Zn1053  1.929   .     S
O1051  Zn1054  1.943   .     S
O1052  Zn1055  1.940   .     S
C1057  O1143   1.265   .     A
C1057  C1067   1.443   .     S
C1057  O1145   1.264   .     A
C1058  O1141   1.385   .     S
C1058  C1090   1.415   .     A
C1058  C1059   1.416   .     A
C1059  O1136   1.381   .     S
C1059  C197    1.420   1_556 S
C1060  O1146   1.282   .     A
C1060  C1066   1.479   .     S
C1060  O1144   1.276   .     A
C1061  C1062   1.417   .     A
C1061  C1063   1.409   .     A
C1062  C1065   1.416   .     A
C1062  C1091   1.419   .     A
C1063  C1064   1.401   .     A
C1063  H1094   1.082   .     S
C1064  C1082   1.517   .     S
C1064  C1076   1.411   .     A
C1065  O1135   1.386   .     S
C1065  C1076   1.411   .     A
C1066  C875    1.360   1_655 S
C1066  C886    1.544   1_655 S
C1068  C1077   1.410   .     A
C1068  O1139   1.377   .     S
C1068  C1075   1.417   .     A
C1069  C1072   1.469   .     S
C1069  C1358   1.347   .     S
C1069  O1421   1.388   .     S
C1070  C1071   1.439   .     S
C1070  C1645   1.347   1_545 S
C1070  O1710   1.385   1_545 S
C1071  O1137   1.273   .     A
C1071  O1147   1.270   .     A
C1072  O1142   1.266   .     A
C1072  O1148   1.270   .     A
C1073  C1076   1.467   .     S
C1073  O1129   1.278   .     A
C1073  O1127   1.276   .     A
C1074  C1075   1.492   .     S
C1074  O1130   1.298   .     A
C1074  O1128   1.287   .     A
C1075  C1079   1.411   .     A
C1077  C1089   1.418   .     A
C1077  O1138   1.386   .     S
C1078  H1125   1.113   .     S
C1078  H1124   1.113   .     S
C1078  C1080   1.537   .     S
C1079  C1085   1.535   .     S
C1079  C1088   1.426   .     A
C1080  C1081   1.527   .     S
C1081  H1116   1.111   .     S
C1081  H1121   1.110   .     S
C1081  H1120   1.109   .     S
C1082  C1083   1.534   .     S
C1082  H1106   1.112   .     S
C1082  H1104   1.112   .     S
C1083  H1102   1.111   .     S
C1083  H1103   1.110   .     S
C1083  C1084   1.527   .     S
C1084  H1100   1.111   .     S
C1084  H1099   1.111   .     S
C1084  H909    1.109   1_655 S
C1085  H1115   1.104   .     S
C1085  H1117   1.110   .     S
C1085  C1086   1.538   .     S
C1086  H1113   1.112   .     S
C1086  C1087   1.527   .     S
C1086  H1114   1.110   .     S
C1087  H1112   1.110   .     S
C1087  H1110   1.111   .     S
C1087  H1111   1.111   .     S
C1088  C1090   1.421   .     A
C1088  C1089   1.424   .     A
C1089  C229    1.420   1_556 S
C1090  C227    1.406   1_556 S
C1091  C1092   1.419   .     A
C1092  C1093   1.410   .     A
C1092  O1140   1.383   .     S
C1093  O1131   1.385   .     S
H1095  O1132   0.993   .     S
H1096  O1421   0.990   .     S
H1097  O1710   0.992   1_545 S
H1098  O1135   0.989   .     S
H1105  O1131   0.990   .     S
H1107  O1136   0.990   .     S
H1108  O1138   0.989   .     S
H1109  O1139   0.992   .     S
H1118  O1140   0.991   .     S
H1119  O1141   0.989   .     S
H1122  C888    1.111   1_655 S
H1123  C888    1.111   1_655 S
O1126  Zn1150  1.940   .     S
O1126  Zn1149  1.957   .     S
O1126  Zn1152  1.932   .     S
O1126  Zn1151  1.923   .     S
O1127  Zn1150  1.902   .     S
O1128  Zn1152  1.913   .     S
O1129  Zn1151  1.910   .     S
O1130  Zn1149  1.901   .     S
O1132  C875    1.385   1_655 S
O1133  C1645   1.388   1_545 S
O1133  H1672   0.990   1_545 S
O1134  C1358   1.385   .     S
O1134  H1385   0.992   .     S
O1137  Zn1149  1.935   .     S
O1142  Zn1152  1.935   .     S
O1143  Zn1150  1.936   .     S
O1144  Zn1151  1.946   .     S
O1145  Zn1152  1.939   .     S
O1146  Zn1149  1.929   .     S
O1147  Zn1150  1.943   .     S
O1148  Zn1151  1.940   .     S
C1153  O1239   1.265   .     A
C1153  C1163   1.443   .     S
C1153  O1241   1.264   .     A
C1154  O1237   1.385   .     S
C1154  C1186   1.415   .     A
C1154  C1155   1.416   .     A
C1155  O1232   1.381   .     S
C1155  C293    1.420   1_556 S
C1156  O1242   1.282   .     A
C1156  C1162   1.479   .     S
C1156  O1240   1.276   .     A
C1157  C1158   1.417   .     A
C1157  C1159   1.409   .     A
C1158  C1161   1.416   .     A
C1158  C1187   1.419   .     A
C1159  C1160   1.401   .     A
C1159  H1190   1.082   .     S
C1160  C1178   1.517   .     S
C1160  C1172   1.411   .     A
C1161  O1231   1.386   .     S
C1161  C1172   1.411   .     A
C1162  C1259   1.360   .     S
C1162  C1270   1.544   .     S
C1163  C1354   1.360   1_455 S
C1163  O1420   1.385   1_455 S
C1164  C1173   1.410   .     A
C1164  O1235   1.377   .     S
C1164  C1171   1.417   .     A
C1165  C1168   1.469   .     S
C1165  C1454   1.347   .     S
C1165  O1517   1.388   .     S
C1166  C1167   1.439   .     S
C1167  O1233   1.273   .     A
C1167  O1243   1.270   .     A
C1168  O1238   1.266   .     A
C1168  O1244   1.270   .     A
C1169  C1172   1.467   .     S
C1169  O1225   1.278   .     A
C1169  O1223   1.276   .     A
C1170  C1171   1.492   .     S
C1170  O1226   1.298   .     A
C1170  O1224   1.287   .     A
C1171  C1175   1.411   .     A
C1173  C1185   1.418   .     A
C1173  O1234   1.386   .     S
C1174  H1221   1.113   .     S
C1174  H1220   1.113   .     S
C1174  C1176   1.537   .     S
C1174  C1354   1.544   1_455 S
C1175  C1181   1.535   .     S
C1175  C1184   1.426   .     A
C1176  C1177   1.527   .     S
C1176  H1410   1.111   1_455 S
C1176  H1411   1.111   1_455 S
C1177  H1212   1.111   .     S
C1177  H1217   1.110   .     S
C1177  H1216   1.109   .     S
C1178  C1179   1.534   .     S
C1178  H1202   1.112   .     S
C1178  H1200   1.112   .     S
C1179  H1198   1.111   .     S
C1179  H1199   1.110   .     S
C1179  C1180   1.527   .     S
C1180  H1196   1.111   .     S
C1180  H1195   1.111   .     S
C1180  H1293   1.109   .     S
C1181  H1211   1.104   .     S
C1181  H1213   1.110   .     S
C1181  C1182   1.538   .     S
C1182  H1209   1.112   .     S
C1182  C1183   1.527   .     S
C1182  H1210   1.110   .     S
C1183  H1208   1.110   .     S
C1183  H1206   1.111   .     S
C1183  H1207   1.111   .     S
C1184  C1186   1.421   .     A
C1184  C1185   1.424   .     A
C1185  C325    1.420   1_556 S
C1186  C323    1.406   1_556 S
C1187  C1188   1.419   .     A
C1188  C1189   1.410   .     A
C1188  O1236   1.383   .     S
C1189  O1227   1.385   .     S
H1191  O1228   0.993   .     S
H1192  O1517   0.990   .     S
H1194  O1231   0.989   .     S
H1197  C1372   1.109   1_455 S
H1201  O1227   0.990   .     S
H1203  O1232   0.990   .     S
H1204  O1234   0.989   .     S
H1205  O1235   0.992   .     S
H1214  O1236   0.991   .     S
H1215  O1237   0.989   .     S
H1218  C1272   1.111   .     S
H1219  C1272   1.111   .     S
O1222  Zn1246  1.940   .     S
O1222  Zn1245  1.957   .     S
O1222  Zn1248  1.932   .     S
O1222  Zn1247  1.923   .     S
O1223  Zn1246  1.902   .     S
O1224  Zn1248  1.913   .     S
O1225  Zn1247  1.910   .     S
O1226  Zn1245  1.901   .     S
O1228  C1259   1.385   .     S
O1230  C1454   1.385   .     S
O1230  H1481   0.992   .     S
O1233  Zn1245  1.935   .     S
O1238  Zn1248  1.935   .     S
O1239  Zn1246  1.936   .     S
O1240  Zn1247  1.946   .     S
O1241  Zn1248  1.939   .     S
O1242  Zn1245  1.929   .     S
O1243  Zn1246  1.943   .     S
O1244  Zn1247  1.940   .     S
C1249  O1335   1.265   .     A
C1249  C1259   1.443   .     S
C1249  O1337   1.264   .     A
C1250  O1333   1.385   .     S
C1250  C1282   1.415   .     A
C1250  C1251   1.416   .     A
C1251  O1328   1.381   .     S
C1251  C389    1.420   1_556 S
C1252  O1338   1.282   .     A
C1252  C1258   1.479   .     S
C1252  O1336   1.276   .     A
C1253  C1254   1.417   .     A
C1253  C1255   1.409   .     A
C1254  C1257   1.416   .     A
C1254  C1283   1.419   .     A
C1255  C1256   1.401   .     A
C1255  H1286   1.082   .     S
C1256  C1274   1.517   .     S
C1256  C1268   1.411   .     A
C1257  O1327   1.386   .     S
C1257  C1268   1.411   .     A
C1258  C1355   1.360   .     S
C1258  C1366   1.544   .     S
C1260  C1269   1.410   .     A
C1260  O1331   1.377   .     S
C1260  C1267   1.417   .     A
C1261  C1264   1.469   .     S
C1261  C1550   1.347   .     S
C1261  O1613   1.388   .     S
C1262  C1263   1.439   .     S
C1263  O1329   1.273   .     A
C1263  O1339   1.270   .     A
C1264  O1334   1.266   .     A
C1264  O1340   1.270   .     A
C1265  C1268   1.467   .     S
C1265  O1321   1.278   .     A
C1265  O1319   1.276   .     A
C1266  C1267   1.492   .     S
C1266  O1322   1.298   .     A
C1266  O1320   1.287   .     A
C1267  C1271   1.411   .     A
C1269  C1281   1.418   .     A
C1269  O1330   1.386   .     S
C1270  H1317   1.113   .     S
C1270  H1316   1.113   .     S
C1270  C1272   1.537   .     S
C1271  C1277   1.535   .     S
C1271  C1280   1.426   .     A
C1272  C1273   1.527   .     S
C1273  H1308   1.111   .     S
C1273  H1313   1.110   .     S
C1273  H1312   1.109   .     S
C1274  C1275   1.534   .     S
C1274  H1298   1.112   .     S
C1274  H1296   1.112   .     S
C1275  H1294   1.111   .     S
C1275  H1295   1.110   .     S
C1275  C1276   1.527   .     S
C1276  H1292   1.111   .     S
C1276  H1291   1.111   .     S
C1276  H1389   1.109   .     S
C1277  H1307   1.104   .     S
C1277  H1309   1.110   .     S
C1277  C1278   1.538   .     S
C1278  H1305   1.112   .     S
C1278  C1279   1.527   .     S
C1278  H1306   1.110   .     S
C1279  H1304   1.110   .     S
C1279  H1302   1.111   .     S
C1279  H1303   1.111   .     S
C1280  C1282   1.421   .     A
C1280  C1281   1.424   .     A
C1281  C421    1.420   1_556 S
C1282  C419    1.406   1_556 S
C1283  C1284   1.419   .     A
C1284  C1285   1.410   .     A
C1284  O1332   1.383   .     S
C1285  O1323   1.385   .     S
H1287  O1324   0.993   .     S
H1288  O1613   0.990   .     S
H1290  O1327   0.989   .     S
H1297  O1323   0.990   .     S
H1299  O1328   0.990   .     S
H1300  O1330   0.989   .     S
H1301  O1331   0.992   .     S
H1310  O1332   0.991   .     S
H1311  O1333   0.989   .     S
H1314  C1368   1.111   .     S
H1315  C1368   1.111   .     S
O1318  Zn1342  1.940   .     S
O1318  Zn1341  1.957   .     S
O1318  Zn1344  1.932   .     S
O1318  Zn1343  1.923   .     S
O1319  Zn1342  1.902   .     S
O1320  Zn1344  1.913   .     S
O1321  Zn1343  1.910   .     S
O1322  Zn1341  1.901   .     S
O1324  C1355   1.385   .     S
O1326  C1550   1.385   .     S
O1326  H1577   0.992   .     S
O1329  Zn1341  1.935   .     S
O1334  Zn1344  1.935   .     S
O1335  Zn1342  1.936   .     S
O1336  Zn1343  1.946   .     S
O1337  Zn1344  1.939   .     S
O1338  Zn1341  1.929   .     S
O1339  Zn1342  1.943   .     S
O1340  Zn1343  1.940   .     S
C1345  O1431   1.265   .     A
C1345  C1355   1.443   .     S
C1345  O1433   1.264   .     A
C1346  O1429   1.385   .     S
C1346  C1378   1.415   .     A
C1346  C1347   1.416   .     A
C1347  O1424   1.381   .     S
C1347  C485    1.420   1_556 S
C1348  O1434   1.282   .     A
C1348  C1354   1.479   .     S
C1348  O1432   1.276   .     A
C1349  C1350   1.417   .     A
C1349  C1351   1.409   .     A
C1350  C1353   1.416   .     A
C1350  C1379   1.419   .     A
C1351  C1352   1.401   .     A
C1351  H1382   1.082   .     S
C1352  C1370   1.517   .     S
C1352  C1364   1.411   .     A
C1353  O1423   1.386   .     S
C1353  C1364   1.411   .     A
C1354  C1163   1.360   1_655 S
C1354  C1174   1.544   1_655 S
C1356  C1365   1.410   .     A
C1356  O1427   1.377   .     S
C1356  C1363   1.417   .     A
C1357  C1360   1.469   .     S
C1357  C1646   1.347   .     S
C1357  O1709   1.388   .     S
C1358  C1359   1.439   .     S
C1359  O1425   1.273   .     A
C1359  O1435   1.270   .     A
C1360  O1430   1.266   .     A
C1360  O1436   1.270   .     A
C1361  C1364   1.467   .     S
C1361  O1417   1.278   .     A
C1361  O1415   1.276   .     A
C1362  C1363   1.492   .     S
C1362  O1418   1.298   .     A
C1362  O1416   1.287   .     A
C1363  C1367   1.411   .     A
C1365  C1377   1.418   .     A
C1365  O1426   1.386   .     S
C1366  H1413   1.113   .     S
C1366  H1412   1.113   .     S
C1366  C1368   1.537   .     S
C1367  C1373   1.535   .     S
C1367  C1376   1.426   .     A
C1368  C1369   1.527   .     S
C1369  H1404   1.111   .     S
C1369  H1409   1.110   .     S
C1369  H1408   1.109   .     S
C1370  C1371   1.534   .     S
C1370  H1394   1.112   .     S
C1370  H1392   1.112   .     S
C1371  H1390   1.111   .     S
C1371  H1391   1.110   .     S
C1371  C1372   1.527   .     S
C1372  H1388   1.111   .     S
C1372  H1387   1.111   .     S
C1372  H1197   1.109   1_655 S
C1373  H1403   1.104   .     S
C1373  H1405   1.110   .     S
C1373  C1374   1.538   .     S
C1374  H1401   1.112   .     S
C1374  C1375   1.527   .     S
C1374  H1402   1.110   .     S
C1375  H1400   1.110   .     S
C1375  H1398   1.111   .     S
C1375  H1399   1.111   .     S
C1376  C1378   1.421   .     A
C1376  C1377   1.424   .     A
C1377  C517    1.420   1_556 S
C1378  C515    1.406   1_556 S
C1379  C1380   1.419   .     A
C1380  C1381   1.410   .     A
C1380  O1428   1.383   .     S
C1381  O1419   1.385   .     S
H1383  O1420   0.993   .     S
H1384  O1709   0.990   .     S
H1386  O1423   0.989   .     S
H1393  O1419   0.990   .     S
H1395  O1424   0.990   .     S
H1396  O1426   0.989   .     S
H1397  O1427   0.992   .     S
H1406  O1428   0.991   .     S
H1407  O1429   0.989   .     S
H1410  C1176   1.111   1_655 S
H1411  C1176   1.111   1_655 S
O1414  Zn1438  1.940   .     S
O1414  Zn1437  1.957   .     S
O1414  Zn1440  1.932   .     S
O1414  Zn1439  1.923   .     S
O1415  Zn1438  1.902   .     S
O1416  Zn1440  1.913   .     S
O1417  Zn1439  1.910   .     S
O1418  Zn1437  1.901   .     S
O1420  C1163   1.385   1_655 S
O1422  C1646   1.385   .     S
O1422  H1673   0.992   .     S
O1425  Zn1437  1.935   .     S
O1430  Zn1440  1.935   .     S
O1431  Zn1438  1.936   .     S
O1432  Zn1439  1.946   .     S
O1433  Zn1440  1.939   .     S
O1434  Zn1437  1.929   .     S
O1435  Zn1438  1.943   .     S
O1436  Zn1439  1.940   .     S
C1441  O1527   1.265   .     A
C1441  C1451   1.443   .     S
C1441  O1529   1.264   .     A
C1442  O1525   1.385   .     S
C1442  C1474   1.415   .     A
C1442  C1443   1.416   .     A
C1443  O1520   1.381   .     S
C1443  C581    1.420   1_556 S
C1444  O1530   1.282   .     A
C1444  C1450   1.479   .     S
C1444  O1528   1.276   .     A
C1445  C1446   1.417   .     A
C1445  C1447   1.409   .     A
C1446  C1449   1.416   .     A
C1446  C1475   1.419   .     A
C1447  C1448   1.401   .     A
C1447  H1478   1.082   .     S
C1448  C1466   1.517   .     S
C1448  C1460   1.411   .     A
C1449  O1519   1.386   .     S
C1449  C1460   1.411   .     A
C1450  C1547   1.360   .     S
C1450  C1558   1.544   .     S
C1451  C1642   1.360   1_455 S
C1451  O1708   1.385   1_455 S
C1452  C1461   1.410   .     A
C1452  O1523   1.377   .     S
C1452  C1459   1.417   .     A
C1453  C1456   1.469   .     S
C1453  C878    1.347   1_565 S
C1453  O941    1.388   1_565 S
C1454  C1455   1.439   .     S
C1455  O1521   1.273   .     A
C1455  O1531   1.270   .     A
C1456  O1526   1.266   .     A
C1456  O1532   1.270   .     A
C1457  C1460   1.467   .     S
C1457  O1513   1.278   .     A
C1457  O1511   1.276   .     A
C1458  C1459   1.492   .     S
C1458  O1514   1.298   .     A
C1458  O1512   1.287   .     A
C1459  C1463   1.411   .     A
C1461  C1473   1.418   .     A
C1461  O1522   1.386   .     S
C1462  H1509   1.113   .     S
C1462  H1508   1.113   .     S
C1462  C1464   1.537   .     S
C1462  C1642   1.544   1_455 S
C1463  C1469   1.535   .     S
C1463  C1472   1.426   .     A
C1464  C1465   1.527   .     S
C1464  H1698   1.111   1_455 S
C1464  H1699   1.111   1_455 S
C1465  H1500   1.111   .     S
C1465  H1505   1.110   .     S
C1465  H1504   1.109   .     S
C1466  C1467   1.534   .     S
C1466  H1490   1.112   .     S
C1466  H1488   1.112   .     S
C1467  H1486   1.111   .     S
C1467  H1487   1.110   .     S
C1467  C1468   1.527   .     S
C1468  H1484   1.111   .     S
C1468  H1483   1.111   .     S
C1468  H1581   1.109   .     S
C1469  H1499   1.104   .     S
C1469  H1501   1.110   .     S
C1469  C1470   1.538   .     S
C1470  H1497   1.112   .     S
C1470  C1471   1.527   .     S
C1470  H1498   1.110   .     S
C1471  H1496   1.110   .     S
C1471  H1494   1.111   .     S
C1471  H1495   1.111   .     S
C1472  C1474   1.421   .     A
C1472  C1473   1.424   .     A
C1473  C613    1.420   1_556 S
C1474  C611    1.406   1_556 S
C1475  C1476   1.419   .     A
C1476  C1477   1.410   .     A
C1476  O1524   1.383   .     S
C1477  O1515   1.385   .     S
H1479  O1516   0.993   .     S
H1480  O941    0.990   1_565 S
H1482  O1519   0.989   .     S
H1485  C1660   1.109   1_455 S
H1489  O1515   0.990   .     S
H1491  O1520   0.990   .     S
H1492  O1522   0.989   .     S
H1493  O1523   0.992   .     S
H1502  O1524   0.991   .     S
H1503  O1525   0.989   .     S
H1506  C1560   1.111   .     S
H1507  C1560   1.111   .     S
O1510  Zn1534  1.940   .     S
O1510  Zn1533  1.957   .     S
O1510  Zn1536  1.932   .     S
O1510  Zn1535  1.923   .     S
O1511  Zn1534  1.902   .     S
O1512  Zn1536  1.913   .     S
O1513  Zn1535  1.910   .     S
O1514  Zn1533  1.901   .     S
O1516  C1547   1.385   .     S
O1518  C878    1.385   1_565 S
O1518  H905    0.992   1_565 S
O1521  Zn1533  1.935   .     S
O1526  Zn1536  1.935   .     S
O1527  Zn1534  1.936   .     S
O1528  Zn1535  1.946   .     S
O1529  Zn1536  1.939   .     S
O1530  Zn1533  1.929   .     S
O1531  Zn1534  1.943   .     S
O1532  Zn1535  1.940   .     S
C1537  O1623   1.265   .     A
C1537  C1547   1.443   .     S
C1537  O1625   1.264   .     A
C1538  O1621   1.385   .     S
C1538  C1570   1.415   .     A
C1538  C1539   1.416   .     A
C1539  O1616   1.381   .     S
C1539  C677    1.420   1_556 S
C1540  O1626   1.282   .     A
C1540  C1546   1.479   .     S
C1540  O1624   1.276   .     A
C1541  C1542   1.417   .     A
C1541  C1543   1.409   .     A
C1542  C1545   1.416   .     A
C1542  C1571   1.419   .     A
C1543  C1544   1.401   .     A
C1543  H1574   1.082   .     S
C1544  C1562   1.517   .     S
C1544  C1556   1.411   .     A
C1545  O1615   1.386   .     S
C1545  C1556   1.411   .     A
C1546  C1643   1.360   .     S
C1546  C1654   1.544   .     S
C1548  C1557   1.410   .     A
C1548  O1619   1.377   .     S
C1548  C1555   1.417   .     A
C1549  C1552   1.469   .     S
C1549  C974    1.347   1_565 S
C1549  O1037   1.388   1_565 S
C1550  C1551   1.439   .     S
C1551  O1617   1.273   .     A
C1551  O1627   1.270   .     A
C1552  O1622   1.266   .     A
C1552  O1628   1.270   .     A
C1553  C1556   1.467   .     S
C1553  O1609   1.278   .     A
C1553  O1607   1.276   .     A
C1554  C1555   1.492   .     S
C1554  O1610   1.298   .     A
C1554  O1608   1.287   .     A
C1555  C1559   1.411   .     A
C1557  C1569   1.418   .     A
C1557  O1618   1.386   .     S
C1558  H1605   1.113   .     S
C1558  H1604   1.113   .     S
C1558  C1560   1.537   .     S
C1559  C1565   1.535   .     S
C1559  C1568   1.426   .     A
C1560  C1561   1.527   .     S
C1561  H1596   1.111   .     S
C1561  H1601   1.110   .     S
C1561  H1600   1.109   .     S
C1562  C1563   1.534   .     S
C1562  H1586   1.112   .     S
C1562  H1584   1.112   .     S
C1563  H1582   1.111   .     S
C1563  H1583   1.110   .     S
C1563  C1564   1.527   .     S
C1564  H1580   1.111   .     S
C1564  H1579   1.111   .     S
C1564  H1677   1.109   .     S
C1565  H1595   1.104   .     S
C1565  H1597   1.110   .     S
C1565  C1566   1.538   .     S
C1566  H1593   1.112   .     S
C1566  C1567   1.527   .     S
C1566  H1594   1.110   .     S
C1567  H1592   1.110   .     S
C1567  H1590   1.111   .     S
C1567  H1591   1.111   .     S
C1568  C1570   1.421   .     A
C1568  C1569   1.424   .     A
C1569  C709    1.420   1_556 S
C1570  C707    1.406   1_556 S
C1571  C1572   1.419   .     A
C1572  C1573   1.410   .     A
C1572  O1620   1.383   .     S
C1573  O1611   1.385   .     S
H1575  O1612   0.993   .     S
H1576  O1037   0.990   1_565 S
H1578  O1615   0.989   .     S
H1585  O1611   0.990   .     S
H1587  O1616   0.990   .     S
H1588  O1618   0.989   .     S
H1589  O1619   0.992   .     S
H1598  O1620   0.991   .     S
H1599  O1621   0.989   .     S
H1602  C1656   1.111   .     S
H1603  C1656   1.111   .     S
O1606  Zn1630  1.940   .     S
O1606  Zn1629  1.957   .     S
O1606  Zn1632  1.932   .     S
O1606  Zn1631  1.923   .     S
O1607  Zn1630  1.902   .     S
O1608  Zn1632  1.913   .     S
O1609  Zn1631  1.910   .     S
O1610  Zn1629  1.901   .     S
O1612  C1643   1.385   .     S
O1614  C974    1.385   1_565 S
O1614  H1001   0.992   1_565 S
O1617  Zn1629  1.935   .     S
O1622  Zn1632  1.935   .     S
O1623  Zn1630  1.936   .     S
O1624  Zn1631  1.946   .     S
O1625  Zn1632  1.939   .     S
O1626  Zn1629  1.929   .     S
O1627  Zn1630  1.943   .     S
O1628  Zn1631  1.940   .     S
C1633  O1719   1.265   .     A
C1633  C1643   1.443   .     S
C1633  O1721   1.264   .     A
C1634  O1717   1.385   .     S
C1634  C1666   1.415   .     A
C1634  C1635   1.416   .     A
C1635  O1712   1.381   .     S
C1635  C773    1.420   1_556 S
C1636  O1722   1.282   .     A
C1636  C1642   1.479   .     S
C1636  O1720   1.276   .     A
C1637  C1638   1.417   .     A
C1637  C1639   1.409   .     A
C1638  C1641   1.416   .     A
C1638  C1667   1.419   .     A
C1639  C1640   1.401   .     A
C1639  H1670   1.082   .     S
C1640  C1658   1.517   .     S
C1640  C1652   1.411   .     A
C1641  O1711   1.386   .     S
C1641  C1652   1.411   .     A
C1642  C1451   1.360   1_655 S
C1642  C1462   1.544   1_655 S
C1644  C1653   1.410   .     A
C1644  O1715   1.377   .     S
C1644  C1651   1.417   .     A
C1645  C1648   1.469   .     S
C1645  C1070   1.347   1_565 S
C1645  O1133   1.388   1_565 S
C1646  C1647   1.439   .     S
C1647  O1713   1.273   .     A
C1647  O1723   1.270   .     A
C1648  O1718   1.266   .     A
C1648  O1724   1.270   .     A
C1649  C1652   1.467   .     S
C1649  O1705   1.278   .     A
C1649  O1703   1.276   .     A
C1650  C1651   1.492   .     S
C1650  O1706   1.298   .     A
C1650  O1704   1.287   .     A
C1651  C1655   1.411   .     A
C1653  C1665   1.418   .     A
C1653  O1714   1.386   .     S
C1654  H1701   1.113   .     S
C1654  H1700   1.113   .     S
C1654  C1656   1.537   .     S
C1655  C1661   1.535   .     S
C1655  C1664   1.426   .     A
C1656  C1657   1.527   .     S
C1657  H1692   1.111   .     S
C1657  H1697   1.110   .     S
C1657  H1696   1.109   .     S
C1658  C1659   1.534   .     S
C1658  H1682   1.112   .     S
C1658  H1680   1.112   .     S
C1659  H1678   1.111   .     S
C1659  H1679   1.110   .     S
C1659  C1660   1.527   .     S
C1660  H1676   1.111   .     S
C1660  H1675   1.111   .     S
C1660  H1485   1.109   1_655 S
C1661  H1691   1.104   .     S
C1661  H1693   1.110   .     S
C1661  C1662   1.538   .     S
C1662  H1689   1.112   .     S
C1662  C1663   1.527   .     S
C1662  H1690   1.110   .     S
C1663  H1688   1.110   .     S
C1663  H1686   1.111   .     S
C1663  H1687   1.111   .     S
C1664  C1666   1.421   .     A
C1664  C1665   1.424   .     A
C1665  C805    1.420   1_556 S
C1666  C803    1.406   1_556 S
C1667  C1668   1.419   .     A
C1668  C1669   1.410   .     A
C1668  O1716   1.383   .     S
C1669  O1707   1.385   .     S
H1671  O1708   0.993   .     S
H1672  O1133   0.990   1_565 S
H1674  O1711   0.989   .     S
H1681  O1707   0.990   .     S
H1683  O1712   0.990   .     S
H1684  O1714   0.989   .     S
H1685  O1715   0.992   .     S
H1694  O1716   0.991   .     S
H1695  O1717   0.989   .     S
H1698  C1464   1.111   1_655 S
H1699  C1464   1.111   1_655 S
O1702  Zn1726  1.940   .     S
O1702  Zn1725  1.957   .     S
O1702  Zn1728  1.932   .     S
O1702  Zn1727  1.923   .     S
O1703  Zn1726  1.902   .     S
O1704  Zn1728  1.913   .     S
O1705  Zn1727  1.910   .     S
O1706  Zn1725  1.901   .     S
O1708  C1451   1.385   1_655 S
O1710  C1070   1.385   1_565 S
O1710  H1097   0.992   1_565 S
O1713  Zn1725  1.935   .     S
O1718  Zn1728  1.935   .     S
O1719  Zn1726  1.936   .     S
O1720  Zn1727  1.946   .     S
O1721  Zn1728  1.939   .     S
O1722  Zn1725  1.929   .     S
O1723  Zn1726  1.943   .     S
O1724  Zn1727  1.940   .     S
