data_str_m1_o1_o2_pcu_sym.40
_audit_creation_date              2020-01-03
_audit_creation_method            'Materials Studio'
_symmetry_space_group_name_H-M    'P1'
_symmetry_Int_Tables_number       1
_symmetry_cell_setting            triclinic
loop_
_symmetry_equiv_pos_as_xyz
  x,y,z
_cell_length_a                    37.1778
_cell_length_b                    37.0856
_cell_length_c                    35.2844
_cell_angle_alpha                 89.7635
_cell_angle_beta                  89.9506
_cell_angle_gamma                 90.2968
loop_
_atom_site_label
_atom_site_type_symbol
_atom_site_fract_x
_atom_site_fract_y
_atom_site_fract_z
_atom_site_U_iso_or_equiv
_atom_site_adp_type
_atom_site_occupancy
C1     C     0.21841   0.01804   0.04360   0.00000  Uiso   1.00
C2     C     0.02871   0.28006   0.45459   0.00000  Uiso   1.00
C3     C     0.34950   0.40299   0.74807   0.00000  Uiso   1.00
C4     C     0.40411   0.14908   0.25326   0.00000  Uiso   1.00
C5     C     0.10070   0.34526   0.75590   0.00000  Uiso   1.00
C6     C     0.34492   0.39856   0.24537   0.00000  Uiso   1.00
C7     C     0.15118   0.09769   0.74979   0.00000  Uiso   1.00
C8     C     0.09773   0.15109   0.74906   0.00000  Uiso   1.00
C9     C     0.40037   0.34698   0.24736   0.00000  Uiso   1.00
C10    C     0.15354   0.39993   0.75271   0.00000  Uiso   1.00
C11    C     0.35189   0.09374   0.25704   0.00000  Uiso   1.00
C12    C     0.40362   0.34999   0.74777   0.00000  Uiso   1.00
C13    C     0.26201   0.46896   0.54264   0.00000  Uiso   1.00
C14    C     0.10159   0.15475   0.24777   0.00000  Uiso   1.00
C15    C     0.34870   0.09761   0.74890   0.00000  Uiso   1.00
C16    C     0.14805   0.40578   0.25644   0.00000  Uiso   1.00
C17    C     0.24988   0.01053   0.10382   0.00000  Uiso   1.00
C18    C     0.25003   0.01112   0.89520   0.00000  Uiso   1.00
C19    C     0.01147   0.25052   0.10427   0.00000  Uiso   1.00
C20    C     0.00653   0.24977   0.89698   0.00000  Uiso   1.00
C21    C     0.49933   0.25781   0.60277   0.00000  Uiso   1.00
C22    C     0.49777   0.26336   0.39568   0.00000  Uiso   1.00
C23    C     0.25491   0.00024   0.60330   0.00000  Uiso   1.00
C24    C     0.26390   0.03295   0.45625   0.00000  Uiso   1.00
C25    C     0.25671   0.00040   0.39626   0.00000  Uiso   1.00
C26    C     0.10705   0.44996   0.21450   0.00000  Uiso   1.00
C27    C     0.39276   0.05161   0.78433   0.00000  Uiso   1.00
C28    C     0.06532   0.12036   0.19497   0.00000  Uiso   1.00
C29    C     0.43907   0.38353   0.80481   0.00000  Uiso   1.00
C30    C     0.39484   0.05002   0.21821   0.00000  Uiso   1.00
C31    C     0.10982   0.44441   0.79266   0.00000  Uiso   1.00
C32    C     0.43429   0.37886   0.18813   0.00000  Uiso   1.00
C33    C     0.05590   0.11196   0.79413   0.00000  Uiso   1.00
C34    C     0.11355   0.05729   0.79729   0.00000  Uiso   1.00
C35    C     0.03098   0.27081   0.54278   0.00000  Uiso   1.00
C36    C     0.37379   0.43119   0.18507   0.00000  Uiso   1.00
C37    C     0.06257   0.38189   0.80732   0.00000  Uiso   1.00
C38    C     0.43836   0.11457   0.19676   0.00000  Uiso   1.00
C39    C     0.38723   0.44235   0.79815   0.00000  Uiso   1.00
C40    C     0.13367   0.07771   0.18045   0.00000  Uiso   1.00
C41    C     0.44204   0.11280   0.79953   0.00000  Uiso   1.00
C42    C     0.05090   0.39118   0.21320   0.00000  Uiso   1.00
C43    C     0.35399   0.19999   0.72384   0.00000  Uiso   1.00
C44    C     0.13283   0.31174   0.30308   0.00000  Uiso   1.00
C45    C     0.31584   0.37017   0.68866   0.00000  Uiso   1.00
C46    C     0.46470   0.27243   0.45529   0.00000  Uiso   1.00
C47    C     0.19914   0.13915   0.29055   0.00000  Uiso   1.00
C48    C     0.14445   0.29840   0.72224   0.00000  Uiso   1.00
C49    C     0.36805   0.18621   0.30590   0.00000  Uiso   1.00
C50    C     0.19239   0.13526   0.70605   0.00000  Uiso   1.00
C51    C     0.30770   0.36348   0.29971   0.00000  Uiso   1.00
C52    C     0.36672   0.31066   0.30146   0.00000  Uiso   1.00
C53    C     0.13733   0.19303   0.70211   0.00000  Uiso   1.00
C54    C     0.31828   0.12611   0.31488   0.00000  Uiso   1.00
C55    C     0.19678   0.35865   0.70965   0.00000  Uiso   1.00
C56    C     0.13571   0.19355   0.30077   0.00000  Uiso   1.00
C57    C     0.25329   0.03291   0.54320   0.00000  Uiso   1.00
C58    C     0.37239   0.31618   0.68947   0.00000  Uiso   1.00
C59    C     0.18437   0.37078   0.31059   0.00000  Uiso   1.00
C60    C     0.30822   0.13826   0.70308   0.00000  Uiso   1.00
C61    C     0.17896   0.01934   0.10127   0.00000  Uiso   1.00
C62    C     0.32107   0.01660   0.89649   0.00000  Uiso   1.00
C63    C     0.01782   0.17961   0.10161   0.00000  Uiso   1.00
C64    C     0.01794   0.32059   0.89738   0.00000  Uiso   1.00
C65    C     0.32064   0.01855   0.10263   0.00000  Uiso   1.00
C66    C     0.17971   0.02333   0.89625   0.00000  Uiso   1.00
C67    C     0.02408   0.32067   0.10386   0.00000  Uiso   1.00
C68    C     0.25235   0.46909   0.45699   0.00000  Uiso   1.00
C69    C     0.00514   0.17744   0.90178   0.00000  Uiso   1.00
C70    C     0.42705   0.25652   0.60019   0.00000  Uiso   1.00
C71    C     0.06563   0.28453   0.39486   0.00000  Uiso   1.00
C72    C     0.26495   0.42920   0.60021   0.00000  Uiso   1.00
C73    C     0.27223   0.07025   0.39697   0.00000  Uiso   1.00
C74    C     0.07011   0.26979   0.60122   0.00000  Uiso   1.00
C75    C     0.42491   0.26548   0.39729   0.00000  Uiso   1.00
C76    C     0.25639   0.07185   0.59992   0.00000  Uiso   1.00
C77    C     0.25684   0.42916   0.40138   0.00000  Uiso   1.00
C78    C     0.21672   0.01478   0.08290   0.00000  Uiso   1.00
C79    C     0.28337   0.01515   0.91521   0.00000  Uiso   1.00
C80    C     0.01618   0.21735   0.08368   0.00000  Uiso   1.00
C81    C     0.28270   0.01769   0.95465   0.00000  Uiso   1.00
C82    C     0.01341   0.28329   0.91652   0.00000  Uiso   1.00
C83    C     0.28320   0.01575   0.08383   0.00000  Uiso   1.00
C84    C     0.21703   0.01762   0.91514   0.00000  Uiso   1.00
C85    C     0.01856   0.28395   0.08465   0.00000  Uiso   1.00
C86    C     0.00797   0.21624   0.91857   0.00000  Uiso   1.00
C87    C     0.46542   0.26137   0.58251   0.00000  Uiso   1.00
C88    C     0.03017   0.27398   0.41532   0.00000  Uiso   1.00
C89    C     0.25921   0.46706   0.58249   0.00000  Uiso   1.00
C90    C     0.26318   0.03370   0.41615   0.00000  Uiso   1.00
C91    C     0.03255   0.26465   0.58221   0.00000  Uiso   1.00
C92    C     0.02335   0.21901   0.04464   0.00000  Uiso   1.00
C93    C     0.46348   0.26666   0.41578   0.00000  Uiso   1.00
C94    C     0.25556   0.03386   0.58258   0.00000  Uiso   1.00
C95    C     0.25616   0.46735   0.41773   0.00000  Uiso   1.00
C96    C     0.25065   0.01741   0.02156   0.00000  Uiso   1.00
C97    C     0.25053   0.01793   0.97707   0.00000  Uiso   1.00
C98    C     0.02137   0.25135   0.02278   0.00000  Uiso   1.00
C99    C     0.01843   0.25083   0.97860   0.00000  Uiso   1.00
C100   C     0.49824   0.27300   0.52147   0.00000  Uiso   1.00
C101   C     0.49716   0.27525   0.47710   0.00000  Uiso   1.00
C102   C     0.25704   0.00111   0.52151   0.00000  Uiso   1.00
C103   C     0.01794   0.28260   0.95588   0.00000  Uiso   1.00
C104   C     0.25730   0.00121   0.47802   0.00000  Uiso   1.00
C105   C     0.25169   0.00003   0.35465   0.00000  Uiso   1.00
C106   C     0.25102   0.00005   0.64520   0.00000  Uiso   1.00
C107   C     0.49959   0.25282   0.35489   0.00000  Uiso   1.00
C108   C     0.49989   0.25114   0.64474   0.00000  Uiso   1.00
C109   C     0.00102   0.24989   0.85500   0.00000  Uiso   1.00
C110   C     0.00250   0.25012   0.14536   0.00000  Uiso   1.00
C111   C     0.24997   0.00240   0.85465   0.00000  Uiso   1.00
C112   C     0.24996   0.00245   0.14508   0.00000  Uiso   1.00
C113   C     0.18168   0.07163   0.24796   0.00000  Uiso   1.00
C114   C     0.28265   0.01700   0.04421   0.00000  Uiso   1.00
C115   C     0.32031   0.43029   0.74948   0.00000  Uiso   1.00
C116   C     0.43031   0.17953   0.25047   0.00000  Uiso   1.00
C117   C     0.07078   0.31905   0.75163   0.00000  Uiso   1.00
C118   C     0.31909   0.42907   0.24873   0.00000  Uiso   1.00
C119   C     0.17985   0.06988   0.74997   0.00000  Uiso   1.00
C120   C     0.06903   0.32098   0.25140   0.00000  Uiso   1.00
C121   C     0.42966   0.18042   0.75108   0.00000  Uiso   1.00
C122   C     0.18027   0.42968   0.75039   0.00000  Uiso   1.00
C123   C     0.32111   0.06857   0.25208   0.00000  Uiso   1.00
C124   C     0.43042   0.32040   0.74951   0.00000  Uiso   1.00
C125   C     0.21821   0.01864   0.95461   0.00000  Uiso   1.00
C126   C     0.07057   0.18040   0.24981   0.00000  Uiso   1.00
C127   C     0.32029   0.06964   0.74936   0.00000  Uiso   1.00
C128   C     0.17900   0.43101   0.25163   0.00000  Uiso   1.00
C129   C     0.06994   0.17983   0.74982   0.00000  Uiso   1.00
C130   C     0.42973   0.31985   0.24947   0.00000  Uiso   1.00
C131   C     0.11468   0.41324   0.23485   0.00000  Uiso   1.00
C132   C     0.38161   0.09033   0.77089   0.00000  Uiso   1.00
C133   C     0.09990   0.12658   0.21876   0.00000  Uiso   1.00
C134   C     0.40731   0.38020   0.77488   0.00000  Uiso   1.00
C135   C     0.38381   0.08796   0.23336   0.00000  Uiso   1.00
C136   C     0.02179   0.28351   0.04511   0.00000  Uiso   1.00
C137   C     0.12098   0.40646   0.77604   0.00000  Uiso   1.00
C138   C     0.40232   0.37555   0.21791   0.00000  Uiso   1.00
C139   C     0.09165   0.11841   0.77201   0.00000  Uiso   1.00
C140   C     0.11921   0.09170   0.77326   0.00000  Uiso   1.00
C141   C     0.37359   0.40123   0.21666   0.00000  Uiso   1.00
C142   C     0.09513   0.37767   0.77895   0.00000  Uiso   1.00
C143   C     0.40863   0.11740   0.22873   0.00000  Uiso   1.00
C144   C     0.38066   0.40779   0.77351   0.00000  Uiso   1.00
C145   C     0.12976   0.10302   0.21479   0.00000  Uiso   1.00
C146   C     0.40801   0.11868   0.77358   0.00000  Uiso   1.00
C147   C     0.01518   0.21817   0.95772   0.00000  Uiso   1.00
C148   C     0.08703   0.38570   0.23551   0.00000  Uiso   1.00
C149   C     0.36772   0.16020   0.73259   0.00000  Uiso   1.00
C150   C     0.12497   0.34728   0.28170   0.00000  Uiso   1.00
C151   C     0.34669   0.37348   0.71986   0.00000  Uiso   1.00
C152   C     0.16234   0.13481   0.26937   0.00000  Uiso   1.00
C153   C     0.13439   0.33740   0.73569   0.00000  Uiso   1.00
C154   C     0.37527   0.15176   0.28203   0.00000  Uiso   1.00
C155   C     0.15622   0.12919   0.72553   0.00000  Uiso   1.00
C156   C     0.34129   0.36815   0.27227   0.00000  Uiso   1.00
C157   C     0.36970   0.34237   0.27313   0.00000  Uiso   1.00
C158   C     0.46651   0.27179   0.54420   0.00000  Uiso   1.00
C159   C     0.12978   0.15674   0.72481   0.00000  Uiso   1.00
C160   C     0.34885   0.12361   0.28391   0.00000  Uiso   1.00
C161   C     0.16138   0.36535   0.73378   0.00000  Uiso   1.00
C162   C     0.13355   0.16083   0.27212   0.00000  Uiso   1.00
C163   C     0.37453   0.34718   0.71968   0.00000  Uiso   1.00
C164   C     0.15198   0.37495   0.28224   0.00000  Uiso   1.00
C165   C     0.34199   0.13161   0.72894   0.00000  Uiso   1.00
C166   C     0.09409   0.35212   0.25606   0.00000  Uiso   1.00
C167   C     0.40118   0.15254   0.75316   0.00000  Uiso   1.00
C168   C     0.15768   0.10414   0.24357   0.00000  Uiso   1.00
F169   F     0.18665   0.02498   0.02856   0.00000  Uiso   1.00
F170   F     0.05791   0.29803   0.46896   0.00000  Uiso   1.00
F171   F     0.27731   0.43826   0.52524   0.00000  Uiso   1.00
F172   F     0.27878   0.06435   0.47357   0.00000  Uiso   1.00
F173   F     0.06343   0.27817   0.52647   0.00000  Uiso   1.00
F174   F     0.43204   0.27706   0.47159   0.00000  Uiso   1.00
F175   F     0.24237   0.06435   0.52775   0.00000  Uiso   1.00
F176   F     0.23752   0.43836   0.47275   0.00000  Uiso   1.00
F177   F     0.31610   0.01816   0.96942   0.00000  Uiso   1.00
F178   F     0.04441   0.18958   0.03177   0.00000  Uiso   1.00
F179   F     0.02415   0.31484   0.97049   0.00000  Uiso   1.00
F180   F     0.31592   0.01566   0.02937   0.00000  Uiso   1.00
F181   F     0.18531   0.01748   0.96927   0.00000  Uiso   1.00
F182   F     0.02753   0.31614   0.03040   0.00000  Uiso   1.00
F183   F     0.02221   0.18612   0.97404   0.00000  Uiso   1.00
F184   F     0.43542   0.28656   0.53147   0.00000  Uiso   1.00
H185   H     0.12659   0.46843   0.19900   0.00000  Uiso   1.00
H186   H     0.35080   0.44630   0.17301   0.00000  Uiso   1.00
H187   H     0.03718   0.36828   0.80630   0.00000  Uiso   1.00
H188   H     0.46222   0.13087   0.19409   0.00000  Uiso   1.00
H189   H     0.36762   0.45859   0.81548   0.00000  Uiso   1.00
H190   H     0.16052   0.06831   0.16977   0.00000  Uiso   1.00
H191   H     0.46559   0.12939   0.80102   0.00000  Uiso   1.00
H192   H     0.02447   0.37798   0.22216   0.00000  Uiso   1.00
H193   H     0.36811   0.22447   0.71035   0.00000  Uiso   1.00
H194   H     0.11313   0.29414   0.31921   0.00000  Uiso   1.00
H195   H     0.28672   0.37574   0.69415   0.00000  Uiso   1.00
H196   H     0.37677   0.02968   0.80002   0.00000  Uiso   1.00
H197   H     0.22533   0.12835   0.27762   0.00000  Uiso   1.00
H198   H     0.12823   0.27838   0.70543   0.00000  Uiso   1.00
H199   H     0.38751   0.20382   0.32099   0.00000  Uiso   1.00
H200   H     0.21789   0.12958   0.72254   0.00000  Uiso   1.00
H201   H     0.27990   0.37072   0.29065   0.00000  Uiso   1.00
H202   H     0.38891   0.29787   0.31911   0.00000  Uiso   1.00
H203   H     0.12866   0.21993   0.71374   0.00000  Uiso   1.00
H204   H     0.29156   0.11504   0.31295   0.00000  Uiso   1.00
H205   H     0.21818   0.37738   0.70467   0.00000  Uiso   1.00
H206   H     0.11352   0.20903   0.31608   0.00000  Uiso   1.00
H207   H     0.03831   0.12089   0.20901   0.00000  Uiso   1.00
H208   H     0.39486   0.30272   0.67462   0.00000  Uiso   1.00
H209   H     0.21054   0.38290   0.30800   0.00000  Uiso   1.00
H210   H     0.28419   0.12255   0.70183   0.00000  Uiso   1.00
H211   H     0.17527   0.02406   0.13155   0.00000  Uiso   1.00
H212   H     0.33033   0.49642   0.87536   0.00000  Uiso   1.00
H213   H     0.02351   0.17470   0.13152   0.00000  Uiso   1.00
H214   H     0.01491   0.32637   0.86782   0.00000  Uiso   1.00
H215   H     0.32856   0.00145   0.12671   0.00000  Uiso   1.00
H216   H     0.17300   0.01590   0.86808   0.00000  Uiso   1.00
H217   H     0.01612   0.32704   0.13226   0.00000  Uiso   1.00
H218   H     0.46699   0.37559   0.79802   0.00000  Uiso   1.00
H219   H     0.00284   0.17077   0.87144   0.00000  Uiso   1.00
H220   H     0.42108   0.24046   0.62590   0.00000  Uiso   1.00
H221   H     0.06618   0.29356   0.36418   0.00000  Uiso   1.00
H222   H     0.27037   0.42331   0.63051   0.00000  Uiso   1.00
H223   H     0.26643   0.07716   0.36817   0.00000  Uiso   1.00
H224   H     0.07337   0.28302   0.62960   0.00000  Uiso   1.00
H225   H     0.41834   0.25506   0.36871   0.00000  Uiso   1.00
H226   H     0.24372   0.07940   0.62721   0.00000  Uiso   1.00
H227   H     0.24435   0.42101   0.37393   0.00000  Uiso   1.00
H228   H     0.37845   0.02528   0.21093   0.00000  Uiso   1.00
H229   H     0.12680   0.46689   0.80479   0.00000  Uiso   1.00
H230   H     0.46344   0.37472   0.19531   0.00000  Uiso   1.00
H231   H     0.03058   0.12359   0.78549   0.00000  Uiso   1.00
H232   H     0.13414   0.04457   0.81612   0.00000  Uiso   1.00
O233   O     0.25000   0.00000   0.25000   0.00000  Uiso   1.00
O234   O     0.25000   0.46964   0.66317   0.00000  Uiso   1.00
O235   O     0.26971   0.40323   0.42084   0.00000  Uiso   1.00
O236   O     0.46964   0.25000   0.33683   0.00000  Uiso   1.00
O237   O     0.03036   0.25000   0.66317   0.00000  Uiso   1.00
O238   O     0.00000   0.21964   0.83683   0.00000  Uiso   1.00
O239   O     0.00000   0.28036   0.16317   0.00000  Uiso   1.00
O240   O     0.28036   0.00000   0.83683   0.00000  Uiso   1.00
O241   O     0.21964   0.00000   0.16317   0.00000  Uiso   1.00
O242   O     0.00000   0.28036   0.83683   0.00000  Uiso   1.00
O243   O     0.00000   0.21964   0.16317   0.00000  Uiso   1.00
O244   O     0.21964   0.00000   0.83683   0.00000  Uiso   1.00
O245   O     0.25000   0.00000   0.75000   0.00000  Uiso   1.00
O246   O     0.28036   0.00000   0.16317   0.00000  Uiso   1.00
O247   O     0.20726   0.07307   0.27282   0.00000  Uiso   1.00
O248   O     0.29275   0.42693   0.72718   0.00000  Uiso   1.00
O249   O     0.42693   0.20726   0.27282   0.00000  Uiso   1.00
O250   O     0.07307   0.29274   0.72718   0.00000  Uiso   1.00
O251   O     0.29275   0.42693   0.27282   0.00000  Uiso   1.00
O252   O     0.20726   0.07307   0.72718   0.00000  Uiso   1.00
O253   O     0.07307   0.29274   0.27282   0.00000  Uiso   1.00
O254   O     0.42693   0.20726   0.72718   0.00000  Uiso   1.00
O255   O     0.20726   0.42693   0.72718   0.00000  Uiso   1.00
O256   O     0.00000   0.25000   0.25000   0.00000  Uiso   1.00
O257   O     0.29275   0.07307   0.27282   0.00000  Uiso   1.00
O258   O     0.42693   0.29275   0.72718   0.00000  Uiso   1.00
O259   O     0.07307   0.20725   0.27282   0.00000  Uiso   1.00
O260   O     0.29275   0.07307   0.72718   0.00000  Uiso   1.00
O261   O     0.20726   0.42693   0.27282   0.00000  Uiso   1.00
O262   O     0.07307   0.20725   0.72718   0.00000  Uiso   1.00
O263   O     0.42693   0.29275   0.27282   0.00000  Uiso   1.00
O264   O     0.45726   0.32307   0.77282   0.00000  Uiso   1.00
O265   O     0.04275   0.17693   0.22718   0.00000  Uiso   1.00
O266   O     0.17693   0.45726   0.77282   0.00000  Uiso   1.00
O267   O     0.00000   0.25000   0.75000   0.00000  Uiso   1.00
O268   O     0.32307   0.04275   0.22718   0.00000  Uiso   1.00
O269   O     0.04275   0.17693   0.77282   0.00000  Uiso   1.00
O270   O     0.45726   0.32307   0.22718   0.00000  Uiso   1.00
O271   O     0.32307   0.04275   0.77282   0.00000  Uiso   1.00
O272   O     0.17693   0.45726   0.22718   0.00000  Uiso   1.00
O273   O     0.45726   0.17693   0.22718   0.00000  Uiso   1.00
O274   O     0.04275   0.32307   0.77282   0.00000  Uiso   1.00
O275   O     0.17693   0.04275   0.22718   0.00000  Uiso   1.00
O276   O     0.32307   0.45726   0.77282   0.00000  Uiso   1.00
O277   O     0.04275   0.32307   0.22718   0.00000  Uiso   1.00
O278   O     0.25000   0.46964   0.33683   0.00000  Uiso   1.00
O279   O     0.45726   0.17693   0.77282   0.00000  Uiso   1.00
O280   O     0.32307   0.45726   0.22718   0.00000  Uiso   1.00
O281   O     0.17693   0.04275   0.77282   0.00000  Uiso   1.00
O282   O     0.07574   0.46139   0.21266   0.00000  Uiso   1.00
O283   O     0.42358   0.04205   0.77690   0.00000  Uiso   1.00
O284   O     0.06546   0.11511   0.15866   0.00000  Uiso   1.00
O285   O     0.43405   0.39531   0.83765   0.00000  Uiso   1.00
O286   O     0.42719   0.04282   0.21533   0.00000  Uiso   1.00
O287   O     0.07811   0.45319   0.79096   0.00000  Uiso   1.00
O288   O     0.42834   0.38255   0.15377   0.00000  Uiso   1.00
O289   O     0.25000   0.03036   0.66317   0.00000  Uiso   1.00
O290   O     0.05301   0.09343   0.82405   0.00000  Uiso   1.00
O291   O     0.08397   0.04075   0.79720   0.00000  Uiso   1.00
O292   O     0.40232   0.44301   0.17104   0.00000  Uiso   1.00
O293   O     0.06338   0.40098   0.83579   0.00000  Uiso   1.00
O294   O     0.43724   0.09307   0.17053   0.00000  Uiso   1.00
O295   O     0.41892   0.45629   0.80040   0.00000  Uiso   1.00
O296   O     0.10742   0.06679   0.16131   0.00000  Uiso   1.00
O297   O     0.44470   0.08873   0.82377   0.00000  Uiso   1.00
O298   O     0.04992   0.40749   0.18126   0.00000  Uiso   1.00
O299   O     0.32279   0.20720   0.73391   0.00000  Uiso   1.00
O300   O     0.03036   0.25000   0.33683   0.00000  Uiso   1.00
O301   O     0.16332   0.29948   0.30090   0.00000  Uiso   1.00
O302   O     0.32374   0.36556   0.65524   0.00000  Uiso   1.00
O303   O     0.20283   0.15290   0.32398   0.00000  Uiso   1.00
O304   O     0.17325   0.28591   0.73294   0.00000  Uiso   1.00
O305   O     0.33689   0.19829   0.30784   0.00000  Uiso   1.00
O306   O     0.19575   0.14639   0.67141   0.00000  Uiso   1.00
O307   O     0.31078   0.35387   0.33325   0.00000  Uiso   1.00
O308   O     0.33554   0.29413   0.30509   0.00000  Uiso   1.00
O309   O     0.14908   0.19359   0.66811   0.00000  Uiso   1.00
O310   O     0.32198   0.14133   0.34522   0.00000  Uiso   1.00
O311   O     0.46964   0.25000   0.66317   0.00000  Uiso   1.00
O312   O     0.20306   0.33148   0.69058   0.00000  Uiso   1.00
O313   O     0.16536   0.20598   0.31434   0.00000  Uiso   1.00
O314   O     0.34350   0.30315   0.67892   0.00000  Uiso   1.00
O315   O     0.18267   0.35326   0.34055   0.00000  Uiso   1.00
O316   O     0.30622   0.16281   0.67944   0.00000  Uiso   1.00
O317   O     0.15030   0.02198   0.08205   0.00000  Uiso   1.00
O318   O     0.34525   0.03679   0.90967   0.00000  Uiso   1.00
O319   O     0.01648   0.15137   0.08160   0.00000  Uiso   1.00
O320   O     0.02578   0.34847   0.91570   0.00000  Uiso   1.00
O321   O     0.34621   0.03588   0.08720   0.00000  Uiso   1.00
O322   O     0.25000   0.03036   0.33683   0.00000  Uiso   1.00
O323   O     0.15332   0.03570   0.91412   0.00000  Uiso   1.00
O324   O     0.03695   0.34735   0.08645   0.00000  Uiso   1.00
O325   O     0.00759   0.14911   0.92231   0.00000  Uiso   1.00
O326   O     0.39891   0.26682   0.58310   0.00000  Uiso   1.00
O327   O     0.09509   0.28752   0.41296   0.00000  Uiso   1.00
O328   O     0.26564   0.40122   0.57991   0.00000  Uiso   1.00
O329   O     0.28546   0.09641   0.41469   0.00000  Uiso   1.00
O330   O     0.09923   0.26499   0.58304   0.00000  Uiso   1.00
O331   O     0.39679   0.27386   0.41577   0.00000  Uiso   1.00
O332   O     0.26966   0.09839   0.58140   0.00000  Uiso   1.00
Zn333  Zn    0.20660   0.00000   0.21760   0.00000  Uiso   1.00
Zn334  Zn    0.04340   0.25000   0.28240   0.00000  Uiso   1.00
Zn335  Zn    0.25000   0.45660   0.71760   0.00000  Uiso   1.00
Zn336  Zn    0.25000   0.04340   0.28240   0.00000  Uiso   1.00
Zn337  Zn    0.04340   0.25000   0.71760   0.00000  Uiso   1.00
Zn338  Zn    0.45660   0.25000   0.28240   0.00000  Uiso   1.00
Zn339  Zn    0.25000   0.04340   0.71760   0.00000  Uiso   1.00
Zn340  Zn    0.25000   0.45660   0.28240   0.00000  Uiso   1.00
Zn341  Zn    0.29340   0.00000   0.78240   0.00000  Uiso   1.00
Zn342  Zn    0.00000   0.20660   0.21760   0.00000  Uiso   1.00
Zn343  Zn    0.00000   0.29340   0.78240   0.00000  Uiso   1.00
Zn344  Zn    0.29340   0.00000   0.21760   0.00000  Uiso   1.00
Zn345  Zn    0.20660   0.00000   0.78240   0.00000  Uiso   1.00
Zn346  Zn    0.00000   0.29340   0.21760   0.00000  Uiso   1.00
Zn347  Zn    0.00000   0.20660   0.78240   0.00000  Uiso   1.00
Zn348  Zn    0.45660   0.25000   0.71760   0.00000  Uiso   1.00
C349   C     0.71841   0.01804   0.04360   0.00000  Uiso   1.00
C350   C     0.52871   0.28006   0.45459   0.00000  Uiso   1.00
C351   C     0.84950   0.40299   0.74807   0.00000  Uiso   1.00
C352   C     0.90411   0.14908   0.25326   0.00000  Uiso   1.00
C353   C     0.60070   0.34526   0.75590   0.00000  Uiso   1.00
C354   C     0.84492   0.39856   0.24537   0.00000  Uiso   1.00
C355   C     0.65118   0.09769   0.74979   0.00000  Uiso   1.00
C356   C     0.59773   0.15109   0.74906   0.00000  Uiso   1.00
C357   C     0.90037   0.34698   0.24736   0.00000  Uiso   1.00
C358   C     0.65354   0.39993   0.75271   0.00000  Uiso   1.00
C359   C     0.85189   0.09374   0.25704   0.00000  Uiso   1.00
C360   C     0.90362   0.34999   0.74777   0.00000  Uiso   1.00
C361   C     0.76201   0.46896   0.54264   0.00000  Uiso   1.00
C362   C     0.60159   0.15475   0.24777   0.00000  Uiso   1.00
C363   C     0.84870   0.09761   0.74890   0.00000  Uiso   1.00
C364   C     0.64805   0.40578   0.25644   0.00000  Uiso   1.00
C365   C     0.74988   0.01053   0.10382   0.00000  Uiso   1.00
C366   C     0.75003   0.01112   0.89520   0.00000  Uiso   1.00
C367   C     0.51147   0.25052   0.10427   0.00000  Uiso   1.00
C368   C     0.50653   0.24977   0.89698   0.00000  Uiso   1.00
C369   C     0.99933   0.25781   0.60277   0.00000  Uiso   1.00
C370   C     0.99777   0.26336   0.39568   0.00000  Uiso   1.00
C371   C     0.75491   0.00024   0.60330   0.00000  Uiso   1.00
C372   C     0.76390   0.03295   0.45625   0.00000  Uiso   1.00
C373   C     0.75671   0.00040   0.39626   0.00000  Uiso   1.00
C374   C     0.60705   0.44996   0.21450   0.00000  Uiso   1.00
C375   C     0.89276   0.05161   0.78433   0.00000  Uiso   1.00
C376   C     0.56532   0.12036   0.19497   0.00000  Uiso   1.00
C377   C     0.93907   0.38353   0.80481   0.00000  Uiso   1.00
C378   C     0.89484   0.05002   0.21821   0.00000  Uiso   1.00
C379   C     0.60982   0.44441   0.79266   0.00000  Uiso   1.00
C380   C     0.93429   0.37886   0.18813   0.00000  Uiso   1.00
C381   C     0.55590   0.11196   0.79413   0.00000  Uiso   1.00
C382   C     0.61355   0.05729   0.79729   0.00000  Uiso   1.00
C383   C     0.53098   0.27081   0.54278   0.00000  Uiso   1.00
C384   C     0.87379   0.43119   0.18507   0.00000  Uiso   1.00
C385   C     0.56257   0.38189   0.80732   0.00000  Uiso   1.00
C386   C     0.93836   0.11457   0.19676   0.00000  Uiso   1.00
C387   C     0.88723   0.44235   0.79815   0.00000  Uiso   1.00
C388   C     0.63367   0.07771   0.18045   0.00000  Uiso   1.00
C389   C     0.94204   0.11280   0.79953   0.00000  Uiso   1.00
C390   C     0.55090   0.39118   0.21320   0.00000  Uiso   1.00
C391   C     0.85399   0.19999   0.72384   0.00000  Uiso   1.00
C392   C     0.63283   0.31174   0.30308   0.00000  Uiso   1.00
C393   C     0.81584   0.37017   0.68866   0.00000  Uiso   1.00
C394   C     0.96470   0.27243   0.45529   0.00000  Uiso   1.00
C395   C     0.69914   0.13915   0.29055   0.00000  Uiso   1.00
C396   C     0.64445   0.29840   0.72224   0.00000  Uiso   1.00
C397   C     0.86805   0.18621   0.30590   0.00000  Uiso   1.00
C398   C     0.69239   0.13526   0.70605   0.00000  Uiso   1.00
C399   C     0.80770   0.36348   0.29971   0.00000  Uiso   1.00
C400   C     0.86672   0.31066   0.30146   0.00000  Uiso   1.00
C401   C     0.63733   0.19303   0.70211   0.00000  Uiso   1.00
C402   C     0.81828   0.12611   0.31488   0.00000  Uiso   1.00
C403   C     0.69678   0.35865   0.70965   0.00000  Uiso   1.00
C404   C     0.63571   0.19355   0.30077   0.00000  Uiso   1.00
C405   C     0.75329   0.03291   0.54320   0.00000  Uiso   1.00
C406   C     0.87239   0.31618   0.68947   0.00000  Uiso   1.00
C407   C     0.68437   0.37078   0.31059   0.00000  Uiso   1.00
C408   C     0.80822   0.13826   0.70308   0.00000  Uiso   1.00
C409   C     0.67896   0.01934   0.10127   0.00000  Uiso   1.00
C410   C     0.82107   0.01660   0.89649   0.00000  Uiso   1.00
C411   C     0.51782   0.17961   0.10161   0.00000  Uiso   1.00
C412   C     0.51794   0.32059   0.89738   0.00000  Uiso   1.00
C413   C     0.82064   0.01855   0.10263   0.00000  Uiso   1.00
C414   C     0.67971   0.02333   0.89625   0.00000  Uiso   1.00
C415   C     0.52408   0.32067   0.10386   0.00000  Uiso   1.00
C416   C     0.75235   0.46909   0.45699   0.00000  Uiso   1.00
C417   C     0.50514   0.17744   0.90178   0.00000  Uiso   1.00
C418   C     0.92705   0.25652   0.60019   0.00000  Uiso   1.00
C419   C     0.56563   0.28453   0.39486   0.00000  Uiso   1.00
C420   C     0.76495   0.42920   0.60021   0.00000  Uiso   1.00
C421   C     0.77223   0.07025   0.39697   0.00000  Uiso   1.00
C422   C     0.57011   0.26979   0.60122   0.00000  Uiso   1.00
C423   C     0.92491   0.26548   0.39729   0.00000  Uiso   1.00
C424   C     0.75639   0.07185   0.59992   0.00000  Uiso   1.00
C425   C     0.75684   0.42916   0.40138   0.00000  Uiso   1.00
C426   C     0.71672   0.01478   0.08290   0.00000  Uiso   1.00
C427   C     0.78337   0.01515   0.91521   0.00000  Uiso   1.00
C428   C     0.51618   0.21735   0.08368   0.00000  Uiso   1.00
C429   C     0.78270   0.01769   0.95465   0.00000  Uiso   1.00
C430   C     0.51341   0.28329   0.91652   0.00000  Uiso   1.00
C431   C     0.78320   0.01575   0.08383   0.00000  Uiso   1.00
C432   C     0.71703   0.01762   0.91514   0.00000  Uiso   1.00
C433   C     0.51856   0.28395   0.08465   0.00000  Uiso   1.00
C434   C     0.50797   0.21624   0.91857   0.00000  Uiso   1.00
C435   C     0.96542   0.26137   0.58251   0.00000  Uiso   1.00
C436   C     0.53017   0.27398   0.41532   0.00000  Uiso   1.00
C437   C     0.75921   0.46706   0.58249   0.00000  Uiso   1.00
C438   C     0.76318   0.03370   0.41615   0.00000  Uiso   1.00
C439   C     0.53255   0.26465   0.58221   0.00000  Uiso   1.00
C440   C     0.52335   0.21901   0.04464   0.00000  Uiso   1.00
C441   C     0.96348   0.26666   0.41578   0.00000  Uiso   1.00
C442   C     0.75556   0.03386   0.58258   0.00000  Uiso   1.00
C443   C     0.75616   0.46735   0.41773   0.00000  Uiso   1.00
C444   C     0.75065   0.01741   0.02156   0.00000  Uiso   1.00
C445   C     0.75053   0.01793   0.97707   0.00000  Uiso   1.00
C446   C     0.52137   0.25135   0.02278   0.00000  Uiso   1.00
C447   C     0.51843   0.25083   0.97860   0.00000  Uiso   1.00
C448   C     0.99824   0.27300   0.52147   0.00000  Uiso   1.00
C449   C     0.99716   0.27525   0.47710   0.00000  Uiso   1.00
C450   C     0.75704   0.00111   0.52151   0.00000  Uiso   1.00
C451   C     0.51794   0.28260   0.95588   0.00000  Uiso   1.00
C452   C     0.75730   0.00121   0.47802   0.00000  Uiso   1.00
C453   C     0.75169   0.00003   0.35465   0.00000  Uiso   1.00
C454   C     0.75102   0.00005   0.64520   0.00000  Uiso   1.00
C455   C     0.99959   0.25282   0.35489   0.00000  Uiso   1.00
C456   C     0.99989   0.25114   0.64474   0.00000  Uiso   1.00
C457   C     0.50102   0.24989   0.85500   0.00000  Uiso   1.00
C458   C     0.50250   0.25012   0.14536   0.00000  Uiso   1.00
C459   C     0.74997   0.00240   0.85465   0.00000  Uiso   1.00
C460   C     0.74996   0.00245   0.14508   0.00000  Uiso   1.00
C461   C     0.68168   0.07163   0.24796   0.00000  Uiso   1.00
C462   C     0.78265   0.01700   0.04421   0.00000  Uiso   1.00
C463   C     0.82031   0.43029   0.74948   0.00000  Uiso   1.00
C464   C     0.93031   0.17953   0.25047   0.00000  Uiso   1.00
C465   C     0.57078   0.31905   0.75163   0.00000  Uiso   1.00
C466   C     0.81909   0.42907   0.24873   0.00000  Uiso   1.00
C467   C     0.67985   0.06988   0.74997   0.00000  Uiso   1.00
C468   C     0.56903   0.32098   0.25140   0.00000  Uiso   1.00
C469   C     0.92966   0.18042   0.75108   0.00000  Uiso   1.00
C470   C     0.68027   0.42968   0.75039   0.00000  Uiso   1.00
C471   C     0.82111   0.06857   0.25208   0.00000  Uiso   1.00
C472   C     0.93042   0.32040   0.74951   0.00000  Uiso   1.00
C473   C     0.71821   0.01864   0.95461   0.00000  Uiso   1.00
C474   C     0.57057   0.18040   0.24981   0.00000  Uiso   1.00
C475   C     0.82029   0.06964   0.74936   0.00000  Uiso   1.00
C476   C     0.67900   0.43101   0.25163   0.00000  Uiso   1.00
C477   C     0.56994   0.17983   0.74982   0.00000  Uiso   1.00
C478   C     0.92973   0.31985   0.24947   0.00000  Uiso   1.00
C479   C     0.61468   0.41324   0.23485   0.00000  Uiso   1.00
C480   C     0.88161   0.09033   0.77089   0.00000  Uiso   1.00
C481   C     0.59990   0.12658   0.21876   0.00000  Uiso   1.00
C482   C     0.90731   0.38020   0.77488   0.00000  Uiso   1.00
C483   C     0.88381   0.08796   0.23336   0.00000  Uiso   1.00
C484   C     0.52179   0.28351   0.04511   0.00000  Uiso   1.00
C485   C     0.62098   0.40646   0.77604   0.00000  Uiso   1.00
C486   C     0.90232   0.37555   0.21791   0.00000  Uiso   1.00
C487   C     0.59165   0.11841   0.77201   0.00000  Uiso   1.00
C488   C     0.61921   0.09170   0.77326   0.00000  Uiso   1.00
C489   C     0.87359   0.40123   0.21666   0.00000  Uiso   1.00
C490   C     0.59513   0.37767   0.77895   0.00000  Uiso   1.00
C491   C     0.90863   0.11740   0.22873   0.00000  Uiso   1.00
C492   C     0.88066   0.40779   0.77351   0.00000  Uiso   1.00
C493   C     0.62976   0.10302   0.21479   0.00000  Uiso   1.00
C494   C     0.90801   0.11868   0.77358   0.00000  Uiso   1.00
C495   C     0.51518   0.21817   0.95772   0.00000  Uiso   1.00
C496   C     0.58703   0.38570   0.23551   0.00000  Uiso   1.00
C497   C     0.86772   0.16020   0.73259   0.00000  Uiso   1.00
C498   C     0.62497   0.34728   0.28170   0.00000  Uiso   1.00
C499   C     0.84669   0.37348   0.71986   0.00000  Uiso   1.00
C500   C     0.66234   0.13481   0.26937   0.00000  Uiso   1.00
C501   C     0.63439   0.33740   0.73569   0.00000  Uiso   1.00
C502   C     0.87527   0.15176   0.28203   0.00000  Uiso   1.00
C503   C     0.65622   0.12919   0.72553   0.00000  Uiso   1.00
C504   C     0.84129   0.36815   0.27227   0.00000  Uiso   1.00
C505   C     0.86970   0.34237   0.27313   0.00000  Uiso   1.00
C506   C     0.96651   0.27179   0.54420   0.00000  Uiso   1.00
C507   C     0.62978   0.15674   0.72481   0.00000  Uiso   1.00
C508   C     0.84885   0.12361   0.28391   0.00000  Uiso   1.00
C509   C     0.66138   0.36535   0.73378   0.00000  Uiso   1.00
C510   C     0.63355   0.16083   0.27212   0.00000  Uiso   1.00
C511   C     0.87453   0.34718   0.71968   0.00000  Uiso   1.00
C512   C     0.65198   0.37495   0.28224   0.00000  Uiso   1.00
C513   C     0.84199   0.13161   0.72894   0.00000  Uiso   1.00
C514   C     0.59409   0.35212   0.25606   0.00000  Uiso   1.00
C515   C     0.90118   0.15254   0.75316   0.00000  Uiso   1.00
C516   C     0.65768   0.10414   0.24357   0.00000  Uiso   1.00
F517   F     0.68665   0.02498   0.02856   0.00000  Uiso   1.00
F518   F     0.55791   0.29803   0.46896   0.00000  Uiso   1.00
F519   F     0.77731   0.43826   0.52524   0.00000  Uiso   1.00
F520   F     0.77878   0.06435   0.47357   0.00000  Uiso   1.00
F521   F     0.56343   0.27817   0.52647   0.00000  Uiso   1.00
F522   F     0.93204   0.27706   0.47159   0.00000  Uiso   1.00
F523   F     0.74237   0.06435   0.52775   0.00000  Uiso   1.00
F524   F     0.73752   0.43836   0.47275   0.00000  Uiso   1.00
F525   F     0.81610   0.01816   0.96942   0.00000  Uiso   1.00
F526   F     0.54441   0.18958   0.03177   0.00000  Uiso   1.00
F527   F     0.52415   0.31484   0.97049   0.00000  Uiso   1.00
F528   F     0.81592   0.01566   0.02937   0.00000  Uiso   1.00
F529   F     0.68531   0.01748   0.96927   0.00000  Uiso   1.00
F530   F     0.52753   0.31614   0.03040   0.00000  Uiso   1.00
F531   F     0.52221   0.18612   0.97404   0.00000  Uiso   1.00
F532   F     0.93542   0.28656   0.53147   0.00000  Uiso   1.00
H533   H     0.62659   0.46843   0.19900   0.00000  Uiso   1.00
H534   H     0.85080   0.44630   0.17301   0.00000  Uiso   1.00
H535   H     0.53718   0.36828   0.80630   0.00000  Uiso   1.00
H536   H     0.96222   0.13087   0.19409   0.00000  Uiso   1.00
H537   H     0.86762   0.45859   0.81548   0.00000  Uiso   1.00
H538   H     0.66052   0.06831   0.16977   0.00000  Uiso   1.00
H539   H     0.96559   0.12939   0.80102   0.00000  Uiso   1.00
H540   H     0.52447   0.37798   0.22216   0.00000  Uiso   1.00
H541   H     0.86811   0.22447   0.71035   0.00000  Uiso   1.00
H542   H     0.61313   0.29414   0.31921   0.00000  Uiso   1.00
H543   H     0.78672   0.37574   0.69415   0.00000  Uiso   1.00
H544   H     0.87677   0.02968   0.80002   0.00000  Uiso   1.00
H545   H     0.72533   0.12835   0.27762   0.00000  Uiso   1.00
H546   H     0.62823   0.27838   0.70543   0.00000  Uiso   1.00
H547   H     0.88751   0.20382   0.32099   0.00000  Uiso   1.00
H548   H     0.71789   0.12958   0.72254   0.00000  Uiso   1.00
H549   H     0.77990   0.37072   0.29065   0.00000  Uiso   1.00
H550   H     0.88891   0.29787   0.31911   0.00000  Uiso   1.00
H551   H     0.62866   0.21993   0.71374   0.00000  Uiso   1.00
H552   H     0.79156   0.11504   0.31295   0.00000  Uiso   1.00
H553   H     0.71818   0.37738   0.70467   0.00000  Uiso   1.00
H554   H     0.61352   0.20903   0.31608   0.00000  Uiso   1.00
H555   H     0.53831   0.12089   0.20901   0.00000  Uiso   1.00
H556   H     0.89486   0.30272   0.67462   0.00000  Uiso   1.00
H557   H     0.71054   0.38290   0.30800   0.00000  Uiso   1.00
H558   H     0.78419   0.12255   0.70183   0.00000  Uiso   1.00
H559   H     0.67527   0.02406   0.13155   0.00000  Uiso   1.00
H560   H     0.83033   0.49642   0.87536   0.00000  Uiso   1.00
H561   H     0.52351   0.17470   0.13152   0.00000  Uiso   1.00
H562   H     0.51491   0.32637   0.86782   0.00000  Uiso   1.00
H563   H     0.82856   0.00145   0.12671   0.00000  Uiso   1.00
H564   H     0.67300   0.01590   0.86808   0.00000  Uiso   1.00
H565   H     0.51612   0.32704   0.13226   0.00000  Uiso   1.00
H566   H     0.96699   0.37559   0.79802   0.00000  Uiso   1.00
H567   H     0.50284   0.17077   0.87144   0.00000  Uiso   1.00
H568   H     0.92108   0.24046   0.62590   0.00000  Uiso   1.00
H569   H     0.56618   0.29356   0.36418   0.00000  Uiso   1.00
H570   H     0.77037   0.42331   0.63051   0.00000  Uiso   1.00
H571   H     0.76643   0.07716   0.36817   0.00000  Uiso   1.00
H572   H     0.57337   0.28302   0.62960   0.00000  Uiso   1.00
H573   H     0.91834   0.25506   0.36871   0.00000  Uiso   1.00
H574   H     0.74372   0.07940   0.62721   0.00000  Uiso   1.00
H575   H     0.74435   0.42101   0.37393   0.00000  Uiso   1.00
H576   H     0.87845   0.02528   0.21093   0.00000  Uiso   1.00
H577   H     0.62680   0.46689   0.80479   0.00000  Uiso   1.00
H578   H     0.96344   0.37472   0.19531   0.00000  Uiso   1.00
H579   H     0.53058   0.12359   0.78549   0.00000  Uiso   1.00
H580   H     0.63414   0.04457   0.81612   0.00000  Uiso   1.00
O581   O     0.75000   0.00000   0.25000   0.00000  Uiso   1.00
O582   O     0.75000   0.46964   0.66317   0.00000  Uiso   1.00
O583   O     0.76971   0.40323   0.42084   0.00000  Uiso   1.00
O584   O     0.96964   0.25000   0.33683   0.00000  Uiso   1.00
O585   O     0.53036   0.25000   0.66317   0.00000  Uiso   1.00
O586   O     0.50000   0.21964   0.83683   0.00000  Uiso   1.00
O587   O     0.50000   0.28036   0.16317   0.00000  Uiso   1.00
O588   O     0.78036   0.00000   0.83683   0.00000  Uiso   1.00
O589   O     0.71964   0.00000   0.16317   0.00000  Uiso   1.00
O590   O     0.50000   0.28036   0.83683   0.00000  Uiso   1.00
O591   O     0.50000   0.21964   0.16317   0.00000  Uiso   1.00
O592   O     0.71964   0.00000   0.83683   0.00000  Uiso   1.00
O593   O     0.75000   0.00000   0.75000   0.00000  Uiso   1.00
O594   O     0.78036   0.00000   0.16317   0.00000  Uiso   1.00
O595   O     0.70726   0.07307   0.27282   0.00000  Uiso   1.00
O596   O     0.79275   0.42693   0.72718   0.00000  Uiso   1.00
O597   O     0.92693   0.20726   0.27282   0.00000  Uiso   1.00
O598   O     0.57307   0.29274   0.72718   0.00000  Uiso   1.00
O599   O     0.79275   0.42693   0.27282   0.00000  Uiso   1.00
O600   O     0.70726   0.07307   0.72718   0.00000  Uiso   1.00
O601   O     0.57307   0.29274   0.27282   0.00000  Uiso   1.00
O602   O     0.92693   0.20726   0.72718   0.00000  Uiso   1.00
O603   O     0.70726   0.42693   0.72718   0.00000  Uiso   1.00
O604   O     0.50000   0.25000   0.25000   0.00000  Uiso   1.00
O605   O     0.79275   0.07307   0.27282   0.00000  Uiso   1.00
O606   O     0.92693   0.29275   0.72718   0.00000  Uiso   1.00
O607   O     0.57307   0.20725   0.27282   0.00000  Uiso   1.00
O608   O     0.79275   0.07307   0.72718   0.00000  Uiso   1.00
O609   O     0.70726   0.42693   0.27282   0.00000  Uiso   1.00
O610   O     0.57307   0.20725   0.72718   0.00000  Uiso   1.00
O611   O     0.92693   0.29275   0.27282   0.00000  Uiso   1.00
O612   O     0.95726   0.32307   0.77282   0.00000  Uiso   1.00
O613   O     0.54275   0.17693   0.22718   0.00000  Uiso   1.00
O614   O     0.67693   0.45726   0.77282   0.00000  Uiso   1.00
O615   O     0.50000   0.25000   0.75000   0.00000  Uiso   1.00
O616   O     0.82307   0.04275   0.22718   0.00000  Uiso   1.00
O617   O     0.54275   0.17693   0.77282   0.00000  Uiso   1.00
O618   O     0.95726   0.32307   0.22718   0.00000  Uiso   1.00
O619   O     0.82307   0.04275   0.77282   0.00000  Uiso   1.00
O620   O     0.67693   0.45726   0.22718   0.00000  Uiso   1.00
O621   O     0.95726   0.17693   0.22718   0.00000  Uiso   1.00
O622   O     0.54275   0.32307   0.77282   0.00000  Uiso   1.00
O623   O     0.67693   0.04275   0.22718   0.00000  Uiso   1.00
O624   O     0.82307   0.45726   0.77282   0.00000  Uiso   1.00
O625   O     0.54275   0.32307   0.22718   0.00000  Uiso   1.00
O626   O     0.75000   0.46964   0.33683   0.00000  Uiso   1.00
O627   O     0.95726   0.17693   0.77282   0.00000  Uiso   1.00
O628   O     0.82307   0.45726   0.22718   0.00000  Uiso   1.00
O629   O     0.67693   0.04275   0.77282   0.00000  Uiso   1.00
O630   O     0.57574   0.46139   0.21266   0.00000  Uiso   1.00
O631   O     0.92358   0.04205   0.77690   0.00000  Uiso   1.00
O632   O     0.56546   0.11511   0.15866   0.00000  Uiso   1.00
O633   O     0.93405   0.39531   0.83765   0.00000  Uiso   1.00
O634   O     0.92719   0.04282   0.21533   0.00000  Uiso   1.00
O635   O     0.57811   0.45319   0.79096   0.00000  Uiso   1.00
O636   O     0.92834   0.38255   0.15377   0.00000  Uiso   1.00
O637   O     0.75000   0.03036   0.66317   0.00000  Uiso   1.00
O638   O     0.55301   0.09343   0.82405   0.00000  Uiso   1.00
O639   O     0.58397   0.04075   0.79720   0.00000  Uiso   1.00
O640   O     0.90232   0.44301   0.17104   0.00000  Uiso   1.00
O641   O     0.56338   0.40098   0.83579   0.00000  Uiso   1.00
O642   O     0.93724   0.09307   0.17053   0.00000  Uiso   1.00
O643   O     0.91892   0.45629   0.80040   0.00000  Uiso   1.00
O644   O     0.60742   0.06679   0.16131   0.00000  Uiso   1.00
O645   O     0.94470   0.08873   0.82377   0.00000  Uiso   1.00
O646   O     0.54992   0.40749   0.18126   0.00000  Uiso   1.00
O647   O     0.82279   0.20720   0.73391   0.00000  Uiso   1.00
O648   O     0.53036   0.25000   0.33683   0.00000  Uiso   1.00
O649   O     0.66332   0.29948   0.30090   0.00000  Uiso   1.00
O650   O     0.82374   0.36556   0.65524   0.00000  Uiso   1.00
O651   O     0.70283   0.15290   0.32398   0.00000  Uiso   1.00
O652   O     0.67325   0.28591   0.73294   0.00000  Uiso   1.00
O653   O     0.83689   0.19829   0.30784   0.00000  Uiso   1.00
O654   O     0.69575   0.14639   0.67141   0.00000  Uiso   1.00
O655   O     0.81078   0.35387   0.33325   0.00000  Uiso   1.00
O656   O     0.83554   0.29413   0.30509   0.00000  Uiso   1.00
O657   O     0.64908   0.19359   0.66811   0.00000  Uiso   1.00
O658   O     0.82198   0.14133   0.34522   0.00000  Uiso   1.00
O659   O     0.96964   0.25000   0.66317   0.00000  Uiso   1.00
O660   O     0.70306   0.33148   0.69058   0.00000  Uiso   1.00
O661   O     0.66536   0.20598   0.31434   0.00000  Uiso   1.00
O662   O     0.84350   0.30315   0.67892   0.00000  Uiso   1.00
O663   O     0.68267   0.35326   0.34055   0.00000  Uiso   1.00
O664   O     0.80622   0.16281   0.67944   0.00000  Uiso   1.00
O665   O     0.65030   0.02198   0.08205   0.00000  Uiso   1.00
O666   O     0.84525   0.03679   0.90967   0.00000  Uiso   1.00
O667   O     0.51648   0.15137   0.08160   0.00000  Uiso   1.00
O668   O     0.52578   0.34847   0.91570   0.00000  Uiso   1.00
O669   O     0.84621   0.03588   0.08720   0.00000  Uiso   1.00
O670   O     0.75000   0.03036   0.33683   0.00000  Uiso   1.00
O671   O     0.65332   0.03570   0.91412   0.00000  Uiso   1.00
O672   O     0.53695   0.34735   0.08645   0.00000  Uiso   1.00
O673   O     0.50759   0.14911   0.92231   0.00000  Uiso   1.00
O674   O     0.89891   0.26682   0.58310   0.00000  Uiso   1.00
O675   O     0.59509   0.28752   0.41296   0.00000  Uiso   1.00
O676   O     0.76564   0.40122   0.57991   0.00000  Uiso   1.00
O677   O     0.78546   0.09641   0.41469   0.00000  Uiso   1.00
O678   O     0.59923   0.26499   0.58304   0.00000  Uiso   1.00
O679   O     0.89679   0.27386   0.41577   0.00000  Uiso   1.00
O680   O     0.76966   0.09839   0.58140   0.00000  Uiso   1.00
Zn681  Zn    0.70660   0.00000   0.21760   0.00000  Uiso   1.00
Zn682  Zn    0.54340   0.25000   0.28240   0.00000  Uiso   1.00
Zn683  Zn    0.75000   0.45660   0.71760   0.00000  Uiso   1.00
Zn684  Zn    0.75000   0.04340   0.28240   0.00000  Uiso   1.00
Zn685  Zn    0.54340   0.25000   0.71760   0.00000  Uiso   1.00
Zn686  Zn    0.95660   0.25000   0.28240   0.00000  Uiso   1.00
Zn687  Zn    0.75000   0.04340   0.71760   0.00000  Uiso   1.00
Zn688  Zn    0.75000   0.45660   0.28240   0.00000  Uiso   1.00
Zn689  Zn    0.79340   0.00000   0.78240   0.00000  Uiso   1.00
Zn690  Zn    0.50000   0.20660   0.21760   0.00000  Uiso   1.00
Zn691  Zn    0.50000   0.29340   0.78240   0.00000  Uiso   1.00
Zn692  Zn    0.79340   0.00000   0.21760   0.00000  Uiso   1.00
Zn693  Zn    0.70660   0.00000   0.78240   0.00000  Uiso   1.00
Zn694  Zn    0.50000   0.29340   0.21760   0.00000  Uiso   1.00
Zn695  Zn    0.50000   0.20660   0.78240   0.00000  Uiso   1.00
Zn696  Zn    0.95660   0.25000   0.71760   0.00000  Uiso   1.00
C697   C     0.21841   0.51804   0.04360   0.00000  Uiso   1.00
C698   C     0.02871   0.78006   0.45459   0.00000  Uiso   1.00
C699   C     0.34950   0.90299   0.74807   0.00000  Uiso   1.00
C700   C     0.40411   0.64908   0.25326   0.00000  Uiso   1.00
C701   C     0.10070   0.84526   0.75590   0.00000  Uiso   1.00
C702   C     0.34492   0.89856   0.24537   0.00000  Uiso   1.00
C703   C     0.15118   0.59769   0.74979   0.00000  Uiso   1.00
C704   C     0.09773   0.65109   0.74906   0.00000  Uiso   1.00
C705   C     0.40037   0.84698   0.24736   0.00000  Uiso   1.00
C706   C     0.15354   0.89993   0.75271   0.00000  Uiso   1.00
C707   C     0.35189   0.59374   0.25704   0.00000  Uiso   1.00
C708   C     0.40362   0.84999   0.74777   0.00000  Uiso   1.00
C709   C     0.26201   0.96896   0.54264   0.00000  Uiso   1.00
C710   C     0.10159   0.65475   0.24777   0.00000  Uiso   1.00
C711   C     0.34870   0.59761   0.74890   0.00000  Uiso   1.00
C712   C     0.14805   0.90578   0.25644   0.00000  Uiso   1.00
C713   C     0.24988   0.51053   0.10382   0.00000  Uiso   1.00
C714   C     0.25003   0.51112   0.89520   0.00000  Uiso   1.00
C715   C     0.01147   0.75052   0.10427   0.00000  Uiso   1.00
C716   C     0.00653   0.74977   0.89698   0.00000  Uiso   1.00
C717   C     0.49933   0.75781   0.60277   0.00000  Uiso   1.00
C718   C     0.49777   0.76336   0.39568   0.00000  Uiso   1.00
C719   C     0.25491   0.50024   0.60330   0.00000  Uiso   1.00
C720   C     0.26390   0.53295   0.45625   0.00000  Uiso   1.00
C721   C     0.25671   0.50040   0.39626   0.00000  Uiso   1.00
C722   C     0.10705   0.94996   0.21450   0.00000  Uiso   1.00
C723   C     0.39276   0.55161   0.78433   0.00000  Uiso   1.00
C724   C     0.06532   0.62036   0.19497   0.00000  Uiso   1.00
C725   C     0.43907   0.88353   0.80481   0.00000  Uiso   1.00
C726   C     0.39484   0.55002   0.21821   0.00000  Uiso   1.00
C727   C     0.10982   0.94441   0.79266   0.00000  Uiso   1.00
C728   C     0.43429   0.87886   0.18813   0.00000  Uiso   1.00
C729   C     0.05590   0.61196   0.79413   0.00000  Uiso   1.00
C730   C     0.11355   0.55729   0.79729   0.00000  Uiso   1.00
C731   C     0.03098   0.77081   0.54278   0.00000  Uiso   1.00
C732   C     0.37379   0.93119   0.18507   0.00000  Uiso   1.00
C733   C     0.06257   0.88189   0.80732   0.00000  Uiso   1.00
C734   C     0.43836   0.61457   0.19676   0.00000  Uiso   1.00
C735   C     0.38723   0.94235   0.79815   0.00000  Uiso   1.00
C736   C     0.13367   0.57771   0.18045   0.00000  Uiso   1.00
C737   C     0.44204   0.61280   0.79953   0.00000  Uiso   1.00
C738   C     0.05090   0.89118   0.21320   0.00000  Uiso   1.00
C739   C     0.35399   0.69999   0.72384   0.00000  Uiso   1.00
C740   C     0.13283   0.81174   0.30308   0.00000  Uiso   1.00
C741   C     0.31584   0.87017   0.68866   0.00000  Uiso   1.00
C742   C     0.46470   0.77243   0.45529   0.00000  Uiso   1.00
C743   C     0.19914   0.63915   0.29055   0.00000  Uiso   1.00
C744   C     0.14445   0.79840   0.72224   0.00000  Uiso   1.00
C745   C     0.36805   0.68621   0.30590   0.00000  Uiso   1.00
C746   C     0.19239   0.63526   0.70605   0.00000  Uiso   1.00
C747   C     0.30770   0.86348   0.29971   0.00000  Uiso   1.00
C748   C     0.36672   0.81066   0.30146   0.00000  Uiso   1.00
C749   C     0.13733   0.69303   0.70211   0.00000  Uiso   1.00
C750   C     0.31828   0.62611   0.31488   0.00000  Uiso   1.00
C751   C     0.19678   0.85865   0.70965   0.00000  Uiso   1.00
C752   C     0.13571   0.69355   0.30077   0.00000  Uiso   1.00
C753   C     0.25329   0.53291   0.54320   0.00000  Uiso   1.00
C754   C     0.37239   0.81618   0.68947   0.00000  Uiso   1.00
C755   C     0.18437   0.87078   0.31059   0.00000  Uiso   1.00
C756   C     0.30822   0.63826   0.70308   0.00000  Uiso   1.00
C757   C     0.17896   0.51934   0.10127   0.00000  Uiso   1.00
C758   C     0.32107   0.51660   0.89649   0.00000  Uiso   1.00
C759   C     0.01782   0.67961   0.10161   0.00000  Uiso   1.00
C760   C     0.01794   0.82059   0.89738   0.00000  Uiso   1.00
C761   C     0.32064   0.51855   0.10263   0.00000  Uiso   1.00
C762   C     0.17971   0.52333   0.89625   0.00000  Uiso   1.00
C763   C     0.02408   0.82067   0.10386   0.00000  Uiso   1.00
C764   C     0.25235   0.96909   0.45699   0.00000  Uiso   1.00
C765   C     0.00514   0.67744   0.90178   0.00000  Uiso   1.00
C766   C     0.42705   0.75652   0.60019   0.00000  Uiso   1.00
C767   C     0.06563   0.78453   0.39486   0.00000  Uiso   1.00
C768   C     0.26495   0.92920   0.60021   0.00000  Uiso   1.00
C769   C     0.27223   0.57025   0.39697   0.00000  Uiso   1.00
C770   C     0.07011   0.76979   0.60122   0.00000  Uiso   1.00
C771   C     0.42491   0.76548   0.39729   0.00000  Uiso   1.00
C772   C     0.25639   0.57185   0.59992   0.00000  Uiso   1.00
C773   C     0.25684   0.92916   0.40138   0.00000  Uiso   1.00
C774   C     0.21672   0.51478   0.08290   0.00000  Uiso   1.00
C775   C     0.28337   0.51515   0.91521   0.00000  Uiso   1.00
C776   C     0.01618   0.71735   0.08368   0.00000  Uiso   1.00
C777   C     0.28270   0.51769   0.95465   0.00000  Uiso   1.00
C778   C     0.01341   0.78329   0.91652   0.00000  Uiso   1.00
C779   C     0.28320   0.51575   0.08383   0.00000  Uiso   1.00
C780   C     0.21703   0.51762   0.91514   0.00000  Uiso   1.00
C781   C     0.01856   0.78395   0.08465   0.00000  Uiso   1.00
C782   C     0.00797   0.71624   0.91857   0.00000  Uiso   1.00
C783   C     0.46542   0.76137   0.58251   0.00000  Uiso   1.00
C784   C     0.03017   0.77398   0.41532   0.00000  Uiso   1.00
C785   C     0.25921   0.96706   0.58249   0.00000  Uiso   1.00
C786   C     0.26318   0.53370   0.41615   0.00000  Uiso   1.00
C787   C     0.03255   0.76465   0.58221   0.00000  Uiso   1.00
C788   C     0.02335   0.71901   0.04464   0.00000  Uiso   1.00
C789   C     0.46348   0.76666   0.41578   0.00000  Uiso   1.00
C790   C     0.25556   0.53386   0.58258   0.00000  Uiso   1.00
C791   C     0.25616   0.96735   0.41773   0.00000  Uiso   1.00
C792   C     0.25065   0.51741   0.02156   0.00000  Uiso   1.00
C793   C     0.25053   0.51793   0.97707   0.00000  Uiso   1.00
C794   C     0.02137   0.75135   0.02278   0.00000  Uiso   1.00
C795   C     0.01843   0.75083   0.97860   0.00000  Uiso   1.00
C796   C     0.49824   0.77300   0.52147   0.00000  Uiso   1.00
C797   C     0.49716   0.77525   0.47710   0.00000  Uiso   1.00
C798   C     0.25704   0.50111   0.52151   0.00000  Uiso   1.00
C799   C     0.01794   0.78260   0.95588   0.00000  Uiso   1.00
C800   C     0.25730   0.50121   0.47802   0.00000  Uiso   1.00
C801   C     0.25169   0.50003   0.35465   0.00000  Uiso   1.00
C802   C     0.25102   0.50005   0.64520   0.00000  Uiso   1.00
C803   C     0.49959   0.75282   0.35489   0.00000  Uiso   1.00
C804   C     0.49989   0.75114   0.64474   0.00000  Uiso   1.00
C805   C     0.00102   0.74989   0.85500   0.00000  Uiso   1.00
C806   C     0.00250   0.75012   0.14536   0.00000  Uiso   1.00
C807   C     0.24997   0.50240   0.85465   0.00000  Uiso   1.00
C808   C     0.24996   0.50245   0.14508   0.00000  Uiso   1.00
C809   C     0.18168   0.57163   0.24796   0.00000  Uiso   1.00
C810   C     0.28265   0.51700   0.04421   0.00000  Uiso   1.00
C811   C     0.32031   0.93029   0.74948   0.00000  Uiso   1.00
C812   C     0.43031   0.67953   0.25047   0.00000  Uiso   1.00
C813   C     0.07078   0.81905   0.75163   0.00000  Uiso   1.00
C814   C     0.31909   0.92907   0.24873   0.00000  Uiso   1.00
C815   C     0.17985   0.56988   0.74997   0.00000  Uiso   1.00
C816   C     0.06903   0.82098   0.25140   0.00000  Uiso   1.00
C817   C     0.42966   0.68042   0.75108   0.00000  Uiso   1.00
C818   C     0.18027   0.92968   0.75039   0.00000  Uiso   1.00
C819   C     0.32111   0.56857   0.25208   0.00000  Uiso   1.00
C820   C     0.43042   0.82040   0.74951   0.00000  Uiso   1.00
C821   C     0.21821   0.51864   0.95461   0.00000  Uiso   1.00
C822   C     0.07057   0.68040   0.24981   0.00000  Uiso   1.00
C823   C     0.32029   0.56964   0.74936   0.00000  Uiso   1.00
C824   C     0.17900   0.93101   0.25163   0.00000  Uiso   1.00
C825   C     0.06994   0.67983   0.74982   0.00000  Uiso   1.00
C826   C     0.42973   0.81985   0.24947   0.00000  Uiso   1.00
C827   C     0.11468   0.91324   0.23485   0.00000  Uiso   1.00
C828   C     0.38161   0.59033   0.77089   0.00000  Uiso   1.00
C829   C     0.09990   0.62658   0.21876   0.00000  Uiso   1.00
C830   C     0.40731   0.88020   0.77488   0.00000  Uiso   1.00
C831   C     0.38381   0.58796   0.23336   0.00000  Uiso   1.00
C832   C     0.02179   0.78351   0.04511   0.00000  Uiso   1.00
C833   C     0.12098   0.90646   0.77604   0.00000  Uiso   1.00
C834   C     0.40232   0.87555   0.21791   0.00000  Uiso   1.00
C835   C     0.09165   0.61841   0.77201   0.00000  Uiso   1.00
C836   C     0.11921   0.59170   0.77326   0.00000  Uiso   1.00
C837   C     0.37359   0.90123   0.21666   0.00000  Uiso   1.00
C838   C     0.09513   0.87767   0.77895   0.00000  Uiso   1.00
C839   C     0.40863   0.61740   0.22873   0.00000  Uiso   1.00
C840   C     0.38066   0.90779   0.77351   0.00000  Uiso   1.00
C841   C     0.12976   0.60302   0.21479   0.00000  Uiso   1.00
C842   C     0.40801   0.61868   0.77358   0.00000  Uiso   1.00
C843   C     0.01518   0.71817   0.95772   0.00000  Uiso   1.00
C844   C     0.08703   0.88570   0.23551   0.00000  Uiso   1.00
C845   C     0.36772   0.66020   0.73259   0.00000  Uiso   1.00
C846   C     0.12497   0.84728   0.28170   0.00000  Uiso   1.00
C847   C     0.34669   0.87348   0.71986   0.00000  Uiso   1.00
C848   C     0.16234   0.63481   0.26937   0.00000  Uiso   1.00
C849   C     0.13439   0.83740   0.73569   0.00000  Uiso   1.00
C850   C     0.37527   0.65176   0.28203   0.00000  Uiso   1.00
C851   C     0.15622   0.62919   0.72553   0.00000  Uiso   1.00
C852   C     0.34129   0.86815   0.27227   0.00000  Uiso   1.00
C853   C     0.36970   0.84237   0.27313   0.00000  Uiso   1.00
C854   C     0.46651   0.77179   0.54420   0.00000  Uiso   1.00
C855   C     0.12978   0.65674   0.72481   0.00000  Uiso   1.00
C856   C     0.34885   0.62361   0.28391   0.00000  Uiso   1.00
C857   C     0.16138   0.86535   0.73378   0.00000  Uiso   1.00
C858   C     0.13355   0.66083   0.27212   0.00000  Uiso   1.00
C859   C     0.37453   0.84718   0.71968   0.00000  Uiso   1.00
C860   C     0.15198   0.87495   0.28224   0.00000  Uiso   1.00
C861   C     0.34199   0.63161   0.72894   0.00000  Uiso   1.00
C862   C     0.09409   0.85212   0.25606   0.00000  Uiso   1.00
C863   C     0.40118   0.65254   0.75316   0.00000  Uiso   1.00
C864   C     0.15768   0.60414   0.24357   0.00000  Uiso   1.00
F865   F     0.18665   0.52498   0.02856   0.00000  Uiso   1.00
F866   F     0.05791   0.79803   0.46896   0.00000  Uiso   1.00
F867   F     0.27731   0.93826   0.52524   0.00000  Uiso   1.00
F868   F     0.27878   0.56435   0.47357   0.00000  Uiso   1.00
F869   F     0.06343   0.77817   0.52647   0.00000  Uiso   1.00
F870   F     0.43204   0.77706   0.47159   0.00000  Uiso   1.00
F871   F     0.24237   0.56435   0.52775   0.00000  Uiso   1.00
F872   F     0.23752   0.93836   0.47275   0.00000  Uiso   1.00
F873   F     0.31610   0.51816   0.96942   0.00000  Uiso   1.00
F874   F     0.04441   0.68958   0.03177   0.00000  Uiso   1.00
F875   F     0.02415   0.81484   0.97049   0.00000  Uiso   1.00
F876   F     0.31592   0.51566   0.02937   0.00000  Uiso   1.00
F877   F     0.18531   0.51748   0.96927   0.00000  Uiso   1.00
F878   F     0.02753   0.81614   0.03040   0.00000  Uiso   1.00
F879   F     0.02221   0.68612   0.97404   0.00000  Uiso   1.00
F880   F     0.43542   0.78656   0.53147   0.00000  Uiso   1.00
H881   H     0.12659   0.96843   0.19900   0.00000  Uiso   1.00
H882   H     0.35080   0.94630   0.17301   0.00000  Uiso   1.00
H883   H     0.03718   0.86828   0.80630   0.00000  Uiso   1.00
H884   H     0.46222   0.63087   0.19409   0.00000  Uiso   1.00
H885   H     0.36762   0.95859   0.81548   0.00000  Uiso   1.00
H886   H     0.16052   0.56831   0.16977   0.00000  Uiso   1.00
H887   H     0.46559   0.62939   0.80102   0.00000  Uiso   1.00
H888   H     0.02447   0.87798   0.22216   0.00000  Uiso   1.00
H889   H     0.36811   0.72447   0.71035   0.00000  Uiso   1.00
H890   H     0.11313   0.79414   0.31921   0.00000  Uiso   1.00
H891   H     0.28672   0.87574   0.69415   0.00000  Uiso   1.00
H892   H     0.37677   0.52968   0.80002   0.00000  Uiso   1.00
H893   H     0.22533   0.62835   0.27762   0.00000  Uiso   1.00
H894   H     0.12823   0.77838   0.70543   0.00000  Uiso   1.00
H895   H     0.38751   0.70382   0.32099   0.00000  Uiso   1.00
H896   H     0.21789   0.62958   0.72254   0.00000  Uiso   1.00
H897   H     0.27990   0.87072   0.29065   0.00000  Uiso   1.00
H898   H     0.38891   0.79787   0.31911   0.00000  Uiso   1.00
H899   H     0.12866   0.71993   0.71374   0.00000  Uiso   1.00
H900   H     0.29156   0.61504   0.31295   0.00000  Uiso   1.00
H901   H     0.21818   0.87738   0.70467   0.00000  Uiso   1.00
H902   H     0.11352   0.70903   0.31608   0.00000  Uiso   1.00
H903   H     0.03831   0.62089   0.20901   0.00000  Uiso   1.00
H904   H     0.39486   0.80272   0.67462   0.00000  Uiso   1.00
H905   H     0.21054   0.88290   0.30800   0.00000  Uiso   1.00
H906   H     0.28419   0.62255   0.70183   0.00000  Uiso   1.00
H907   H     0.17527   0.52406   0.13155   0.00000  Uiso   1.00
H908   H     0.33033   0.99642   0.87536   0.00000  Uiso   1.00
H909   H     0.02351   0.67470   0.13152   0.00000  Uiso   1.00
H910   H     0.01491   0.82637   0.86782   0.00000  Uiso   1.00
H911   H     0.32856   0.50145   0.12671   0.00000  Uiso   1.00
H912   H     0.17300   0.51590   0.86808   0.00000  Uiso   1.00
H913   H     0.01612   0.82704   0.13226   0.00000  Uiso   1.00
H914   H     0.46699   0.87559   0.79802   0.00000  Uiso   1.00
H915   H     0.00284   0.67077   0.87144   0.00000  Uiso   1.00
H916   H     0.42108   0.74046   0.62590   0.00000  Uiso   1.00
H917   H     0.06618   0.79356   0.36418   0.00000  Uiso   1.00
H918   H     0.27037   0.92331   0.63051   0.00000  Uiso   1.00
H919   H     0.26643   0.57716   0.36817   0.00000  Uiso   1.00
H920   H     0.07337   0.78302   0.62960   0.00000  Uiso   1.00
H921   H     0.41834   0.75506   0.36871   0.00000  Uiso   1.00
H922   H     0.24372   0.57940   0.62721   0.00000  Uiso   1.00
H923   H     0.24435   0.92101   0.37393   0.00000  Uiso   1.00
H924   H     0.37845   0.52528   0.21093   0.00000  Uiso   1.00
H925   H     0.12680   0.96689   0.80479   0.00000  Uiso   1.00
H926   H     0.46344   0.87472   0.19531   0.00000  Uiso   1.00
H927   H     0.03058   0.62359   0.78549   0.00000  Uiso   1.00
H928   H     0.13414   0.54457   0.81612   0.00000  Uiso   1.00
O929   O     0.25000   0.50000   0.25000   0.00000  Uiso   1.00
O930   O     0.25000   0.96964   0.66317   0.00000  Uiso   1.00
O931   O     0.26971   0.90323   0.42084   0.00000  Uiso   1.00
O932   O     0.46964   0.75000   0.33683   0.00000  Uiso   1.00
O933   O     0.03036   0.75000   0.66317   0.00000  Uiso   1.00
O934   O     0.00000   0.71964   0.83683   0.00000  Uiso   1.00
O935   O     0.00000   0.78036   0.16317   0.00000  Uiso   1.00
O936   O     0.28036   0.50000   0.83683   0.00000  Uiso   1.00
O937   O     0.21964   0.50000   0.16317   0.00000  Uiso   1.00
O938   O     0.00000   0.78036   0.83683   0.00000  Uiso   1.00
O939   O     0.00000   0.71964   0.16317   0.00000  Uiso   1.00
O940   O     0.21964   0.50000   0.83683   0.00000  Uiso   1.00
O941   O     0.25000   0.50000   0.75000   0.00000  Uiso   1.00
O942   O     0.28036   0.50000   0.16317   0.00000  Uiso   1.00
O943   O     0.20726   0.57307   0.27282   0.00000  Uiso   1.00
O944   O     0.29275   0.92693   0.72718   0.00000  Uiso   1.00
O945   O     0.42693   0.70726   0.27282   0.00000  Uiso   1.00
O946   O     0.07307   0.79274   0.72718   0.00000  Uiso   1.00
O947   O     0.29275   0.92693   0.27282   0.00000  Uiso   1.00
O948   O     0.20726   0.57307   0.72718   0.00000  Uiso   1.00
O949   O     0.07307   0.79274   0.27282   0.00000  Uiso   1.00
O950   O     0.42693   0.70726   0.72718   0.00000  Uiso   1.00
O951   O     0.20726   0.92693   0.72718   0.00000  Uiso   1.00
O952   O     0.00000   0.75000   0.25000   0.00000  Uiso   1.00
O953   O     0.29275   0.57307   0.27282   0.00000  Uiso   1.00
O954   O     0.42693   0.79275   0.72718   0.00000  Uiso   1.00
O955   O     0.07307   0.70725   0.27282   0.00000  Uiso   1.00
O956   O     0.29275   0.57307   0.72718   0.00000  Uiso   1.00
O957   O     0.20726   0.92693   0.27282   0.00000  Uiso   1.00
O958   O     0.07307   0.70725   0.72718   0.00000  Uiso   1.00
O959   O     0.42693   0.79275   0.27282   0.00000  Uiso   1.00
O960   O     0.45726   0.82307   0.77282   0.00000  Uiso   1.00
O961   O     0.04275   0.67693   0.22718   0.00000  Uiso   1.00
O962   O     0.17693   0.95726   0.77282   0.00000  Uiso   1.00
O963   O     0.00000   0.75000   0.75000   0.00000  Uiso   1.00
O964   O     0.32307   0.54275   0.22718   0.00000  Uiso   1.00
O965   O     0.04275   0.67693   0.77282   0.00000  Uiso   1.00
O966   O     0.45726   0.82307   0.22718   0.00000  Uiso   1.00
O967   O     0.32307   0.54275   0.77282   0.00000  Uiso   1.00
O968   O     0.17693   0.95726   0.22718   0.00000  Uiso   1.00
O969   O     0.45726   0.67693   0.22718   0.00000  Uiso   1.00
O970   O     0.04275   0.82307   0.77282   0.00000  Uiso   1.00
O971   O     0.17693   0.54275   0.22718   0.00000  Uiso   1.00
O972   O     0.32307   0.95726   0.77282   0.00000  Uiso   1.00
O973   O     0.04275   0.82307   0.22718   0.00000  Uiso   1.00
O974   O     0.25000   0.96964   0.33683   0.00000  Uiso   1.00
O975   O     0.45726   0.67693   0.77282   0.00000  Uiso   1.00
O976   O     0.32307   0.95726   0.22718   0.00000  Uiso   1.00
O977   O     0.17693   0.54275   0.77282   0.00000  Uiso   1.00
O978   O     0.07574   0.96139   0.21266   0.00000  Uiso   1.00
O979   O     0.42358   0.54205   0.77690   0.00000  Uiso   1.00
O980   O     0.06546   0.61511   0.15866   0.00000  Uiso   1.00
O981   O     0.43405   0.89531   0.83765   0.00000  Uiso   1.00
O982   O     0.42719   0.54282   0.21533   0.00000  Uiso   1.00
O983   O     0.07811   0.95319   0.79096   0.00000  Uiso   1.00
O984   O     0.42834   0.88255   0.15377   0.00000  Uiso   1.00
O985   O     0.25000   0.53036   0.66317   0.00000  Uiso   1.00
O986   O     0.05301   0.59343   0.82405   0.00000  Uiso   1.00
O987   O     0.08397   0.54075   0.79720   0.00000  Uiso   1.00
O988   O     0.40232   0.94301   0.17104   0.00000  Uiso   1.00
O989   O     0.06338   0.90098   0.83579   0.00000  Uiso   1.00
O990   O     0.43724   0.59307   0.17053   0.00000  Uiso   1.00
O991   O     0.41892   0.95629   0.80040   0.00000  Uiso   1.00
O992   O     0.10742   0.56679   0.16131   0.00000  Uiso   1.00
O993   O     0.44470   0.58873   0.82377   0.00000  Uiso   1.00
O994   O     0.04992   0.90749   0.18126   0.00000  Uiso   1.00
O995   O     0.32279   0.70720   0.73391   0.00000  Uiso   1.00
O996   O     0.03036   0.75000   0.33683   0.00000  Uiso   1.00
O997   O     0.16332   0.79948   0.30090   0.00000  Uiso   1.00
O998   O     0.32374   0.86556   0.65524   0.00000  Uiso   1.00
O999   O     0.20283   0.65290   0.32398   0.00000  Uiso   1.00
O1000  O     0.17325   0.78591   0.73294   0.00000  Uiso   1.00
O1001  O     0.33689   0.69829   0.30784   0.00000  Uiso   1.00
O1002  O     0.19575   0.64639   0.67141   0.00000  Uiso   1.00
O1003  O     0.31078   0.85387   0.33325   0.00000  Uiso   1.00
O1004  O     0.33554   0.79413   0.30509   0.00000  Uiso   1.00
O1005  O     0.14908   0.69359   0.66811   0.00000  Uiso   1.00
O1006  O     0.32198   0.64133   0.34522   0.00000  Uiso   1.00
O1007  O     0.46964   0.75000   0.66317   0.00000  Uiso   1.00
O1008  O     0.20306   0.83148   0.69058   0.00000  Uiso   1.00
O1009  O     0.16536   0.70598   0.31434   0.00000  Uiso   1.00
O1010  O     0.34350   0.80315   0.67892   0.00000  Uiso   1.00
O1011  O     0.18267   0.85326   0.34055   0.00000  Uiso   1.00
O1012  O     0.30622   0.66281   0.67944   0.00000  Uiso   1.00
O1013  O     0.15030   0.52198   0.08205   0.00000  Uiso   1.00
O1014  O     0.34525   0.53679   0.90967   0.00000  Uiso   1.00
O1015  O     0.01648   0.65137   0.08160   0.00000  Uiso   1.00
O1016  O     0.02578   0.84847   0.91570   0.00000  Uiso   1.00
O1017  O     0.34621   0.53588   0.08720   0.00000  Uiso   1.00
O1018  O     0.25000   0.53036   0.33683   0.00000  Uiso   1.00
O1019  O     0.15332   0.53570   0.91412   0.00000  Uiso   1.00
O1020  O     0.03695   0.84735   0.08645   0.00000  Uiso   1.00
O1021  O     0.00759   0.64911   0.92231   0.00000  Uiso   1.00
O1022  O     0.39891   0.76682   0.58310   0.00000  Uiso   1.00
O1023  O     0.09509   0.78752   0.41296   0.00000  Uiso   1.00
O1024  O     0.26564   0.90122   0.57991   0.00000  Uiso   1.00
O1025  O     0.28546   0.59641   0.41469   0.00000  Uiso   1.00
O1026  O     0.09923   0.76499   0.58304   0.00000  Uiso   1.00
O1027  O     0.39679   0.77386   0.41577   0.00000  Uiso   1.00
O1028  O     0.26966   0.59839   0.58140   0.00000  Uiso   1.00
Zn1029 Zn    0.20660   0.50000   0.21760   0.00000  Uiso   1.00
Zn1030 Zn    0.04340   0.75000   0.28240   0.00000  Uiso   1.00
Zn1031 Zn    0.25000   0.95660   0.71760   0.00000  Uiso   1.00
Zn1032 Zn    0.25000   0.54340   0.28240   0.00000  Uiso   1.00
Zn1033 Zn    0.04340   0.75000   0.71760   0.00000  Uiso   1.00
Zn1034 Zn    0.45660   0.75000   0.28240   0.00000  Uiso   1.00
Zn1035 Zn    0.25000   0.54340   0.71760   0.00000  Uiso   1.00
Zn1036 Zn    0.25000   0.95660   0.28240   0.00000  Uiso   1.00
Zn1037 Zn    0.29340   0.50000   0.78240   0.00000  Uiso   1.00
Zn1038 Zn    0.00000   0.70660   0.21760   0.00000  Uiso   1.00
Zn1039 Zn    0.00000   0.79340   0.78240   0.00000  Uiso   1.00
Zn1040 Zn    0.29340   0.50000   0.21760   0.00000  Uiso   1.00
Zn1041 Zn    0.20660   0.50000   0.78240   0.00000  Uiso   1.00
Zn1042 Zn    0.00000   0.79340   0.21760   0.00000  Uiso   1.00
Zn1043 Zn    0.00000   0.70660   0.78240   0.00000  Uiso   1.00
Zn1044 Zn    0.45660   0.75000   0.71760   0.00000  Uiso   1.00
C1045  C     0.71841   0.51804   0.04360   0.00000  Uiso   1.00
C1046  C     0.52871   0.78006   0.45459   0.00000  Uiso   1.00
C1047  C     0.84950   0.90299   0.74807   0.00000  Uiso   1.00
C1048  C     0.90411   0.64908   0.25326   0.00000  Uiso   1.00
C1049  C     0.60070   0.84526   0.75590   0.00000  Uiso   1.00
C1050  C     0.84492   0.89856   0.24537   0.00000  Uiso   1.00
C1051  C     0.65118   0.59769   0.74979   0.00000  Uiso   1.00
C1052  C     0.59773   0.65109   0.74906   0.00000  Uiso   1.00
C1053  C     0.90037   0.84698   0.24736   0.00000  Uiso   1.00
C1054  C     0.65354   0.89993   0.75271   0.00000  Uiso   1.00
C1055  C     0.85189   0.59374   0.25704   0.00000  Uiso   1.00
C1056  C     0.90362   0.84999   0.74777   0.00000  Uiso   1.00
C1057  C     0.76201   0.96896   0.54264   0.00000  Uiso   1.00
C1058  C     0.60159   0.65475   0.24777   0.00000  Uiso   1.00
C1059  C     0.84870   0.59761   0.74890   0.00000  Uiso   1.00
C1060  C     0.64805   0.90578   0.25644   0.00000  Uiso   1.00
C1061  C     0.74988   0.51053   0.10382   0.00000  Uiso   1.00
C1062  C     0.75003   0.51112   0.89520   0.00000  Uiso   1.00
C1063  C     0.51147   0.75052   0.10427   0.00000  Uiso   1.00
C1064  C     0.50653   0.74977   0.89698   0.00000  Uiso   1.00
C1065  C     0.99933   0.75781   0.60277   0.00000  Uiso   1.00
C1066  C     0.99777   0.76336   0.39568   0.00000  Uiso   1.00
C1067  C     0.75491   0.50024   0.60330   0.00000  Uiso   1.00
C1068  C     0.76390   0.53295   0.45625   0.00000  Uiso   1.00
C1069  C     0.75671   0.50040   0.39626   0.00000  Uiso   1.00
C1070  C     0.60705   0.94996   0.21450   0.00000  Uiso   1.00
C1071  C     0.89276   0.55161   0.78433   0.00000  Uiso   1.00
C1072  C     0.56532   0.62036   0.19497   0.00000  Uiso   1.00
C1073  C     0.93907   0.88353   0.80481   0.00000  Uiso   1.00
C1074  C     0.89484   0.55002   0.21821   0.00000  Uiso   1.00
C1075  C     0.60982   0.94441   0.79266   0.00000  Uiso   1.00
C1076  C     0.93429   0.87886   0.18813   0.00000  Uiso   1.00
C1077  C     0.55590   0.61196   0.79413   0.00000  Uiso   1.00
C1078  C     0.61355   0.55729   0.79729   0.00000  Uiso   1.00
C1079  C     0.53098   0.77081   0.54278   0.00000  Uiso   1.00
C1080  C     0.87379   0.93119   0.18507   0.00000  Uiso   1.00
C1081  C     0.56257   0.88189   0.80732   0.00000  Uiso   1.00
C1082  C     0.93836   0.61457   0.19676   0.00000  Uiso   1.00
C1083  C     0.88723   0.94235   0.79815   0.00000  Uiso   1.00
C1084  C     0.63367   0.57771   0.18045   0.00000  Uiso   1.00
C1085  C     0.94204   0.61280   0.79953   0.00000  Uiso   1.00
C1086  C     0.55090   0.89118   0.21320   0.00000  Uiso   1.00
C1087  C     0.85399   0.69999   0.72384   0.00000  Uiso   1.00
C1088  C     0.63283   0.81174   0.30308   0.00000  Uiso   1.00
C1089  C     0.81584   0.87017   0.68866   0.00000  Uiso   1.00
C1090  C     0.96470   0.77243   0.45529   0.00000  Uiso   1.00
C1091  C     0.69914   0.63915   0.29055   0.00000  Uiso   1.00
C1092  C     0.64445   0.79840   0.72224   0.00000  Uiso   1.00
C1093  C     0.86805   0.68621   0.30590   0.00000  Uiso   1.00
C1094  C     0.69239   0.63526   0.70605   0.00000  Uiso   1.00
C1095  C     0.80770   0.86348   0.29971   0.00000  Uiso   1.00
C1096  C     0.86672   0.81066   0.30146   0.00000  Uiso   1.00
C1097  C     0.63733   0.69303   0.70211   0.00000  Uiso   1.00
C1098  C     0.81828   0.62611   0.31488   0.00000  Uiso   1.00
C1099  C     0.69678   0.85865   0.70965   0.00000  Uiso   1.00
C1100  C     0.63571   0.69355   0.30077   0.00000  Uiso   1.00
C1101  C     0.75329   0.53291   0.54320   0.00000  Uiso   1.00
C1102  C     0.87239   0.81618   0.68947   0.00000  Uiso   1.00
C1103  C     0.68437   0.87078   0.31059   0.00000  Uiso   1.00
C1104  C     0.80822   0.63826   0.70308   0.00000  Uiso   1.00
C1105  C     0.67896   0.51934   0.10127   0.00000  Uiso   1.00
C1106  C     0.82107   0.51660   0.89649   0.00000  Uiso   1.00
C1107  C     0.51782   0.67961   0.10161   0.00000  Uiso   1.00
C1108  C     0.51794   0.82059   0.89738   0.00000  Uiso   1.00
C1109  C     0.82064   0.51855   0.10263   0.00000  Uiso   1.00
C1110  C     0.67971   0.52333   0.89625   0.00000  Uiso   1.00
C1111  C     0.52408   0.82067   0.10386   0.00000  Uiso   1.00
C1112  C     0.75235   0.96909   0.45699   0.00000  Uiso   1.00
C1113  C     0.50514   0.67744   0.90178   0.00000  Uiso   1.00
C1114  C     0.92705   0.75652   0.60019   0.00000  Uiso   1.00
C1115  C     0.56563   0.78453   0.39486   0.00000  Uiso   1.00
C1116  C     0.76495   0.92920   0.60021   0.00000  Uiso   1.00
C1117  C     0.77223   0.57025   0.39697   0.00000  Uiso   1.00
C1118  C     0.57011   0.76979   0.60122   0.00000  Uiso   1.00
C1119  C     0.92491   0.76548   0.39729   0.00000  Uiso   1.00
C1120  C     0.75639   0.57185   0.59992   0.00000  Uiso   1.00
C1121  C     0.75684   0.92916   0.40138   0.00000  Uiso   1.00
C1122  C     0.71672   0.51478   0.08290   0.00000  Uiso   1.00
C1123  C     0.78337   0.51515   0.91521   0.00000  Uiso   1.00
C1124  C     0.51618   0.71735   0.08368   0.00000  Uiso   1.00
C1125  C     0.78270   0.51769   0.95465   0.00000  Uiso   1.00
C1126  C     0.51341   0.78329   0.91652   0.00000  Uiso   1.00
C1127  C     0.78320   0.51575   0.08383   0.00000  Uiso   1.00
C1128  C     0.71703   0.51762   0.91514   0.00000  Uiso   1.00
C1129  C     0.51856   0.78395   0.08465   0.00000  Uiso   1.00
C1130  C     0.50797   0.71624   0.91857   0.00000  Uiso   1.00
C1131  C     0.96542   0.76137   0.58251   0.00000  Uiso   1.00
C1132  C     0.53017   0.77398   0.41532   0.00000  Uiso   1.00
C1133  C     0.75921   0.96706   0.58249   0.00000  Uiso   1.00
C1134  C     0.76318   0.53370   0.41615   0.00000  Uiso   1.00
C1135  C     0.53255   0.76465   0.58221   0.00000  Uiso   1.00
C1136  C     0.52335   0.71901   0.04464   0.00000  Uiso   1.00
C1137  C     0.96348   0.76666   0.41578   0.00000  Uiso   1.00
C1138  C     0.75556   0.53386   0.58258   0.00000  Uiso   1.00
C1139  C     0.75616   0.96735   0.41773   0.00000  Uiso   1.00
C1140  C     0.75065   0.51741   0.02156   0.00000  Uiso   1.00
C1141  C     0.75053   0.51793   0.97707   0.00000  Uiso   1.00
C1142  C     0.52137   0.75135   0.02278   0.00000  Uiso   1.00
C1143  C     0.51843   0.75083   0.97860   0.00000  Uiso   1.00
C1144  C     0.99824   0.77300   0.52147   0.00000  Uiso   1.00
C1145  C     0.99716   0.77525   0.47710   0.00000  Uiso   1.00
C1146  C     0.75704   0.50111   0.52151   0.00000  Uiso   1.00
C1147  C     0.51794   0.78260   0.95588   0.00000  Uiso   1.00
C1148  C     0.75730   0.50121   0.47802   0.00000  Uiso   1.00
C1149  C     0.75169   0.50003   0.35465   0.00000  Uiso   1.00
C1150  C     0.75102   0.50005   0.64520   0.00000  Uiso   1.00
C1151  C     0.99959   0.75282   0.35489   0.00000  Uiso   1.00
C1152  C     0.99989   0.75114   0.64474   0.00000  Uiso   1.00
C1153  C     0.50102   0.74989   0.85500   0.00000  Uiso   1.00
C1154  C     0.50250   0.75012   0.14536   0.00000  Uiso   1.00
C1155  C     0.74997   0.50240   0.85465   0.00000  Uiso   1.00
C1156  C     0.74996   0.50245   0.14508   0.00000  Uiso   1.00
C1157  C     0.68168   0.57163   0.24796   0.00000  Uiso   1.00
C1158  C     0.78265   0.51700   0.04421   0.00000  Uiso   1.00
C1159  C     0.82031   0.93029   0.74948   0.00000  Uiso   1.00
C1160  C     0.93031   0.67953   0.25047   0.00000  Uiso   1.00
C1161  C     0.57078   0.81905   0.75163   0.00000  Uiso   1.00
C1162  C     0.81909   0.92907   0.24873   0.00000  Uiso   1.00
C1163  C     0.67985   0.56988   0.74997   0.00000  Uiso   1.00
C1164  C     0.56903   0.82098   0.25140   0.00000  Uiso   1.00
C1165  C     0.92966   0.68042   0.75108   0.00000  Uiso   1.00
C1166  C     0.68027   0.92968   0.75039   0.00000  Uiso   1.00
C1167  C     0.82111   0.56857   0.25208   0.00000  Uiso   1.00
C1168  C     0.93042   0.82040   0.74951   0.00000  Uiso   1.00
C1169  C     0.71821   0.51864   0.95461   0.00000  Uiso   1.00
C1170  C     0.57057   0.68040   0.24981   0.00000  Uiso   1.00
C1171  C     0.82029   0.56964   0.74936   0.00000  Uiso   1.00
C1172  C     0.67900   0.93101   0.25163   0.00000  Uiso   1.00
C1173  C     0.56994   0.67983   0.74982   0.00000  Uiso   1.00
C1174  C     0.92973   0.81985   0.24947   0.00000  Uiso   1.00
C1175  C     0.61468   0.91324   0.23485   0.00000  Uiso   1.00
C1176  C     0.88161   0.59033   0.77089   0.00000  Uiso   1.00
C1177  C     0.59990   0.62658   0.21876   0.00000  Uiso   1.00
C1178  C     0.90731   0.88020   0.77488   0.00000  Uiso   1.00
C1179  C     0.88381   0.58796   0.23336   0.00000  Uiso   1.00
C1180  C     0.52179   0.78351   0.04511   0.00000  Uiso   1.00
C1181  C     0.62098   0.90646   0.77604   0.00000  Uiso   1.00
C1182  C     0.90232   0.87555   0.21791   0.00000  Uiso   1.00
C1183  C     0.59165   0.61841   0.77201   0.00000  Uiso   1.00
C1184  C     0.61921   0.59170   0.77326   0.00000  Uiso   1.00
C1185  C     0.87359   0.90123   0.21666   0.00000  Uiso   1.00
C1186  C     0.59513   0.87767   0.77895   0.00000  Uiso   1.00
C1187  C     0.90863   0.61740   0.22873   0.00000  Uiso   1.00
C1188  C     0.88066   0.90779   0.77351   0.00000  Uiso   1.00
C1189  C     0.62976   0.60302   0.21479   0.00000  Uiso   1.00
C1190  C     0.90801   0.61868   0.77358   0.00000  Uiso   1.00
C1191  C     0.51518   0.71817   0.95772   0.00000  Uiso   1.00
C1192  C     0.58703   0.88570   0.23551   0.00000  Uiso   1.00
C1193  C     0.86772   0.66020   0.73259   0.00000  Uiso   1.00
C1194  C     0.62497   0.84728   0.28170   0.00000  Uiso   1.00
C1195  C     0.84669   0.87348   0.71986   0.00000  Uiso   1.00
C1196  C     0.66234   0.63481   0.26937   0.00000  Uiso   1.00
C1197  C     0.63439   0.83740   0.73569   0.00000  Uiso   1.00
C1198  C     0.87527   0.65176   0.28203   0.00000  Uiso   1.00
C1199  C     0.65622   0.62919   0.72553   0.00000  Uiso   1.00
C1200  C     0.84129   0.86815   0.27227   0.00000  Uiso   1.00
C1201  C     0.86970   0.84237   0.27313   0.00000  Uiso   1.00
C1202  C     0.96651   0.77179   0.54420   0.00000  Uiso   1.00
C1203  C     0.62978   0.65674   0.72481   0.00000  Uiso   1.00
C1204  C     0.84885   0.62361   0.28391   0.00000  Uiso   1.00
C1205  C     0.66138   0.86535   0.73378   0.00000  Uiso   1.00
C1206  C     0.63355   0.66083   0.27212   0.00000  Uiso   1.00
C1207  C     0.87453   0.84718   0.71968   0.00000  Uiso   1.00
C1208  C     0.65198   0.87495   0.28224   0.00000  Uiso   1.00
C1209  C     0.84199   0.63161   0.72894   0.00000  Uiso   1.00
C1210  C     0.59409   0.85212   0.25606   0.00000  Uiso   1.00
C1211  C     0.90118   0.65254   0.75316   0.00000  Uiso   1.00
C1212  C     0.65768   0.60414   0.24357   0.00000  Uiso   1.00
F1213  F     0.68665   0.52498   0.02856   0.00000  Uiso   1.00
F1214  F     0.55791   0.79803   0.46896   0.00000  Uiso   1.00
F1215  F     0.77731   0.93826   0.52524   0.00000  Uiso   1.00
F1216  F     0.77878   0.56435   0.47357   0.00000  Uiso   1.00
F1217  F     0.56343   0.77817   0.52647   0.00000  Uiso   1.00
F1218  F     0.93204   0.77706   0.47159   0.00000  Uiso   1.00
F1219  F     0.74237   0.56435   0.52775   0.00000  Uiso   1.00
F1220  F     0.73752   0.93836   0.47275   0.00000  Uiso   1.00
F1221  F     0.81610   0.51816   0.96942   0.00000  Uiso   1.00
F1222  F     0.54441   0.68958   0.03177   0.00000  Uiso   1.00
F1223  F     0.52415   0.81484   0.97049   0.00000  Uiso   1.00
F1224  F     0.81592   0.51566   0.02937   0.00000  Uiso   1.00
F1225  F     0.68531   0.51748   0.96927   0.00000  Uiso   1.00
F1226  F     0.52753   0.81614   0.03040   0.00000  Uiso   1.00
F1227  F     0.52221   0.68612   0.97404   0.00000  Uiso   1.00
F1228  F     0.93542   0.78656   0.53147   0.00000  Uiso   1.00
H1229  H     0.62659   0.96843   0.19900   0.00000  Uiso   1.00
H1230  H     0.85080   0.94630   0.17301   0.00000  Uiso   1.00
H1231  H     0.53718   0.86828   0.80630   0.00000  Uiso   1.00
H1232  H     0.96222   0.63087   0.19409   0.00000  Uiso   1.00
H1233  H     0.86762   0.95859   0.81548   0.00000  Uiso   1.00
H1234  H     0.66052   0.56831   0.16977   0.00000  Uiso   1.00
H1235  H     0.96559   0.62939   0.80102   0.00000  Uiso   1.00
H1236  H     0.52447   0.87798   0.22216   0.00000  Uiso   1.00
H1237  H     0.86811   0.72447   0.71035   0.00000  Uiso   1.00
H1238  H     0.61313   0.79414   0.31921   0.00000  Uiso   1.00
H1239  H     0.78672   0.87574   0.69415   0.00000  Uiso   1.00
H1240  H     0.87677   0.52968   0.80002   0.00000  Uiso   1.00
H1241  H     0.72533   0.62835   0.27762   0.00000  Uiso   1.00
H1242  H     0.62823   0.77838   0.70543   0.00000  Uiso   1.00
H1243  H     0.88751   0.70382   0.32099   0.00000  Uiso   1.00
H1244  H     0.71789   0.62958   0.72254   0.00000  Uiso   1.00
H1245  H     0.77990   0.87072   0.29065   0.00000  Uiso   1.00
H1246  H     0.88891   0.79787   0.31911   0.00000  Uiso   1.00
H1247  H     0.62866   0.71993   0.71374   0.00000  Uiso   1.00
H1248  H     0.79156   0.61504   0.31295   0.00000  Uiso   1.00
H1249  H     0.71818   0.87738   0.70467   0.00000  Uiso   1.00
H1250  H     0.61352   0.70903   0.31608   0.00000  Uiso   1.00
H1251  H     0.53831   0.62089   0.20901   0.00000  Uiso   1.00
H1252  H     0.89486   0.80272   0.67462   0.00000  Uiso   1.00
H1253  H     0.71054   0.88290   0.30800   0.00000  Uiso   1.00
H1254  H     0.78419   0.62255   0.70183   0.00000  Uiso   1.00
H1255  H     0.67527   0.52406   0.13155   0.00000  Uiso   1.00
H1256  H     0.83033   0.99642   0.87536   0.00000  Uiso   1.00
H1257  H     0.52351   0.67470   0.13152   0.00000  Uiso   1.00
H1258  H     0.51491   0.82637   0.86782   0.00000  Uiso   1.00
H1259  H     0.82856   0.50145   0.12671   0.00000  Uiso   1.00
H1260  H     0.67300   0.51590   0.86808   0.00000  Uiso   1.00
H1261  H     0.51612   0.82704   0.13226   0.00000  Uiso   1.00
H1262  H     0.96699   0.87559   0.79802   0.00000  Uiso   1.00
H1263  H     0.50284   0.67077   0.87144   0.00000  Uiso   1.00
H1264  H     0.92108   0.74046   0.62590   0.00000  Uiso   1.00
H1265  H     0.56618   0.79356   0.36418   0.00000  Uiso   1.00
H1266  H     0.77037   0.92331   0.63051   0.00000  Uiso   1.00
H1267  H     0.76643   0.57716   0.36817   0.00000  Uiso   1.00
H1268  H     0.57337   0.78302   0.62960   0.00000  Uiso   1.00
H1269  H     0.91834   0.75506   0.36871   0.00000  Uiso   1.00
H1270  H     0.74372   0.57940   0.62721   0.00000  Uiso   1.00
H1271  H     0.74435   0.92101   0.37393   0.00000  Uiso   1.00
H1272  H     0.87845   0.52528   0.21093   0.00000  Uiso   1.00
H1273  H     0.62680   0.96689   0.80479   0.00000  Uiso   1.00
H1274  H     0.96344   0.87472   0.19531   0.00000  Uiso   1.00
H1275  H     0.53058   0.62359   0.78549   0.00000  Uiso   1.00
H1276  H     0.63414   0.54457   0.81612   0.00000  Uiso   1.00
O1277  O     0.75000   0.50000   0.25000   0.00000  Uiso   1.00
O1278  O     0.75000   0.96964   0.66317   0.00000  Uiso   1.00
O1279  O     0.76971   0.90323   0.42084   0.00000  Uiso   1.00
O1280  O     0.96964   0.75000   0.33683   0.00000  Uiso   1.00
O1281  O     0.53036   0.75000   0.66317   0.00000  Uiso   1.00
O1282  O     0.50000   0.71964   0.83683   0.00000  Uiso   1.00
O1283  O     0.50000   0.78036   0.16317   0.00000  Uiso   1.00
O1284  O     0.78036   0.50000   0.83683   0.00000  Uiso   1.00
O1285  O     0.71964   0.50000   0.16317   0.00000  Uiso   1.00
O1286  O     0.50000   0.78036   0.83683   0.00000  Uiso   1.00
O1287  O     0.50000   0.71964   0.16317   0.00000  Uiso   1.00
O1288  O     0.71964   0.50000   0.83683   0.00000  Uiso   1.00
O1289  O     0.75000   0.50000   0.75000   0.00000  Uiso   1.00
O1290  O     0.78036   0.50000   0.16317   0.00000  Uiso   1.00
O1291  O     0.70726   0.57307   0.27282   0.00000  Uiso   1.00
O1292  O     0.79275   0.92693   0.72718   0.00000  Uiso   1.00
O1293  O     0.92693   0.70726   0.27282   0.00000  Uiso   1.00
O1294  O     0.57307   0.79274   0.72718   0.00000  Uiso   1.00
O1295  O     0.79275   0.92693   0.27282   0.00000  Uiso   1.00
O1296  O     0.70726   0.57307   0.72718   0.00000  Uiso   1.00
O1297  O     0.57307   0.79274   0.27282   0.00000  Uiso   1.00
O1298  O     0.92693   0.70726   0.72718   0.00000  Uiso   1.00
O1299  O     0.70726   0.92693   0.72718   0.00000  Uiso   1.00
O1300  O     0.50000   0.75000   0.25000   0.00000  Uiso   1.00
O1301  O     0.79275   0.57307   0.27282   0.00000  Uiso   1.00
O1302  O     0.92693   0.79275   0.72718   0.00000  Uiso   1.00
O1303  O     0.57307   0.70725   0.27282   0.00000  Uiso   1.00
O1304  O     0.79275   0.57307   0.72718   0.00000  Uiso   1.00
O1305  O     0.70726   0.92693   0.27282   0.00000  Uiso   1.00
O1306  O     0.57307   0.70725   0.72718   0.00000  Uiso   1.00
O1307  O     0.92693   0.79275   0.27282   0.00000  Uiso   1.00
O1308  O     0.95726   0.82307   0.77282   0.00000  Uiso   1.00
O1309  O     0.54275   0.67693   0.22718   0.00000  Uiso   1.00
O1310  O     0.67693   0.95726   0.77282   0.00000  Uiso   1.00
O1311  O     0.50000   0.75000   0.75000   0.00000  Uiso   1.00
O1312  O     0.82307   0.54275   0.22718   0.00000  Uiso   1.00
O1313  O     0.54275   0.67693   0.77282   0.00000  Uiso   1.00
O1314  O     0.95726   0.82307   0.22718   0.00000  Uiso   1.00
O1315  O     0.82307   0.54275   0.77282   0.00000  Uiso   1.00
O1316  O     0.67693   0.95726   0.22718   0.00000  Uiso   1.00
O1317  O     0.95726   0.67693   0.22718   0.00000  Uiso   1.00
O1318  O     0.54275   0.82307   0.77282   0.00000  Uiso   1.00
O1319  O     0.67693   0.54275   0.22718   0.00000  Uiso   1.00
O1320  O     0.82307   0.95726   0.77282   0.00000  Uiso   1.00
O1321  O     0.54275   0.82307   0.22718   0.00000  Uiso   1.00
O1322  O     0.75000   0.96964   0.33683   0.00000  Uiso   1.00
O1323  O     0.95726   0.67693   0.77282   0.00000  Uiso   1.00
O1324  O     0.82307   0.95726   0.22718   0.00000  Uiso   1.00
O1325  O     0.67693   0.54275   0.77282   0.00000  Uiso   1.00
O1326  O     0.57574   0.96139   0.21266   0.00000  Uiso   1.00
O1327  O     0.92358   0.54205   0.77690   0.00000  Uiso   1.00
O1328  O     0.56546   0.61511   0.15866   0.00000  Uiso   1.00
O1329  O     0.93405   0.89531   0.83765   0.00000  Uiso   1.00
O1330  O     0.92719   0.54282   0.21533   0.00000  Uiso   1.00
O1331  O     0.57811   0.95319   0.79096   0.00000  Uiso   1.00
O1332  O     0.92834   0.88255   0.15377   0.00000  Uiso   1.00
O1333  O     0.75000   0.53036   0.66317   0.00000  Uiso   1.00
O1334  O     0.55301   0.59343   0.82405   0.00000  Uiso   1.00
O1335  O     0.58397   0.54075   0.79720   0.00000  Uiso   1.00
O1336  O     0.90232   0.94301   0.17104   0.00000  Uiso   1.00
O1337  O     0.56338   0.90098   0.83579   0.00000  Uiso   1.00
O1338  O     0.93724   0.59307   0.17053   0.00000  Uiso   1.00
O1339  O     0.91892   0.95629   0.80040   0.00000  Uiso   1.00
O1340  O     0.60742   0.56679   0.16131   0.00000  Uiso   1.00
O1341  O     0.94470   0.58873   0.82377   0.00000  Uiso   1.00
O1342  O     0.54992   0.90749   0.18126   0.00000  Uiso   1.00
O1343  O     0.82279   0.70720   0.73391   0.00000  Uiso   1.00
O1344  O     0.53036   0.75000   0.33683   0.00000  Uiso   1.00
O1345  O     0.66332   0.79948   0.30090   0.00000  Uiso   1.00
O1346  O     0.82374   0.86556   0.65524   0.00000  Uiso   1.00
O1347  O     0.70283   0.65290   0.32398   0.00000  Uiso   1.00
O1348  O     0.67325   0.78591   0.73294   0.00000  Uiso   1.00
O1349  O     0.83689   0.69829   0.30784   0.00000  Uiso   1.00
O1350  O     0.69575   0.64639   0.67141   0.00000  Uiso   1.00
O1351  O     0.81078   0.85387   0.33325   0.00000  Uiso   1.00
O1352  O     0.83554   0.79413   0.30509   0.00000  Uiso   1.00
O1353  O     0.64908   0.69359   0.66811   0.00000  Uiso   1.00
O1354  O     0.82198   0.64133   0.34522   0.00000  Uiso   1.00
O1355  O     0.96964   0.75000   0.66317   0.00000  Uiso   1.00
O1356  O     0.70306   0.83148   0.69058   0.00000  Uiso   1.00
O1357  O     0.66536   0.70598   0.31434   0.00000  Uiso   1.00
O1358  O     0.84350   0.80315   0.67892   0.00000  Uiso   1.00
O1359  O     0.68267   0.85326   0.34055   0.00000  Uiso   1.00
O1360  O     0.80622   0.66281   0.67944   0.00000  Uiso   1.00
O1361  O     0.65030   0.52198   0.08205   0.00000  Uiso   1.00
O1362  O     0.84525   0.53679   0.90967   0.00000  Uiso   1.00
O1363  O     0.51648   0.65137   0.08160   0.00000  Uiso   1.00
O1364  O     0.52578   0.84847   0.91570   0.00000  Uiso   1.00
O1365  O     0.84621   0.53588   0.08720   0.00000  Uiso   1.00
O1366  O     0.75000   0.53036   0.33683   0.00000  Uiso   1.00
O1367  O     0.65332   0.53570   0.91412   0.00000  Uiso   1.00
O1368  O     0.53695   0.84735   0.08645   0.00000  Uiso   1.00
O1369  O     0.50759   0.64911   0.92231   0.00000  Uiso   1.00
O1370  O     0.89891   0.76682   0.58310   0.00000  Uiso   1.00
O1371  O     0.59509   0.78752   0.41296   0.00000  Uiso   1.00
O1372  O     0.76564   0.90122   0.57991   0.00000  Uiso   1.00
O1373  O     0.78546   0.59641   0.41469   0.00000  Uiso   1.00
O1374  O     0.59923   0.76499   0.58304   0.00000  Uiso   1.00
O1375  O     0.89679   0.77386   0.41577   0.00000  Uiso   1.00
O1376  O     0.76966   0.59839   0.58140   0.00000  Uiso   1.00
Zn1377 Zn    0.70660   0.50000   0.21760   0.00000  Uiso   1.00
Zn1378 Zn    0.54340   0.75000   0.28240   0.00000  Uiso   1.00
Zn1379 Zn    0.75000   0.95660   0.71760   0.00000  Uiso   1.00
Zn1380 Zn    0.75000   0.54340   0.28240   0.00000  Uiso   1.00
Zn1381 Zn    0.54340   0.75000   0.71760   0.00000  Uiso   1.00
Zn1382 Zn    0.95660   0.75000   0.28240   0.00000  Uiso   1.00
Zn1383 Zn    0.75000   0.54340   0.71760   0.00000  Uiso   1.00
Zn1384 Zn    0.75000   0.95660   0.28240   0.00000  Uiso   1.00
Zn1385 Zn    0.79340   0.50000   0.78240   0.00000  Uiso   1.00
Zn1386 Zn    0.50000   0.70660   0.21760   0.00000  Uiso   1.00
Zn1387 Zn    0.50000   0.79340   0.78240   0.00000  Uiso   1.00
Zn1388 Zn    0.79340   0.50000   0.21760   0.00000  Uiso   1.00
Zn1389 Zn    0.70660   0.50000   0.78240   0.00000  Uiso   1.00
Zn1390 Zn    0.50000   0.79340   0.21760   0.00000  Uiso   1.00
Zn1391 Zn    0.50000   0.70660   0.78240   0.00000  Uiso   1.00
Zn1392 Zn    0.95660   0.75000   0.71760   0.00000  Uiso   1.00
loop_
_geom_bond_atom_site_label_1
_geom_bond_atom_site_label_2
_geom_bond_distance
_geom_bond_site_symmetry_2
_ccdc_geom_bond_type
C1     C78     1.393   .     A
C1     C96     1.428   .     A
C1     F169    1.321   .     S
C2     F170    1.370   .     S
C2     C88     1.406   .     A
C2     C449    1.426   1_455 S
C3     C144    1.477   .     A
C3     C115    1.489   .     S
C3     C151    1.485   .     A
C4     C154    1.480   .     A
C4     C116    1.491   .     S
C4     C143    1.473   .     A
C5     C117    1.482   .     S
C5     C142    1.469   .     A
C5     C153    1.472   .     A
C6     C141    1.473   .     A
C6     C156    1.477   .     A
C6     C118    1.493   .     S
C7     C119    1.487   .     S
C7     C140    1.464   .     A
C7     C155    1.457   .     A
C8     C129    1.488   .     S
C8     C159    1.480   .     A
C8     C139    1.471   .     A
C9     C138    1.483   .     A
C9     C130    1.490   .     S
C9     C157    1.466   .     A
C10    C122    1.483   .     S
C10    C161    1.479   .     A
C10    C137    1.485   .     A
C11    C160    1.466   .     A
C11    C135    1.468   .     A
C11    C123    1.484   .     S
C12    C163    1.471   .     A
C12    C124    1.487   .     S
C12    C134    1.482   .     A
C13    F171    1.417   .     S
C13    C89     1.411   .     A
C13    C798    1.416   .     S
C14    C126    1.501   .     S
C14    C133    1.467   .     A
C14    C162    1.484   .     A
C15    C132    1.475   .     A
C15    C127    1.477   .     S
C15    C165    1.465   .     A
C16    C131    1.483   .     A
C16    C164    1.466   .     A
C16    C128    1.489   .     S
C17    C78     1.447   .     A
C17    C83     1.437   .     A
C17    C112    1.485   .     S
C18    C111    1.468   .     S
C18    C84     1.435   .     A
C18    C79     1.435   .     A
C19    C85     1.440   .     A
C19    C80     1.443   .     A
C19    C110    1.487   .     S
C20    C82     1.446   .     A
C20    C86     1.457   .     A
C20    C109    1.495   .     S
C21    C108    1.501   .     S
C21    C87     1.456   .     A
C21    C439    1.453   .     S
C22    C107    1.494   .     S
C22    C93     1.464   .     A
C22    C436    1.444   .     S
C23    C106    1.485   .     S
C23    C94     1.443   .     A
C23    C785    1.445   1_545 S
C24    C90     1.415   .     A
C24    C104    1.423   .     A
C24    F172    1.427   .     S
C25    C105    1.480   .     S
C25    C90     1.442   .     A
C25    C791    1.438   1_545 S
C26    H185    1.135   .     S
C26    O282    1.243   .     D
C26    C131    1.564   .     S
C27    H196    1.145   .     S
C27    C132    1.568   .     S
C27    O283    1.230   .     D
C28    O284    1.296   .     D
C28    C133    1.553   .     S
C28    H207    1.120   .     S
C29    H218    1.107   .     S
C29    O285    1.254   .     D
C29    C134    1.589   .     S
C30    C135    1.564   .     S
C30    O286    1.238   .     D
C30    H228    1.129   .     S
C31    C137    1.584   .     S
C31    H229    1.129   .     S
C31    O287    1.226   .     D
C32    H230    1.124   .     S
C32    C138    1.589   .     S
C32    O288    1.240   .     D
C33    C139    1.558   .     S
C33    O290    1.262   .     D
C33    H231    1.081   .     S
C34    C140    1.543   .     S
C34    O291    1.257   .     D
C34    H232    1.119   .     S
C35    F173    1.362   .     S
C35    C91     1.410   .     A
C35    C448    1.434   1_455 S
C36    C141    1.570   .     S
C36    O292    1.247   .     D
C36    H186    1.109   .     S
C37    C142    1.579   .     S
C37    O293    1.231   .     D
C37    H187    1.069   .     S
C38    H188    1.075   .     S
C38    C143    1.583   .     S
C38    O294    1.225   .     D
C39    H189    1.129   .     S
C39    O295    1.287   .     D
C39    C144    1.570   .     S
C40    C145    1.543   .     S
C40    O296    1.253   .     D
C40    H190    1.124   .     S
C41    H191    1.069   .     S
C41    C146    1.578   .     S
C41    O297    1.238   .     D
C42    C148    1.571   .     S
C42    O298    1.277   .     D
C42    H192    1.140   .     S
C43    H193    1.148   .     S
C43    C149    1.593   .     S
C43    O299    1.244   .     D
C44    O301    1.226   .     D
C44    C150    1.545   .     S
C44    H194    1.130   .     S
C45    C151    1.595   .     S
C45    H195    1.120   .     S
C45    O302    1.228   .     D
C46    F174    1.355   .     S
C46    C101    1.436   .     A
C46    C93     1.412   .     A
C47    C152    1.567   .     S
C47    O303    1.294   .     D
C47    H197    1.150   .     S
C48    C153    1.571   .     S
C48    H198    1.125   .     S
C48    O304    1.228   .     D
C49    H199    1.110   .     S
C49    O305    1.246   .     D
C49    C154    1.558   .     S
C50    C155    1.525   .     S
C50    O306    1.294   .     D
C50    H200    1.133   .     S
C51    H201    1.116   .     S
C51    C156    1.588   .     S
C51    O307    1.240   .     D
C52    C157    1.544   .     S
C52    H202    1.138   .     S
C52    O308    1.314   .     D
C53    O309    1.276   .     D
C53    C159    1.587   .     S
C53    H203    1.129   .     S
C54    O310    1.220   .     D
C54    H204    1.075   .     S
C54    C160    1.579   .     S
C55    O312    1.237   .     D
C55    C161    1.588   .     S
C55    H205    1.068   .     S
C56    C162    1.584   .     S
C56    H206    1.144   .     S
C56    O313    1.286   .     D
C57    C102    1.416   .     A
C57    F175    1.349   .     S
C57    C94     1.393   .     A
C58    H208    1.108   .     S
C58    O314    1.234   .     D
C58    C163    1.573   .     S
C59    C164    1.574   .     S
C59    H209    1.073   .     S
C59    O315    1.240   .     D
C60    C165    1.573   .     S
C60    O316    1.235   .     D
C60    H210    1.065   .     S
C61    O317    1.268   .     D
C61    H211    1.092   .     S
C61    C78     1.556   .     S
C62    O318    1.258   .     D
C62    C79     1.549   .     S
C62    H908    1.114   1_545 S
C63    C80     1.535   .     S
C63    O319    1.266   .     D
C63    H213    1.091   .     S
C64    O320    1.255   .     D
C64    H214    1.070   .     S
C64    C82     1.545   .     S
C65    O321    1.266   .     D
C65    H215    1.099   .     S
C65    C83     1.546   .     S
C66    H216    1.062   .     S
C66    O323    1.256   .     D
C66    C84     1.555   .     S
C67    C85     1.537   .     S
C67    H217    1.072   .     S
C67    O324    1.255   .     D
C68    F176    1.378   .     S
C68    C95     1.394   .     A
C68    C800    1.417   .     S
C69    O325    1.277   .     D
C69    H219    1.103   .     S
C69    C86     1.562   .     S
C70    C87     1.566   .     S
C70    O326    1.268   .     D
C70    H220    1.105   .     S
C71    H221    1.132   .     S
C71    C88     1.550   .     S
C71    O327    1.273   .     D
C72    O328    1.264   .     D
C72    H222    1.109   .     S
C72    C89     1.550   .     S
C73    C90     1.548   .     S
C73    H223    1.069   .     S
C73    O329    1.255   .     D
C74    O330    1.272   .     D
C74    H224    1.123   .     S
C74    C91     1.561   .     S
C75    C93     1.577   .     S
C75    H225    1.108   .     S
C75    O331    1.272   .     D
C76    C94     1.539   .     S
C76    O332    1.276   .     D
C76    H226    1.109   .     S
C77    O235    1.275   .     D
C77    H227    1.116   .     S
C77    C95     1.532   .     S
C79    C81     1.395   .     A
C80    C92     1.404   .     A
C81    F177    1.347   .     S
C81    C97     1.433   .     A
C82    C103    1.399   .     A
C83    C114    1.399   .     A
C84    C125    1.394   .     A
C85    C136    1.400   .     A
C86    C147    1.410   .     A
C87    C158    1.405   .     A
C88    C370    1.444   1_455 S
C89    C719    1.445   .     S
C91    C369    1.453   1_455 S
C92    C98     1.426   .     A
C92    F178    1.422   .     S
C95    C721    1.438   .     S
C96    C114    1.434   .     A
C96    C97     1.570   1_554 S
C97    C125    1.440   .     A
C97    C96     1.570   1_556 S
C98    C136    1.432   .     A
C98    C99     1.563   1_554 S
C99    C103    1.423   .     A
C99    C147    1.425   .     A
C99    C98     1.563   1_556 S
C100   C101    1.568   .     S
C100   C158    1.426   .     A
C100   C383    1.434   .     S
C101   C350    1.426   .     S
C102   C104    1.535   .     S
C102   C709    1.416   1_545 S
C103   F179    1.323   .     S
C104   C764    1.417   1_545 S
C105   O322    1.288   .     A
C105   O974    1.294   1_545 S
C106   O289    1.294   .     A
C106   O930    1.292   1_545 S
C107   O236    1.287   .     A
C107   O648    1.314   .     S
C108   O311    1.299   .     A
C108   O585    1.308   .     S
C109   O242    1.298   .     A
C109   O238    1.295   .     S
C110   O239    1.291   .     S
C110   O243    1.294   .     S
C111   O240    1.296   .     A
C111   O244    1.295   .     A
C112   O241    1.297   .     S
C112   O246    1.302   .     S
C113   C168    1.511   .     S
C113   O247    1.295   .     A
C113   O275    1.312   .     A
C114   F180    1.344   .     S
C115   O248    1.299   .     A
C115   O276    1.302   .     A
C116   O249    1.305   .     A
C116   O273    1.299   .     A
C117   O250    1.308   .     A
C117   O274    1.292   .     A
C118   O251    1.298   .     A
C118   O280    1.298   .     A
C119   O281    1.291   .     A
C119   O252    1.302   .     A
C120   C166    1.490   .     S
C120   O253    1.298   .     A
C120   O277    1.301   .     A
C121   O279    1.288   .     A
C121   C167    1.478   .     S
C121   O254    1.306   .     A
C122   O255    1.299   .     A
C122   O266    1.302   .     A
C123   O257    1.295   .     A
C123   O268    1.305   .     A
C124   O264    1.297   .     A
C124   O258    1.302   .     A
C125   F181    1.328   .     S
C126   O265    1.313   .     A
C126   O259    1.291   .     A
C127   O271    1.298   .     A
C127   O260    1.296   .     A
C128   O261    1.299   .     A
C128   O272    1.301   .     A
C129   O262    1.296   .     A
C129   O269    1.299   .     A
C130   O270    1.295   .     A
C130   O263    1.301   .     A
C131   C148    1.445   .     A
C132   C146    1.438   .     A
C133   C145    1.423   .     A
C134   C144    1.429   .     A
C135   C143    1.434   .     A
C136   F182    1.331   .     S
C137   C142    1.436   .     A
C138   C141    1.435   .     A
C139   C140    1.429   .     A
C145   C168    1.453   .     A
C146   C167    1.469   .     A
C147   F183    1.345   .     S
C148   C166    1.464   .     A
C149   C165    1.431   .     A
C149   C167    1.469   .     A
C150   C166    1.474   .     A
C150   C164    1.433   .     A
C151   C163    1.426   .     A
C152   C168    1.469   .     A
C152   C162    1.448   .     A
C153   C161    1.440   .     A
C154   C160    1.431   .     A
C155   C159    1.421   .     A
C156   C157    1.429   .     A
C158   F184    1.357   .     S
H212   C758    1.114   .     S
O233   Zn336   1.978   .     S
O233   Zn333   1.978   .     S
O233   Zn1036  1.970   1_545 S
O233   Zn344   1.977   .     S
O234   Zn335   1.979   .     S
O234   C802    1.292   .     S
O236   Zn338   1.981   .     S
O237   Zn337   1.981   .     S
O237   C456    1.308   1_455 S
O238   Zn347   1.982   .     S
O239   Zn346   1.982   .     S
O240   Zn341   1.980   .     S
O241   Zn333   1.980   .     S
O242   Zn343   1.979   .     S
O243   Zn342   1.979   .     S
O244   Zn345   1.981   .     S
O245   Zn1031  1.978   1_545 S
O245   Zn339   1.970   .     S
O245   Zn341   1.978   .     S
O245   Zn345   1.977   .     S
O246   Zn344   1.981   .     S
O247   Zn336   1.966   .     S
O248   Zn335   1.966   .     S
O249   Zn338   1.957   .     S
O250   Zn337   1.957   .     S
O251   Zn340   1.967   .     S
O252   Zn339   1.967   .     S
O253   Zn334   1.955   .     S
O254   Zn348   1.955   .     S
O255   Zn335   1.957   .     S
O256   Zn334   1.978   .     S
O256   Zn346   1.970   .     S
O256   Zn686   1.977   1_455 S
O256   Zn342   1.978   .     S
O257   Zn336   1.957   .     S
O258   Zn348   1.966   .     S
O259   Zn334   1.966   .     S
O260   Zn339   1.959   .     S
O261   Zn340   1.959   .     S
O262   Zn337   1.964   .     S
O263   Zn338   1.964   .     S
O264   Zn691   1.966   .     S
O265   Zn342   1.966   .     S
O266   Zn1041  1.957   .     S
O267   Zn696   1.978   1_455 S
O267   Zn347   1.970   .     S
O267   Zn337   1.977   .     S
O267   Zn343   1.978   .     S
O268   Zn344   1.957   .     S
O269   Zn347   1.967   .     S
O270   Zn694   1.967   .     S
O271   Zn341   1.955   .     S
O272   Zn1029  1.955   .     S
O273   Zn690   1.957   .     S
O274   Zn343   1.957   .     S
O275   Zn333   1.966   .     S
O276   Zn1037  1.966   .     S
O277   Zn346   1.959   .     S
O278   Zn340   1.982   .     S
O278   C801    1.294   .     S
O279   Zn695   1.959   .     S
O280   Zn1040  1.964   .     S
O281   Zn345   1.964   .     S
O289   Zn339   1.982   .     S
O300   Zn334   1.980   .     S
O300   C455    1.314   1_455 S
O311   Zn348   1.980   .     S
O322   Zn336   1.979   .     S
Zn333  O968    1.955   1_545 S
Zn335  O941    1.978   .     S
Zn338  O604    1.977   .     S
Zn340  O929    1.970   .     S
Zn341  O972    1.966   1_545 S
Zn342  O621    1.957   1_455 S
Zn343  O612    1.966   1_455 S
Zn344  O976    1.964   1_545 S
Zn345  O962    1.957   1_545 S
Zn346  O618    1.967   1_455 S
Zn347  O627    1.959   1_455 S
Zn348  O615    1.978   .     S
C349   C426    1.393   .     A
C349   C444    1.428   .     A
C349   F517    1.321   .     S
C350   F518    1.370   .     S
C350   C436    1.406   .     A
C351   C492    1.477   .     A
C351   C463    1.489   .     S
C351   C499    1.485   .     A
C352   C502    1.480   .     A
C352   C464    1.491   .     S
C352   C491    1.473   .     A
C353   C465    1.482   .     S
C353   C490    1.469   .     A
C353   C501    1.472   .     A
C354   C489    1.473   .     A
C354   C504    1.477   .     A
C354   C466    1.493   .     S
C355   C467    1.487   .     S
C355   C488    1.464   .     A
C355   C503    1.457   .     A
C356   C477    1.488   .     S
C356   C507    1.480   .     A
C356   C487    1.471   .     A
C357   C486    1.483   .     A
C357   C478    1.490   .     S
C357   C505    1.466   .     A
C358   C470    1.483   .     S
C358   C509    1.479   .     A
C358   C485    1.485   .     A
C359   C508    1.466   .     A
C359   C483    1.468   .     A
C359   C471    1.484   .     S
C360   C511    1.471   .     A
C360   C472    1.487   .     S
C360   C482    1.482   .     A
C361   F519    1.417   .     S
C361   C437    1.411   .     A
C361   C1146   1.416   .     S
C362   C474    1.501   .     S
C362   C481    1.467   .     A
C362   C510    1.484   .     A
C363   C480    1.475   .     A
C363   C475    1.477   .     S
C363   C513    1.465   .     A
C364   C479    1.483   .     A
C364   C512    1.466   .     A
C364   C476    1.489   .     S
C365   C426    1.447   .     A
C365   C431    1.437   .     A
C365   C460    1.485   .     S
C366   C459    1.468   .     S
C366   C432    1.435   .     A
C366   C427    1.435   .     A
C367   C433    1.440   .     A
C367   C428    1.443   .     A
C367   C458    1.487   .     S
C368   C430    1.446   .     A
C368   C434    1.457   .     A
C368   C457    1.495   .     S
C369   C456    1.501   .     S
C369   C435    1.456   .     A
C369   C91     1.453   1_655 S
C370   C455    1.494   .     S
C370   C441    1.464   .     A
C370   C88     1.444   1_655 S
C371   C454    1.485   .     S
C371   C442    1.443   .     A
C371   C1133   1.445   1_545 S
C372   C438    1.415   .     A
C372   C452    1.423   .     A
C372   F520    1.427   .     S
C373   C453    1.480   .     S
C373   C438    1.442   .     A
C373   C1139   1.438   1_545 S
C374   H533    1.135   .     S
C374   O630    1.243   .     D
C374   C479    1.564   .     S
C375   H544    1.145   .     S
C375   C480    1.568   .     S
C375   O631    1.230   .     D
C376   O632    1.296   .     D
C376   C481    1.553   .     S
C376   H555    1.120   .     S
C377   H566    1.107   .     S
C377   O633    1.254   .     D
C377   C482    1.589   .     S
C378   C483    1.564   .     S
C378   O634    1.238   .     D
C378   H576    1.129   .     S
C379   C485    1.584   .     S
C379   H577    1.129   .     S
C379   O635    1.226   .     D
C380   H578    1.124   .     S
C380   C486    1.589   .     S
C380   O636    1.240   .     D
C381   C487    1.558   .     S
C381   O638    1.262   .     D
C381   H579    1.081   .     S
C382   C488    1.543   .     S
C382   O639    1.257   .     D
C382   H580    1.119   .     S
C383   F521    1.362   .     S
C383   C439    1.410   .     A
C384   C489    1.570   .     S
C384   O640    1.247   .     D
C384   H534    1.109   .     S
C385   C490    1.579   .     S
C385   O641    1.231   .     D
C385   H535    1.069   .     S
C386   H536    1.075   .     S
C386   C491    1.583   .     S
C386   O642    1.225   .     D
C387   H537    1.129   .     S
C387   O643    1.287   .     D
C387   C492    1.570   .     S
C388   C493    1.543   .     S
C388   O644    1.253   .     D
C388   H538    1.124   .     S
C389   H539    1.069   .     S
C389   C494    1.578   .     S
C389   O645    1.238   .     D
C390   C496    1.571   .     S
C390   O646    1.277   .     D
C390   H540    1.140   .     S
C391   H541    1.148   .     S
C391   C497    1.593   .     S
C391   O647    1.244   .     D
C392   O649    1.226   .     D
C392   C498    1.545   .     S
C392   H542    1.130   .     S
C393   C499    1.595   .     S
C393   H543    1.120   .     S
C393   O650    1.228   .     D
C394   F522    1.355   .     S
C394   C449    1.436   .     A
C394   C441    1.412   .     A
C395   C500    1.567   .     S
C395   O651    1.294   .     D
C395   H545    1.150   .     S
C396   C501    1.571   .     S
C396   H546    1.125   .     S
C396   O652    1.228   .     D
C397   H547    1.110   .     S
C397   O653    1.246   .     D
C397   C502    1.558   .     S
C398   C503    1.525   .     S
C398   O654    1.294   .     D
C398   H548    1.133   .     S
C399   H549    1.116   .     S
C399   C504    1.588   .     S
C399   O655    1.240   .     D
C400   C505    1.544   .     S
C400   H550    1.138   .     S
C400   O656    1.314   .     D
C401   O657    1.276   .     D
C401   C507    1.587   .     S
C401   H551    1.129   .     S
C402   O658    1.220   .     D
C402   H552    1.075   .     S
C402   C508    1.579   .     S
C403   O660    1.237   .     D
C403   C509    1.588   .     S
C403   H553    1.068   .     S
C404   C510    1.584   .     S
C404   H554    1.144   .     S
C404   O661    1.286   .     D
C405   C450    1.416   .     A
C405   F523    1.349   .     S
C405   C442    1.393   .     A
C406   H556    1.108   .     S
C406   O662    1.234   .     D
C406   C511    1.573   .     S
C407   C512    1.574   .     S
C407   H557    1.073   .     S
C407   O663    1.240   .     D
C408   C513    1.573   .     S
C408   O664    1.235   .     D
C408   H558    1.065   .     S
C409   O665    1.268   .     D
C409   H559    1.092   .     S
C409   C426    1.556   .     S
C410   O666    1.258   .     D
C410   C427    1.549   .     S
C410   H1256   1.114   1_545 S
C411   C428    1.535   .     S
C411   O667    1.266   .     D
C411   H561    1.091   .     S
C412   O668    1.255   .     D
C412   H562    1.070   .     S
C412   C430    1.545   .     S
C413   O669    1.266   .     D
C413   H563    1.099   .     S
C413   C431    1.546   .     S
C414   H564    1.062   .     S
C414   O671    1.256   .     D
C414   C432    1.555   .     S
C415   C433    1.537   .     S
C415   H565    1.072   .     S
C415   O672    1.255   .     D
C416   F524    1.378   .     S
C416   C443    1.394   .     A
C416   C1148   1.417   .     S
C417   O673    1.277   .     D
C417   H567    1.103   .     S
C417   C434    1.562   .     S
C418   C435    1.566   .     S
C418   O674    1.268   .     D
C418   H568    1.105   .     S
C419   H569    1.132   .     S
C419   C436    1.550   .     S
C419   O675    1.273   .     D
C420   O676    1.264   .     D
C420   H570    1.109   .     S
C420   C437    1.550   .     S
C421   C438    1.548   .     S
C421   H571    1.069   .     S
C421   O677    1.255   .     D
C422   O678    1.272   .     D
C422   H572    1.123   .     S
C422   C439    1.561   .     S
C423   C441    1.577   .     S
C423   H573    1.108   .     S
C423   O679    1.272   .     D
C424   C442    1.539   .     S
C424   O680    1.276   .     D
C424   H574    1.109   .     S
C425   O583    1.275   .     D
C425   H575    1.116   .     S
C425   C443    1.532   .     S
C427   C429    1.395   .     A
C428   C440    1.404   .     A
C429   F525    1.347   .     S
C429   C445    1.433   .     A
C430   C451    1.399   .     A
C431   C462    1.399   .     A
C432   C473    1.394   .     A
C433   C484    1.400   .     A
C434   C495    1.410   .     A
C435   C506    1.405   .     A
C437   C1067   1.445   .     S
C440   C446    1.426   .     A
C440   F526    1.422   .     S
C443   C1069   1.438   .     S
C444   C462    1.434   .     A
C444   C445    1.570   1_554 S
C445   C473    1.440   .     A
C445   C444    1.570   1_556 S
C446   C484    1.432   .     A
C446   C447    1.563   1_554 S
C447   C451    1.423   .     A
C447   C495    1.425   .     A
C447   C446    1.563   1_556 S
C448   C449    1.568   .     S
C448   C506    1.426   .     A
C448   C35     1.434   1_655 S
C449   C2      1.426   1_655 S
C450   C452    1.535   .     S
C450   C1057   1.416   1_545 S
C451   F527    1.323   .     S
C452   C1112   1.417   1_545 S
C453   O670    1.288   .     A
C453   O1322   1.294   1_545 S
C454   O637    1.294   .     A
C454   O1278   1.292   1_545 S
C455   O584    1.287   .     A
C455   O300    1.314   1_655 S
C456   O659    1.299   .     A
C456   O237    1.308   1_655 S
C457   O590    1.298   .     A
C457   O586    1.295   .     S
C458   O587    1.291   .     S
C458   O591    1.294   .     S
C459   O588    1.296   .     A
C459   O592    1.295   .     A
C460   O589    1.297   .     S
C460   O594    1.302   .     S
C461   C516    1.511   .     S
C461   O595    1.295   .     A
C461   O623    1.312   .     A
C462   F528    1.344   .     S
C463   O596    1.299   .     A
C463   O624    1.302   .     A
C464   O597    1.305   .     A
C464   O621    1.299   .     A
C465   O598    1.308   .     A
C465   O622    1.292   .     A
C466   O599    1.298   .     A
C466   O628    1.298   .     A
C467   O629    1.291   .     A
C467   O600    1.302   .     A
C468   C514    1.490   .     S
C468   O601    1.298   .     A
C468   O625    1.301   .     A
C469   O627    1.288   .     A
C469   C515    1.478   .     S
C469   O602    1.306   .     A
C470   O603    1.299   .     A
C470   O614    1.302   .     A
C471   O605    1.295   .     A
C471   O616    1.305   .     A
C472   O612    1.297   .     A
C472   O606    1.302   .     A
C473   F529    1.328   .     S
C474   O613    1.313   .     A
C474   O607    1.291   .     A
C475   O619    1.298   .     A
C475   O608    1.296   .     A
C476   O609    1.299   .     A
C476   O620    1.301   .     A
C477   O610    1.296   .     A
C477   O617    1.299   .     A
C478   O618    1.295   .     A
C478   O611    1.301   .     A
C479   C496    1.445   .     A
C480   C494    1.438   .     A
C481   C493    1.423   .     A
C482   C492    1.429   .     A
C483   C491    1.434   .     A
C484   F530    1.331   .     S
C485   C490    1.436   .     A
C486   C489    1.435   .     A
C487   C488    1.429   .     A
C493   C516    1.453   .     A
C494   C515    1.469   .     A
C495   F531    1.345   .     S
C496   C514    1.464   .     A
C497   C513    1.431   .     A
C497   C515    1.469   .     A
C498   C514    1.474   .     A
C498   C512    1.433   .     A
C499   C511    1.426   .     A
C500   C516    1.469   .     A
C500   C510    1.448   .     A
C501   C509    1.440   .     A
C502   C508    1.431   .     A
C503   C507    1.421   .     A
C504   C505    1.429   .     A
C506   F532    1.357   .     S
H560   C1106   1.114   .     S
O581   Zn684   1.978   .     S
O581   Zn681   1.978   .     S
O581   Zn1384  1.970   1_545 S
O581   Zn692   1.977   .     S
O582   Zn683   1.979   .     S
O582   C1150   1.292   .     S
O584   Zn686   1.981   .     S
O585   Zn685   1.981   .     S
O586   Zn695   1.982   .     S
O587   Zn694   1.982   .     S
O588   Zn689   1.980   .     S
O589   Zn681   1.980   .     S
O590   Zn691   1.979   .     S
O591   Zn690   1.979   .     S
O592   Zn693   1.981   .     S
O593   Zn1379  1.978   1_545 S
O593   Zn687   1.970   .     S
O593   Zn689   1.978   .     S
O593   Zn693   1.977   .     S
O594   Zn692   1.981   .     S
O595   Zn684   1.966   .     S
O596   Zn683   1.966   .     S
O597   Zn686   1.957   .     S
O598   Zn685   1.957   .     S
O599   Zn688   1.967   .     S
O600   Zn687   1.967   .     S
O601   Zn682   1.955   .     S
O602   Zn696   1.955   .     S
O603   Zn683   1.957   .     S
O604   Zn682   1.978   .     S
O604   Zn694   1.970   .     S
O604   Zn690   1.978   .     S
O605   Zn684   1.957   .     S
O606   Zn696   1.966   .     S
O607   Zn682   1.966   .     S
O608   Zn687   1.959   .     S
O609   Zn688   1.959   .     S
O610   Zn685   1.964   .     S
O611   Zn686   1.964   .     S
O612   Zn343   1.966   1_655 S
O613   Zn690   1.966   .     S
O614   Zn1389  1.957   .     S
O615   Zn695   1.970   .     S
O615   Zn685   1.977   .     S
O615   Zn691   1.978   .     S
O616   Zn692   1.957   .     S
O617   Zn695   1.967   .     S
O618   Zn346   1.967   1_655 S
O619   Zn689   1.955   .     S
O620   Zn1377  1.955   .     S
O621   Zn342   1.957   1_655 S
O622   Zn691   1.957   .     S
O623   Zn681   1.966   .     S
O624   Zn1385  1.966   .     S
O625   Zn694   1.959   .     S
O626   Zn688   1.982   .     S
O626   C1149   1.294   .     S
O627   Zn347   1.959   1_655 S
O628   Zn1388  1.964   .     S
O629   Zn693   1.964   .     S
O637   Zn687   1.982   .     S
O648   Zn682   1.980   .     S
O659   Zn696   1.980   .     S
O670   Zn684   1.979   .     S
Zn681  O1316   1.955   1_545 S
Zn683  O1289   1.978   .     S
Zn686  O256    1.977   1_655 S
Zn688  O1277   1.970   .     S
Zn689  O1320   1.966   1_545 S
Zn692  O1324   1.964   1_545 S
Zn693  O1310   1.957   1_545 S
Zn696  O267    1.978   1_655 S
C697   C774    1.393   .     A
C697   C792    1.428   .     A
C697   F865    1.321   .     S
C698   F866    1.370   .     S
C698   C784    1.406   .     A
C698   C1145   1.426   1_455 S
C699   C840    1.477   .     A
C699   C811    1.489   .     S
C699   C847    1.485   .     A
C700   C850    1.480   .     A
C700   C812    1.491   .     S
C700   C839    1.473   .     A
C701   C813    1.482   .     S
C701   C838    1.469   .     A
C701   C849    1.472   .     A
C702   C837    1.473   .     A
C702   C852    1.477   .     A
C702   C814    1.493   .     S
C703   C815    1.487   .     S
C703   C836    1.464   .     A
C703   C851    1.457   .     A
C704   C825    1.488   .     S
C704   C855    1.480   .     A
C704   C835    1.471   .     A
C705   C834    1.483   .     A
C705   C826    1.490   .     S
C705   C853    1.466   .     A
C706   C818    1.483   .     S
C706   C857    1.479   .     A
C706   C833    1.485   .     A
C707   C856    1.466   .     A
C707   C831    1.468   .     A
C707   C819    1.484   .     S
C708   C859    1.471   .     A
C708   C820    1.487   .     S
C708   C830    1.482   .     A
C709   F867    1.417   .     S
C709   C785    1.411   .     A
C709   C102    1.416   1_565 S
C710   C822    1.501   .     S
C710   C829    1.467   .     A
C710   C858    1.484   .     A
C711   C828    1.475   .     A
C711   C823    1.477   .     S
C711   C861    1.465   .     A
C712   C827    1.483   .     A
C712   C860    1.466   .     A
C712   C824    1.489   .     S
C713   C774    1.447   .     A
C713   C779    1.437   .     A
C713   C808    1.485   .     S
C714   C807    1.468   .     S
C714   C780    1.435   .     A
C714   C775    1.435   .     A
C715   C781    1.440   .     A
C715   C776    1.443   .     A
C715   C806    1.487   .     S
C716   C778    1.446   .     A
C716   C782    1.457   .     A
C716   C805    1.495   .     S
C717   C804    1.501   .     S
C717   C783    1.456   .     A
C717   C1135   1.453   .     S
C718   C803    1.494   .     S
C718   C789    1.464   .     A
C718   C1132   1.444   .     S
C719   C802    1.485   .     S
C719   C790    1.443   .     A
C720   C786    1.415   .     A
C720   C800    1.423   .     A
C720   F868    1.427   .     S
C721   C801    1.480   .     S
C721   C786    1.442   .     A
C722   H881    1.135   .     S
C722   O978    1.243   .     D
C722   C827    1.564   .     S
C723   H892    1.145   .     S
C723   C828    1.568   .     S
C723   O979    1.230   .     D
C724   O980    1.296   .     D
C724   C829    1.553   .     S
C724   H903    1.120   .     S
C725   H914    1.107   .     S
C725   O981    1.254   .     D
C725   C830    1.589   .     S
C726   C831    1.564   .     S
C726   O982    1.238   .     D
C726   H924    1.129   .     S
C727   C833    1.584   .     S
C727   H925    1.129   .     S
C727   O983    1.226   .     D
C728   H926    1.124   .     S
C728   C834    1.589   .     S
C728   O984    1.240   .     D
C729   C835    1.558   .     S
C729   O986    1.262   .     D
C729   H927    1.081   .     S
C730   C836    1.543   .     S
C730   O987    1.257   .     D
C730   H928    1.119   .     S
C731   F869    1.362   .     S
C731   C787    1.410   .     A
C731   C1144   1.434   1_455 S
C732   C837    1.570   .     S
C732   O988    1.247   .     D
C732   H882    1.109   .     S
C733   C838    1.579   .     S
C733   O989    1.231   .     D
C733   H883    1.069   .     S
C734   H884    1.075   .     S
C734   C839    1.583   .     S
C734   O990    1.225   .     D
C735   H885    1.129   .     S
C735   O991    1.287   .     D
C735   C840    1.570   .     S
C736   C841    1.543   .     S
C736   O992    1.253   .     D
C736   H886    1.124   .     S
C737   H887    1.069   .     S
C737   C842    1.578   .     S
C737   O993    1.238   .     D
C738   C844    1.571   .     S
C738   O994    1.277   .     D
C738   H888    1.140   .     S
C739   H889    1.148   .     S
C739   C845    1.593   .     S
C739   O995    1.244   .     D
C740   O997    1.226   .     D
C740   C846    1.545   .     S
C740   H890    1.130   .     S
C741   C847    1.595   .     S
C741   H891    1.120   .     S
C741   O998    1.228   .     D
C742   F870    1.355   .     S
C742   C797    1.436   .     A
C742   C789    1.412   .     A
C743   C848    1.567   .     S
C743   O999    1.294   .     D
C743   H893    1.150   .     S
C744   C849    1.571   .     S
C744   H894    1.125   .     S
C744   O1000   1.228   .     D
C745   H895    1.110   .     S
C745   O1001   1.246   .     D
C745   C850    1.558   .     S
C746   C851    1.525   .     S
C746   O1002   1.294   .     D
C746   H896    1.133   .     S
C747   H897    1.116   .     S
C747   C852    1.588   .     S
C747   O1003   1.240   .     D
C748   C853    1.544   .     S
C748   H898    1.138   .     S
C748   O1004   1.314   .     D
C749   O1005   1.276   .     D
C749   C855    1.587   .     S
C749   H899    1.129   .     S
C750   O1006   1.220   .     D
C750   H900    1.075   .     S
C750   C856    1.579   .     S
C751   O1008   1.237   .     D
C751   C857    1.588   .     S
C751   H901    1.068   .     S
C752   C858    1.584   .     S
C752   H902    1.144   .     S
C752   O1009   1.286   .     D
C753   C798    1.416   .     A
C753   F871    1.349   .     S
C753   C790    1.393   .     A
C754   H904    1.108   .     S
C754   O1010   1.234   .     D
C754   C859    1.573   .     S
C755   C860    1.574   .     S
C755   H905    1.073   .     S
C755   O1011   1.240   .     D
C756   C861    1.573   .     S
C756   O1012   1.235   .     D
C756   H906    1.065   .     S
C757   O1013   1.268   .     D
C757   H907    1.092   .     S
C757   C774    1.556   .     S
C758   O1014   1.258   .     D
C758   C775    1.549   .     S
C759   C776    1.535   .     S
C759   O1015   1.266   .     D
C759   H909    1.091   .     S
C760   O1016   1.255   .     D
C760   H910    1.070   .     S
C760   C778    1.545   .     S
C761   O1017   1.266   .     D
C761   H911    1.099   .     S
C761   C779    1.546   .     S
C762   H912    1.062   .     S
C762   O1019   1.256   .     D
C762   C780    1.555   .     S
C763   C781    1.537   .     S
C763   H913    1.072   .     S
C763   O1020   1.255   .     D
C764   F872    1.378   .     S
C764   C791    1.394   .     A
C764   C104    1.417   1_565 S
C765   O1021   1.277   .     D
C765   H915    1.103   .     S
C765   C782    1.562   .     S
C766   C783    1.566   .     S
C766   O1022   1.268   .     D
C766   H916    1.105   .     S
C767   H917    1.132   .     S
C767   C784    1.550   .     S
C767   O1023   1.273   .     D
C768   O1024   1.264   .     D
C768   H918    1.109   .     S
C768   C785    1.550   .     S
C769   C786    1.548   .     S
C769   H919    1.069   .     S
C769   O1025   1.255   .     D
C770   O1026   1.272   .     D
C770   H920    1.123   .     S
C770   C787    1.561   .     S
C771   C789    1.577   .     S
C771   H921    1.108   .     S
C771   O1027   1.272   .     D
C772   C790    1.539   .     S
C772   O1028   1.276   .     D
C772   H922    1.109   .     S
C773   O931    1.275   .     D
C773   H923    1.116   .     S
C773   C791    1.532   .     S
C775   C777    1.395   .     A
C776   C788    1.404   .     A
C777   F873    1.347   .     S
C777   C793    1.433   .     A
C778   C799    1.399   .     A
C779   C810    1.399   .     A
C780   C821    1.394   .     A
C781   C832    1.400   .     A
C782   C843    1.410   .     A
C783   C854    1.405   .     A
C784   C1066   1.444   1_455 S
C785   C23     1.445   1_565 S
C787   C1065   1.453   1_455 S
C788   C794    1.426   .     A
C788   F874    1.422   .     S
C791   C25     1.438   1_565 S
C792   C810    1.434   .     A
C792   C793    1.570   1_554 S
C793   C821    1.440   .     A
C793   C792    1.570   1_556 S
C794   C832    1.432   .     A
C794   C795    1.563   1_554 S
C795   C799    1.423   .     A
C795   C843    1.425   .     A
C795   C794    1.563   1_556 S
C796   C797    1.568   .     S
C796   C854    1.426   .     A
C796   C1079   1.434   .     S
C797   C1046   1.426   .     S
C798   C800    1.535   .     S
C799   F875    1.323   .     S
C801   O1018   1.288   .     A
C802   O985    1.294   .     A
C803   O932    1.287   .     A
C803   O1344   1.314   .     S
C804   O1007   1.299   .     A
C804   O1281   1.308   .     S
C805   O938    1.298   .     A
C805   O934    1.295   .     S
C806   O935    1.291   .     S
C806   O939    1.294   .     S
C807   O936    1.296   .     A
C807   O940    1.295   .     A
C808   O937    1.297   .     S
C808   O942    1.302   .     S
C809   C864    1.511   .     S
C809   O943    1.295   .     A
C809   O971    1.312   .     A
C810   F876    1.344   .     S
C811   O944    1.299   .     A
C811   O972    1.302   .     A
C812   O945    1.305   .     A
C812   O969    1.299   .     A
C813   O946    1.308   .     A
C813   O970    1.292   .     A
C814   O947    1.298   .     A
C814   O976    1.298   .     A
C815   O977    1.291   .     A
C815   O948    1.302   .     A
C816   C862    1.490   .     S
C816   O949    1.298   .     A
C816   O973    1.301   .     A
C817   O975    1.288   .     A
C817   C863    1.478   .     S
C817   O950    1.306   .     A
C818   O951    1.299   .     A
C818   O962    1.302   .     A
C819   O953    1.295   .     A
C819   O964    1.305   .     A
C820   O960    1.297   .     A
C820   O954    1.302   .     A
C821   F877    1.328   .     S
C822   O961    1.313   .     A
C822   O955    1.291   .     A
C823   O967    1.298   .     A
C823   O956    1.296   .     A
C824   O957    1.299   .     A
C824   O968    1.301   .     A
C825   O958    1.296   .     A
C825   O965    1.299   .     A
C826   O966    1.295   .     A
C826   O959    1.301   .     A
C827   C844    1.445   .     A
C828   C842    1.438   .     A
C829   C841    1.423   .     A
C830   C840    1.429   .     A
C831   C839    1.434   .     A
C832   F878    1.331   .     S
C833   C838    1.436   .     A
C834   C837    1.435   .     A
C835   C836    1.429   .     A
C841   C864    1.453   .     A
C842   C863    1.469   .     A
C843   F879    1.345   .     S
C844   C862    1.464   .     A
C845   C861    1.431   .     A
C845   C863    1.469   .     A
C846   C862    1.474   .     A
C846   C860    1.433   .     A
C847   C859    1.426   .     A
C848   C864    1.469   .     A
C848   C858    1.448   .     A
C849   C857    1.440   .     A
C850   C856    1.431   .     A
C851   C855    1.421   .     A
C852   C853    1.429   .     A
C854   F880    1.357   .     S
H908   C62     1.114   1_565 S
O929   Zn1032  1.978   .     S
O929   Zn1029  1.978   .     S
O929   Zn1040  1.977   .     S
O930   Zn1031  1.979   .     S
O930   C106    1.292   1_565 S
O932   Zn1034  1.981   .     S
O933   Zn1033  1.981   .     S
O933   C1152   1.308   1_455 S
O934   Zn1043  1.982   .     S
O935   Zn1042  1.982   .     S
O936   Zn1037  1.980   .     S
O937   Zn1029  1.980   .     S
O938   Zn1039  1.979   .     S
O939   Zn1038  1.979   .     S
O940   Zn1041  1.981   .     S
O941   Zn1035  1.970   .     S
O941   Zn1037  1.978   .     S
O941   Zn1041  1.977   .     S
O942   Zn1040  1.981   .     S
O943   Zn1032  1.966   .     S
O944   Zn1031  1.966   .     S
O945   Zn1034  1.957   .     S
O946   Zn1033  1.957   .     S
O947   Zn1036  1.967   .     S
O948   Zn1035  1.967   .     S
O949   Zn1030  1.955   .     S
O950   Zn1044  1.955   .     S
O951   Zn1031  1.957   .     S
O952   Zn1030  1.978   .     S
O952   Zn1042  1.970   .     S
O952   Zn1382  1.977   1_455 S
O952   Zn1038  1.978   .     S
O953   Zn1032  1.957   .     S
O954   Zn1044  1.966   .     S
O955   Zn1030  1.966   .     S
O956   Zn1035  1.959   .     S
O957   Zn1036  1.959   .     S
O958   Zn1033  1.964   .     S
O959   Zn1034  1.964   .     S
O960   Zn1387  1.966   .     S
O961   Zn1038  1.966   .     S
O962   Zn345   1.957   1_565 S
O963   Zn1392  1.978   1_455 S
O963   Zn1043  1.970   .     S
O963   Zn1033  1.977   .     S
O963   Zn1039  1.978   .     S
O964   Zn1040  1.957   .     S
O965   Zn1043  1.967   .     S
O966   Zn1390  1.967   .     S
O967   Zn1037  1.955   .     S
O968   Zn333   1.955   1_565 S
O969   Zn1386  1.957   .     S
O970   Zn1039  1.957   .     S
O971   Zn1029  1.966   .     S
O972   Zn341   1.966   1_565 S
O973   Zn1042  1.959   .     S
O974   Zn1036  1.982   .     S
O974   C105    1.294   1_565 S
O975   Zn1391  1.959   .     S
O976   Zn344   1.964   1_565 S
O977   Zn1041  1.964   .     S
O985   Zn1035  1.982   .     S
O996   Zn1030  1.980   .     S
O996   C1151   1.314   1_455 S
O1007  Zn1044  1.980   .     S
O1018  Zn1032  1.979   .     S
Zn1031 O245    1.978   1_565 S
Zn1034 O1300   1.977   .     S
Zn1036 O233    1.970   1_565 S
Zn1038 O1317   1.957   1_455 S
Zn1039 O1308   1.966   1_455 S
Zn1042 O1314   1.967   1_455 S
Zn1043 O1323   1.959   1_455 S
Zn1044 O1311   1.978   .     S
C1045  C1122   1.393   .     A
C1045  C1140   1.428   .     A
C1045  F1213   1.321   .     S
C1046  F1214   1.370   .     S
C1046  C1132   1.406   .     A
C1047  C1188   1.477   .     A
C1047  C1159   1.489   .     S
C1047  C1195   1.485   .     A
C1048  C1198   1.480   .     A
C1048  C1160   1.491   .     S
C1048  C1187   1.473   .     A
C1049  C1161   1.482   .     S
C1049  C1186   1.469   .     A
C1049  C1197   1.472   .     A
C1050  C1185   1.473   .     A
C1050  C1200   1.477   .     A
C1050  C1162   1.493   .     S
C1051  C1163   1.487   .     S
C1051  C1184   1.464   .     A
C1051  C1199   1.457   .     A
C1052  C1173   1.488   .     S
C1052  C1203   1.480   .     A
C1052  C1183   1.471   .     A
C1053  C1182   1.483   .     A
C1053  C1174   1.490   .     S
C1053  C1201   1.466   .     A
C1054  C1166   1.483   .     S
C1054  C1205   1.479   .     A
C1054  C1181   1.485   .     A
C1055  C1204   1.466   .     A
C1055  C1179   1.468   .     A
C1055  C1167   1.484   .     S
C1056  C1207   1.471   .     A
C1056  C1168   1.487   .     S
C1056  C1178   1.482   .     A
C1057  F1215   1.417   .     S
C1057  C1133   1.411   .     A
C1057  C450    1.416   1_565 S
C1058  C1170   1.501   .     S
C1058  C1177   1.467   .     A
C1058  C1206   1.484   .     A
C1059  C1176   1.475   .     A
C1059  C1171   1.477   .     S
C1059  C1209   1.465   .     A
C1060  C1175   1.483   .     A
C1060  C1208   1.466   .     A
C1060  C1172   1.489   .     S
C1061  C1122   1.447   .     A
C1061  C1127   1.437   .     A
C1061  C1156   1.485   .     S
C1062  C1155   1.468   .     S
C1062  C1128   1.435   .     A
C1062  C1123   1.435   .     A
C1063  C1129   1.440   .     A
C1063  C1124   1.443   .     A
C1063  C1154   1.487   .     S
C1064  C1126   1.446   .     A
C1064  C1130   1.457   .     A
C1064  C1153   1.495   .     S
C1065  C1152   1.501   .     S
C1065  C1131   1.456   .     A
C1065  C787    1.453   1_655 S
C1066  C1151   1.494   .     S
C1066  C1137   1.464   .     A
C1066  C784    1.444   1_655 S
C1067  C1150   1.485   .     S
C1067  C1138   1.443   .     A
C1068  C1134   1.415   .     A
C1068  C1148   1.423   .     A
C1068  F1216   1.427   .     S
C1069  C1149   1.480   .     S
C1069  C1134   1.442   .     A
C1070  H1229   1.135   .     S
C1070  O1326   1.243   .     D
C1070  C1175   1.564   .     S
C1071  H1240   1.145   .     S
C1071  C1176   1.568   .     S
C1071  O1327   1.230   .     D
C1072  O1328   1.296   .     D
C1072  C1177   1.553   .     S
C1072  H1251   1.120   .     S
C1073  H1262   1.107   .     S
C1073  O1329   1.254   .     D
C1073  C1178   1.589   .     S
C1074  C1179   1.564   .     S
C1074  O1330   1.238   .     D
C1074  H1272   1.129   .     S
C1075  C1181   1.584   .     S
C1075  H1273   1.129   .     S
C1075  O1331   1.226   .     D
C1076  H1274   1.124   .     S
C1076  C1182   1.589   .     S
C1076  O1332   1.240   .     D
C1077  C1183   1.558   .     S
C1077  O1334   1.262   .     D
C1077  H1275   1.081   .     S
C1078  C1184   1.543   .     S
C1078  O1335   1.257   .     D
C1078  H1276   1.119   .     S
C1079  F1217   1.362   .     S
C1079  C1135   1.410   .     A
C1080  C1185   1.570   .     S
C1080  O1336   1.247   .     D
C1080  H1230   1.109   .     S
C1081  C1186   1.579   .     S
C1081  O1337   1.231   .     D
C1081  H1231   1.069   .     S
C1082  H1232   1.075   .     S
C1082  C1187   1.583   .     S
C1082  O1338   1.225   .     D
C1083  H1233   1.129   .     S
C1083  O1339   1.287   .     D
C1083  C1188   1.570   .     S
C1084  C1189   1.543   .     S
C1084  O1340   1.253   .     D
C1084  H1234   1.124   .     S
C1085  H1235   1.069   .     S
C1085  C1190   1.578   .     S
C1085  O1341   1.238   .     D
C1086  C1192   1.571   .     S
C1086  O1342   1.277   .     D
C1086  H1236   1.140   .     S
C1087  H1237   1.148   .     S
C1087  C1193   1.593   .     S
C1087  O1343   1.244   .     D
C1088  O1345   1.226   .     D
C1088  C1194   1.545   .     S
C1088  H1238   1.130   .     S
C1089  C1195   1.595   .     S
C1089  H1239   1.120   .     S
C1089  O1346   1.228   .     D
C1090  F1218   1.355   .     S
C1090  C1145   1.436   .     A
C1090  C1137   1.412   .     A
C1091  C1196   1.567   .     S
C1091  O1347   1.294   .     D
C1091  H1241   1.150   .     S
C1092  C1197   1.571   .     S
C1092  H1242   1.125   .     S
C1092  O1348   1.228   .     D
C1093  H1243   1.110   .     S
C1093  O1349   1.246   .     D
C1093  C1198   1.558   .     S
C1094  C1199   1.525   .     S
C1094  O1350   1.294   .     D
C1094  H1244   1.133   .     S
C1095  H1245   1.116   .     S
C1095  C1200   1.588   .     S
C1095  O1351   1.240   .     D
C1096  C1201   1.544   .     S
C1096  H1246   1.138   .     S
C1096  O1352   1.314   .     D
C1097  O1353   1.276   .     D
C1097  C1203   1.587   .     S
C1097  H1247   1.129   .     S
C1098  O1354   1.220   .     D
C1098  H1248   1.075   .     S
C1098  C1204   1.579   .     S
C1099  O1356   1.237   .     D
C1099  C1205   1.588   .     S
C1099  H1249   1.068   .     S
C1100  C1206   1.584   .     S
C1100  H1250   1.144   .     S
C1100  O1357   1.286   .     D
C1101  C1146   1.416   .     A
C1101  F1219   1.349   .     S
C1101  C1138   1.393   .     A
C1102  H1252   1.108   .     S
C1102  O1358   1.234   .     D
C1102  C1207   1.573   .     S
C1103  C1208   1.574   .     S
C1103  H1253   1.073   .     S
C1103  O1359   1.240   .     D
C1104  C1209   1.573   .     S
C1104  O1360   1.235   .     D
C1104  H1254   1.065   .     S
C1105  O1361   1.268   .     D
C1105  H1255   1.092   .     S
C1105  C1122   1.556   .     S
C1106  O1362   1.258   .     D
C1106  C1123   1.549   .     S
C1107  C1124   1.535   .     S
C1107  O1363   1.266   .     D
C1107  H1257   1.091   .     S
C1108  O1364   1.255   .     D
C1108  H1258   1.070   .     S
C1108  C1126   1.545   .     S
C1109  O1365   1.266   .     D
C1109  H1259   1.099   .     S
C1109  C1127   1.546   .     S
C1110  H1260   1.062   .     S
C1110  O1367   1.256   .     D
C1110  C1128   1.555   .     S
C1111  C1129   1.537   .     S
C1111  H1261   1.072   .     S
C1111  O1368   1.255   .     D
C1112  F1220   1.378   .     S
C1112  C1139   1.394   .     A
C1112  C452    1.417   1_565 S
C1113  O1369   1.277   .     D
C1113  H1263   1.103   .     S
C1113  C1130   1.562   .     S
C1114  C1131   1.566   .     S
C1114  O1370   1.268   .     D
C1114  H1264   1.105   .     S
C1115  H1265   1.132   .     S
C1115  C1132   1.550   .     S
C1115  O1371   1.273   .     D
C1116  O1372   1.264   .     D
C1116  H1266   1.109   .     S
C1116  C1133   1.550   .     S
C1117  C1134   1.548   .     S
C1117  H1267   1.069   .     S
C1117  O1373   1.255   .     D
C1118  O1374   1.272   .     D
C1118  H1268   1.123   .     S
C1118  C1135   1.561   .     S
C1119  C1137   1.577   .     S
C1119  H1269   1.108   .     S
C1119  O1375   1.272   .     D
C1120  C1138   1.539   .     S
C1120  O1376   1.276   .     D
C1120  H1270   1.109   .     S
C1121  O1279   1.275   .     D
C1121  H1271   1.116   .     S
C1121  C1139   1.532   .     S
C1123  C1125   1.395   .     A
C1124  C1136   1.404   .     A
C1125  F1221   1.347   .     S
C1125  C1141   1.433   .     A
C1126  C1147   1.399   .     A
C1127  C1158   1.399   .     A
C1128  C1169   1.394   .     A
C1129  C1180   1.400   .     A
C1130  C1191   1.410   .     A
C1131  C1202   1.405   .     A
C1133  C371    1.445   1_565 S
C1136  C1142   1.426   .     A
C1136  F1222   1.422   .     S
C1139  C373    1.438   1_565 S
C1140  C1158   1.434   .     A
C1140  C1141   1.570   1_554 S
C1141  C1169   1.440   .     A
C1141  C1140   1.570   1_556 S
C1142  C1180   1.432   .     A
C1142  C1143   1.563   1_554 S
C1143  C1147   1.423   .     A
C1143  C1191   1.425   .     A
C1143  C1142   1.563   1_556 S
C1144  C1145   1.568   .     S
C1144  C1202   1.426   .     A
C1144  C731    1.434   1_655 S
C1145  C698    1.426   1_655 S
C1146  C1148   1.535   .     S
C1147  F1223   1.323   .     S
C1149  O1366   1.288   .     A
C1150  O1333   1.294   .     A
C1151  O1280   1.287   .     A
C1151  O996    1.314   1_655 S
C1152  O1355   1.299   .     A
C1152  O933    1.308   1_655 S
C1153  O1286   1.298   .     A
C1153  O1282   1.295   .     S
C1154  O1283   1.291   .     S
C1154  O1287   1.294   .     S
C1155  O1284   1.296   .     A
C1155  O1288   1.295   .     A
C1156  O1285   1.297   .     S
C1156  O1290   1.302   .     S
C1157  C1212   1.511   .     S
C1157  O1291   1.295   .     A
C1157  O1319   1.312   .     A
C1158  F1224   1.344   .     S
C1159  O1292   1.299   .     A
C1159  O1320   1.302   .     A
C1160  O1293   1.305   .     A
C1160  O1317   1.299   .     A
C1161  O1294   1.308   .     A
C1161  O1318   1.292   .     A
C1162  O1295   1.298   .     A
C1162  O1324   1.298   .     A
C1163  O1325   1.291   .     A
C1163  O1296   1.302   .     A
C1164  C1210   1.490   .     S
C1164  O1297   1.298   .     A
C1164  O1321   1.301   .     A
C1165  O1323   1.288   .     A
C1165  C1211   1.478   .     S
C1165  O1298   1.306   .     A
C1166  O1299   1.299   .     A
C1166  O1310   1.302   .     A
C1167  O1301   1.295   .     A
C1167  O1312   1.305   .     A
C1168  O1308   1.297   .     A
C1168  O1302   1.302   .     A
C1169  F1225   1.328   .     S
C1170  O1309   1.313   .     A
C1170  O1303   1.291   .     A
C1171  O1315   1.298   .     A
C1171  O1304   1.296   .     A
C1172  O1305   1.299   .     A
C1172  O1316   1.301   .     A
C1173  O1306   1.296   .     A
C1173  O1313   1.299   .     A
C1174  O1314   1.295   .     A
C1174  O1307   1.301   .     A
C1175  C1192   1.445   .     A
C1176  C1190   1.438   .     A
C1177  C1189   1.423   .     A
C1178  C1188   1.429   .     A
C1179  C1187   1.434   .     A
C1180  F1226   1.331   .     S
C1181  C1186   1.436   .     A
C1182  C1185   1.435   .     A
C1183  C1184   1.429   .     A
C1189  C1212   1.453   .     A
C1190  C1211   1.469   .     A
C1191  F1227   1.345   .     S
C1192  C1210   1.464   .     A
C1193  C1209   1.431   .     A
C1193  C1211   1.469   .     A
C1194  C1210   1.474   .     A
C1194  C1208   1.433   .     A
C1195  C1207   1.426   .     A
C1196  C1212   1.469   .     A
C1196  C1206   1.448   .     A
C1197  C1205   1.440   .     A
C1198  C1204   1.431   .     A
C1199  C1203   1.421   .     A
C1200  C1201   1.429   .     A
C1202  F1228   1.357   .     S
H1256  C410    1.114   1_565 S
O1277  Zn1380  1.978   .     S
O1277  Zn1377  1.978   .     S
O1277  Zn1388  1.977   .     S
O1278  Zn1379  1.979   .     S
O1278  C454    1.292   1_565 S
O1280  Zn1382  1.981   .     S
O1281  Zn1381  1.981   .     S
O1282  Zn1391  1.982   .     S
O1283  Zn1390  1.982   .     S
O1284  Zn1385  1.980   .     S
O1285  Zn1377  1.980   .     S
O1286  Zn1387  1.979   .     S
O1287  Zn1386  1.979   .     S
O1288  Zn1389  1.981   .     S
O1289  Zn1383  1.970   .     S
O1289  Zn1385  1.978   .     S
O1289  Zn1389  1.977   .     S
O1290  Zn1388  1.981   .     S
O1291  Zn1380  1.966   .     S
O1292  Zn1379  1.966   .     S
O1293  Zn1382  1.957   .     S
O1294  Zn1381  1.957   .     S
O1295  Zn1384  1.967   .     S
O1296  Zn1383  1.967   .     S
O1297  Zn1378  1.955   .     S
O1298  Zn1392  1.955   .     S
O1299  Zn1379  1.957   .     S
O1300  Zn1378  1.978   .     S
O1300  Zn1390  1.970   .     S
O1300  Zn1386  1.978   .     S
O1301  Zn1380  1.957   .     S
O1302  Zn1392  1.966   .     S
O1303  Zn1378  1.966   .     S
O1304  Zn1383  1.959   .     S
O1305  Zn1384  1.959   .     S
O1306  Zn1381  1.964   .     S
O1307  Zn1382  1.964   .     S
O1308  Zn1039  1.966   1_655 S
O1309  Zn1386  1.966   .     S
O1310  Zn693   1.957   1_565 S
O1311  Zn1391  1.970   .     S
O1311  Zn1381  1.977   .     S
O1311  Zn1387  1.978   .     S
O1312  Zn1388  1.957   .     S
O1313  Zn1391  1.967   .     S
O1314  Zn1042  1.967   1_655 S
O1315  Zn1385  1.955   .     S
O1316  Zn681   1.955   1_565 S
O1317  Zn1038  1.957   1_655 S
O1318  Zn1387  1.957   .     S
O1319  Zn1377  1.966   .     S
O1320  Zn689   1.966   1_565 S
O1321  Zn1390  1.959   .     S
O1322  Zn1384  1.982   .     S
O1322  C453    1.294   1_565 S
O1323  Zn1043  1.959   1_655 S
O1324  Zn692   1.964   1_565 S
O1325  Zn1389  1.964   .     S
O1333  Zn1383  1.982   .     S
O1344  Zn1378  1.980   .     S
O1355  Zn1392  1.980   .     S
O1366  Zn1380  1.979   .     S
Zn1379 O593    1.978   1_565 S
Zn1382 O952    1.977   1_655 S
Zn1384 O581    1.970   1_565 S
Zn1392 O963    1.978   1_655 S
