data_str_m1_o1_o17_pcu_sym.15
_audit_creation_date              2020-01-03
_audit_creation_method            'Materials Studio'
_symmetry_space_group_name_H-M    'P1'
_symmetry_Int_Tables_number       1
_symmetry_cell_setting            triclinic
loop_
_symmetry_equiv_pos_as_xyz
  x,y,z
_cell_length_a                    36.6354
_cell_length_b                    36.5974
_cell_length_c                    34.5057
_cell_angle_alpha                 89.9675
_cell_angle_beta                  90.0172
_cell_angle_gamma                 89.7304
loop_
_atom_site_label
_atom_site_type_symbol
_atom_site_fract_x
_atom_site_fract_y
_atom_site_fract_z
_atom_site_U_iso_or_equiv
_atom_site_adp_type
_atom_site_occupancy
C1     C     0.48489   0.27908   0.41793   0.00000  Uiso   1.00
C2     C     0.26344   0.46956   0.08215   0.00000  Uiso   1.00
C3     C     0.22075   0.01726   0.54137   0.00000  Uiso   1.00
C4     C     0.48022   0.27685   0.45852   0.00000  Uiso   1.00
C5     C     0.01663   0.22043   0.54087   0.00000  Uiso   1.00
C6     C     0.22148   0.01800   0.45916   0.00000  Uiso   1.00
C7     C     0.27918   0.48265   0.54141   0.00000  Uiso   1.00
C8     C     0.25997   0.46580   0.95900   0.00000  Uiso   1.00
C9     C     0.22718   0.02614   0.04074   0.00000  Uiso   1.00
C10    C     0.02939   0.23302   0.95918   0.00000  Uiso   1.00
C11    C     0.47318   0.26973   0.04144   0.00000  Uiso   1.00
C12    C     0.22840   0.02559   0.95872   0.00000  Uiso   1.00
C13    C     0.47592   0.27346   0.91847   0.00000  Uiso   1.00
C14    C     0.25871   0.46630   0.04148   0.00000  Uiso   1.00
C15    C     0.47365   0.27115   0.95941   0.00000  Uiso   1.00
C16    C     0.03083   0.23419   0.04142   0.00000  Uiso   1.00
C17    C     0.09772   0.34859   0.24977   0.00000  Uiso   1.00
C18    C     0.40245   0.15151   0.75002   0.00000  Uiso   1.00
C19    C     0.15194   0.09809   0.25000   0.00000  Uiso   1.00
C20    C     0.34804   0.40190   0.74995   0.00000  Uiso   1.00
C21    C     0.40143   0.15227   0.25019   0.00000  Uiso   1.00
C22    C     0.09797   0.34799   0.75003   0.00000  Uiso   1.00
C23    C     0.34807   0.40192   0.25005   0.00000  Uiso   1.00
C24    C     0.03100   0.23591   0.08254   0.00000  Uiso   1.00
C25    C     0.15192   0.09804   0.74989   0.00000  Uiso   1.00
C26    C     0.09806   0.15188   0.75006   0.00000  Uiso   1.00
C27    C     0.40194   0.34808   0.24994   0.00000  Uiso   1.00
C28    C     0.15187   0.40180   0.75005   0.00000  Uiso   1.00
C29    C     0.34846   0.09754   0.25007   0.00000  Uiso   1.00
C30    C     0.40191   0.34808   0.75004   0.00000  Uiso   1.00
C31    C     0.09808   0.15193   0.24996   0.00000  Uiso   1.00
C32    C     0.34763   0.09865   0.74990   0.00000  Uiso   1.00
C33    C     0.15254   0.40145   0.24993   0.00000  Uiso   1.00
C34    C     0.49767   0.24791   0.47911   0.00000  Uiso   1.00
C35    C     0.26125   0.46725   0.91771   0.00000  Uiso   1.00
C36    C     0.49760   0.24818   0.52014   0.00000  Uiso   1.00
C37    C     0.24995   0.49992   0.47980   0.00000  Uiso   1.00
C38    C     0.24996   0.49994   0.52087   0.00000  Uiso   1.00
C39    C     0.24353   0.49556   0.97943   0.00000  Uiso   1.00
C40    C     0.24293   0.49587   0.02057   0.00000  Uiso   1.00
C41    C     0.00174   0.25219   0.97986   0.00000  Uiso   1.00
C42    C     0.00201   0.25213   0.02089   0.00000  Uiso   1.00
C43    C     0.05476   0.16139   0.46036   0.00000  Uiso   1.00
C44    C     0.44787   0.33871   0.53938   0.00000  Uiso   1.00
C45    C     0.34257   0.45549   0.45933   0.00000  Uiso   1.00
C46    C     0.23155   0.02854   0.08161   0.00000  Uiso   1.00
C47    C     0.16410   0.05785   0.53993   0.00000  Uiso   1.00
C48    C     0.43466   0.32915   0.45815   0.00000  Uiso   1.00
C49    C     0.04325   0.15637   0.54149   0.00000  Uiso   1.00
C50    C     0.15725   0.04414   0.45920   0.00000  Uiso   1.00
C51    C     0.33573   0.44194   0.54010   0.00000  Uiso   1.00
C52    C     0.29105   0.40335   0.96154   0.00000  Uiso   1.00
C53    C     0.18221   0.07906   0.03865   0.00000  Uiso   1.00
C54    C     0.09320   0.20591   0.95871   0.00000  Uiso   1.00
C55    C     0.42103   0.31545   0.04171   0.00000  Uiso   1.00
C56    C     0.18094   0.07589   0.95693   0.00000  Uiso   1.00
C57    C     0.02564   0.22876   0.91857   0.00000  Uiso   1.00
C58    C     0.27527   0.39902   0.04195   0.00000  Uiso   1.00
C59    C     0.41146   0.30222   0.96048   0.00000  Uiso   1.00
C60    C     0.08799   0.19435   0.03984   0.00000  Uiso   1.00
C61    C     0.16014   0.39575   0.17735   0.00000  Uiso   1.00
C62    C     0.34109   0.10378   0.82265   0.00000  Uiso   1.00
C63    C     0.04928   0.10575   0.26393   0.00000  Uiso   1.00
C64    C     0.45072   0.39437   0.73692   0.00000  Uiso   1.00
C65    C     0.33923   0.10507   0.17831   0.00000  Uiso   1.00
C66    C     0.15912   0.39573   0.82230   0.00000  Uiso   1.00
C67    C     0.45049   0.39406   0.26521   0.00000  Uiso   1.00
C68    C     0.47096   0.26513   0.08204   0.00000  Uiso   1.00
C69    C     0.04936   0.10579   0.73597   0.00000  Uiso   1.00
C70    C     0.10589   0.04919   0.73540   0.00000  Uiso   1.00
C71    C     0.39408   0.45061   0.26483   0.00000  Uiso   1.00
C72    C     0.10315   0.34109   0.82279   0.00000  Uiso   1.00
C73    C     0.39553   0.15954   0.17765   0.00000  Uiso   1.00
C74    C     0.39419   0.45089   0.73641   0.00000  Uiso   1.00
C75    C     0.10596   0.04922   0.26412   0.00000  Uiso   1.00
C76    C     0.39561   0.16007   0.82195   0.00000  Uiso   1.00
C77    C     0.10419   0.34086   0.17762   0.00000  Uiso   1.00
C78    C     0.40957   0.14622   0.67738   0.00000  Uiso   1.00
C79    C     0.49983   0.24939   0.39783   0.00000  Uiso   1.00
C80    C     0.09047   0.35446   0.32231   0.00000  Uiso   1.00
C81    C     0.29910   0.35554   0.76283   0.00000  Uiso   1.00
C82    C     0.20071   0.14422   0.23608   0.00000  Uiso   1.00
C83    C     0.09104   0.35335   0.67730   0.00000  Uiso   1.00
C84    C     0.40911   0.14580   0.32237   0.00000  Uiso   1.00
C85    C     0.20057   0.14413   0.76457   0.00000  Uiso   1.00
C86    C     0.29948   0.35587   0.23515   0.00000  Uiso   1.00
C87    C     0.35602   0.29944   0.23466   0.00000  Uiso   1.00
C88    C     0.14413   0.20068   0.76424   0.00000  Uiso   1.00
C89    C     0.35400   0.09012   0.32268   0.00000  Uiso   1.00
C90    C     0.49948   0.24974   0.60169   0.00000  Uiso   1.00
C91    C     0.14628   0.40876   0.67778   0.00000  Uiso   1.00
C92    C     0.14415   0.20086   0.23595   0.00000  Uiso   1.00
C93    C     0.35582   0.29909   0.76326   0.00000  Uiso   1.00
C94    C     0.14523   0.41048   0.32174   0.00000  Uiso   1.00
C95    C     0.35358   0.09146   0.67764   0.00000  Uiso   1.00
C96    C     0.00788   0.33862   0.40118   0.00000  Uiso   1.00
C97    C     0.08421   0.21621   0.60042   0.00000  Uiso   1.00
C98    C     0.21481   0.08423   0.39823   0.00000  Uiso   1.00
C99    C     0.33620   0.00363   0.61325   0.00000  Uiso   1.00
C100   C     0.49654   0.16314   0.38472   0.00000  Uiso   1.00
C101   C     0.24997   0.49995   0.39822   0.00000  Uiso   1.00
C102   C     0.41404   0.28181   0.60336   0.00000  Uiso   1.00
C103   C     0.28497   0.41563   0.39825   0.00000  Uiso   1.00
C104   C     0.16381   0.49642   0.61327   0.00000  Uiso   1.00
C105   C     0.25871   0.08883   0.90558   0.00000  Uiso   1.00
C106   C     0.32398   0.44982   0.10152   0.00000  Uiso   1.00
C107   C     0.46855   0.33607   0.89665   0.00000  Uiso   1.00
C108   C     0.08683   0.25330   0.11509   0.00000  Uiso   1.00
C109   C     0.24585   0.41334   0.88045   0.00000  Uiso   1.00
C110   C     0.19329   0.06546   0.12578   0.00000  Uiso   1.00
C111   C     0.03334   0.16547   0.89951   0.00000  Uiso   1.00
C112   C     0.02098   0.22420   0.58147   0.00000  Uiso   1.00
C113   C     0.25000   0.00002   0.60219   0.00000  Uiso   1.00
C114   C     0.41144   0.24221   0.09875   0.00000  Uiso   1.00
C115   C     0.24953   0.49891   0.89816   0.00000  Uiso   1.00
C116   C     0.24896   0.49993   0.10177   0.00000  Uiso   1.00
C117   C     0.00025   0.25044   0.89832   0.00000  Uiso   1.00
C118   C     0.00062   0.25017   0.10217   0.00000  Uiso   1.00
C119   C     0.03309   0.19049   0.47983   0.00000  Uiso   1.00
C120   C     0.46157   0.30520   0.51959   0.00000  Uiso   1.00
C121   C     0.30843   0.46661   0.47976   0.00000  Uiso   1.00
C122   C     0.19233   0.03512   0.52033   0.00000  Uiso   1.00
C123   C     0.45995   0.30382   0.47893   0.00000  Uiso   1.00
C124   C     0.22441   0.02146   0.41838   0.00000  Uiso   1.00
C125   C     0.03172   0.19017   0.52057   0.00000  Uiso   1.00
C126   C     0.19143   0.03316   0.47967   0.00000  Uiso   1.00
C127   C     0.30755   0.46470   0.52043   0.00000  Uiso   1.00
C128   C     0.27308   0.43508   0.98048   0.00000  Uiso   1.00
C129   C     0.20704   0.05271   0.01936   0.00000  Uiso   1.00
C130   C     0.05950   0.21771   0.97954   0.00000  Uiso   1.00
C131   C     0.44627   0.29007   0.02098   0.00000  Uiso   1.00
C132   C     0.20698   0.05190   0.97859   0.00000  Uiso   1.00
C133   C     0.26988   0.43440   0.02118   0.00000  Uiso   1.00
C134   C     0.44489   0.28843   0.98032   0.00000  Uiso   1.00
C135   C     0.27988   0.48506   0.58241   0.00000  Uiso   1.00
C136   C     0.05916   0.21634   0.02029   0.00000  Uiso   1.00
C137   C     0.25000   0.49999   0.35583   0.00000  Uiso   1.00
C138   C     0.25000   0.00001   0.64433   0.00000  Uiso   1.00
C139   C     0.00001   0.24993   0.35568   0.00000  Uiso   1.00
C140   C     0.49993   0.25006   0.64414   0.00000  Uiso   1.00
C141   C     0.49995   0.25005   0.85587   0.00000  Uiso   1.00
C142   C     0.00009   0.24999   0.14431   0.00000  Uiso   1.00
C143   C     0.25000   0.49994   0.85580   0.00000  Uiso   1.00
C144   C     0.24990   0.00077   0.14417   0.00000  Uiso   1.00
C145   C     0.18007   0.06996   0.24999   0.00000  Uiso   1.00
C146   C     0.01391   0.21890   0.41750   0.00000  Uiso   1.00
C147   C     0.31992   0.43004   0.75001   0.00000  Uiso   1.00
C148   C     0.43008   0.17991   0.25025   0.00000  Uiso   1.00
C149   C     0.06993   0.31995   0.75001   0.00000  Uiso   1.00
C150   C     0.31994   0.43005   0.25002   0.00000  Uiso   1.00
C151   C     0.18007   0.06995   0.74999   0.00000  Uiso   1.00
C152   C     0.07008   0.31993   0.24973   0.00000  Uiso   1.00
C153   C     0.43003   0.18005   0.75015   0.00000  Uiso   1.00
C154   C     0.18002   0.42996   0.75004   0.00000  Uiso   1.00
C155   C     0.31994   0.06996   0.24990   0.00000  Uiso   1.00
C156   C     0.43006   0.31996   0.75000   0.00000  Uiso   1.00
C157   C     0.47653   0.27416   0.58151   0.00000  Uiso   1.00
C158   C     0.06995   0.18006   0.24999   0.00000  Uiso   1.00
C159   C     0.32004   0.06997   0.74980   0.00000  Uiso   1.00
C160   C     0.18006   0.43003   0.25011   0.00000  Uiso   1.00
C161   C     0.06993   0.18003   0.75000   0.00000  Uiso   1.00
C162   C     0.43006   0.31995   0.24998   0.00000  Uiso   1.00
C163   C     0.14192   0.38545   0.21446   0.00000  Uiso   1.00
C164   C     0.35864   0.11442   0.78540   0.00000  Uiso   1.00
C165   C     0.08796   0.11509   0.25533   0.00000  Uiso   1.00
C166   C     0.41203   0.38496   0.74510   0.00000  Uiso   1.00
C167   C     0.35870   0.11412   0.21479   0.00000  Uiso   1.00
C168   C     0.27548   0.47839   0.41841   0.00000  Uiso   1.00
C169   C     0.14074   0.38600   0.78547   0.00000  Uiso   1.00
C170   C     0.41199   0.38483   0.25581   0.00000  Uiso   1.00
C171   C     0.08798   0.11507   0.74461   0.00000  Uiso   1.00
C172   C     0.11516   0.08787   0.74436   0.00000  Uiso   1.00
C173   C     0.38481   0.41202   0.25577   0.00000  Uiso   1.00
C174   C     0.11389   0.35876   0.78553   0.00000  Uiso   1.00
C175   C     0.38533   0.14156   0.21477   0.00000  Uiso   1.00
C176   C     0.38485   0.41214   0.74493   0.00000  Uiso   1.00
C177   C     0.11516   0.08792   0.25535   0.00000  Uiso   1.00
C178   C     0.38614   0.14100   0.78536   0.00000  Uiso   1.00
C179   C     0.22011   0.01495   0.58238   0.00000  Uiso   1.00
C180   C     0.11412   0.35915   0.21443   0.00000  Uiso   1.00
C181   C     0.39157   0.13575   0.71453   0.00000  Uiso   1.00
C182   C     0.10847   0.36463   0.28520   0.00000  Uiso   1.00
C183   C     0.33788   0.36501   0.75487   0.00000  Uiso   1.00
C184   C     0.16205   0.13492   0.24466   0.00000  Uiso   1.00
C185   C     0.10881   0.36392   0.71455   0.00000  Uiso   1.00
C186   C     0.39081   0.13592   0.28555   0.00000  Uiso   1.00
C187   C     0.16200   0.13484   0.75549   0.00000  Uiso   1.00
C188   C     0.33802   0.36515   0.24425   0.00000  Uiso   1.00
C189   C     0.36522   0.33798   0.24410   0.00000  Uiso   1.00
C190   C     0.23488   0.02865   0.91847   0.00000  Uiso   1.00
C191   C     0.13483   0.16203   0.75547   0.00000  Uiso   1.00
C192   C     0.36444   0.10819   0.28554   0.00000  Uiso   1.00
C193   C     0.13614   0.39066   0.71463   0.00000  Uiso   1.00
C194   C     0.13487   0.16212   0.24459   0.00000  Uiso   1.00
C195   C     0.36509   0.33785   0.75493   0.00000  Uiso   1.00
C196   C     0.13599   0.39118   0.28521   0.00000  Uiso   1.00
C197   C     0.36376   0.10948   0.71452   0.00000  Uiso   1.00
C198   C     0.01549   0.21899   0.45863   0.00000  Uiso   1.00
C199   C     0.47878   0.27638   0.54056   0.00000  Uiso   1.00
C200   C     0.27840   0.48181   0.45920   0.00000  Uiso   1.00
H201   H     0.10024   0.14821   0.43051   0.00000  Uiso   1.00
H202   H     0.17369   0.13080   0.05666   0.00000  Uiso   1.00
H203   H     0.22552   0.40684   0.90332   0.00000  Uiso   1.00
H204   H     0.24846   0.07366   0.11340   0.00000  Uiso   1.00
H205   H     0.17907   0.09165   0.11971   0.00000  Uiso   1.00
H206   H     0.20146   0.06598   0.15674   0.00000  Uiso   1.00
H207   H     0.17393   0.04264   0.12072   0.00000  Uiso   1.00
H208   H     0.05757   0.21023   0.87179   0.00000  Uiso   1.00
H209   H     0.05294   0.14675   0.88498   0.00000  Uiso   1.00
H210   H     0.00661   0.16386   0.88445   0.00000  Uiso   1.00
H211   H     0.03000   0.15635   0.93002   0.00000  Uiso   1.00
H212   H     0.43930   0.28195   0.12973   0.00000  Uiso   1.00
H213   H     0.13383   0.21979   0.92220   0.00000  Uiso   1.00
H214   H     0.38610   0.24935   0.11475   0.00000  Uiso   1.00
H215   H     0.42329   0.21680   0.11107   0.00000  Uiso   1.00
H216   H     0.40427   0.23742   0.06789   0.00000  Uiso   1.00
H217   H     0.41585   0.35848   0.07781   0.00000  Uiso   1.00
H218   H     0.14053   0.07919   0.91735   0.00000  Uiso   1.00
H219   H     0.25394   0.36135   0.07801   0.00000  Uiso   1.00
H220   H     0.36791   0.29036   0.92712   0.00000  Uiso   1.00
H221   H     0.10064   0.14877   0.06990   0.00000  Uiso   1.00
H222   H     0.15460   0.41050   0.12131   0.00000  Uiso   1.00
H223   H     0.34787   0.08903   0.87861   0.00000  Uiso   1.00
H224   H     0.00502   0.11485   0.29741   0.00000  Uiso   1.00
H225   H     0.45982   0.38230   0.57267   0.00000  Uiso   1.00
H226   H     0.49448   0.38730   0.70228   0.00000  Uiso   1.00
H227   H     0.33244   0.06963   0.13420   0.00000  Uiso   1.00
H228   H     0.16397   0.43171   0.86626   0.00000  Uiso   1.00
H229   H     0.49359   0.38593   0.30055   0.00000  Uiso   1.00
H230   H     0.00608   0.11280   0.70064   0.00000  Uiso   1.00
H231   H     0.11569   0.00488   0.70214   0.00000  Uiso   1.00
H232   H     0.38600   0.49404   0.29971   0.00000  Uiso   1.00
H233   H     0.08738   0.34757   0.87838   0.00000  Uiso   1.00
H234   H     0.40947   0.15347   0.12138   0.00000  Uiso   1.00
H235   H     0.38498   0.49533   0.70311   0.00000  Uiso   1.00
H236   H     0.38383   0.47049   0.42417   0.00000  Uiso   1.00
H237   H     0.11442   0.00543   0.29853   0.00000  Uiso   1.00
H238   H     0.43134   0.16603   0.86593   0.00000  Uiso   1.00
H239   H     0.06833   0.33678   0.13345   0.00000  Uiso   1.00
H240   H     0.40367   0.16178   0.62161   0.00000  Uiso   1.00
H241   H     0.09648   0.34037   0.37856   0.00000  Uiso   1.00
H242   H     0.25437   0.36440   0.79565   0.00000  Uiso   1.00
H243   H     0.24445   0.13621   0.20157   0.00000  Uiso   1.00
H244   H     0.09733   0.33762   0.62167   0.00000  Uiso   1.00
H245   H     0.41323   0.18163   0.36655   0.00000  Uiso   1.00
H246   H     0.24395   0.13602   0.79955   0.00000  Uiso   1.00
H247   H     0.15284   0.10343   0.57053   0.00000  Uiso   1.00
H248   H     0.25622   0.36374   0.20000   0.00000  Uiso   1.00
H249   H     0.36438   0.25627   0.19947   0.00000  Uiso   1.00
H250   H     0.13599   0.24440   0.79873   0.00000  Uiso   1.00
H251   H     0.33885   0.09595   0.37856   0.00000  Uiso   1.00
H252   H     0.18193   0.41198   0.63336   0.00000  Uiso   1.00
H253   H     0.13478   0.24524   0.20263   0.00000  Uiso   1.00
H254   H     0.36392   0.25505   0.79744   0.00000  Uiso   1.00
H255   H     0.18077   0.41685   0.36583   0.00000  Uiso   1.00
H256   H     0.31766   0.08807   0.63346   0.00000  Uiso   1.00
H257   H     0.46813   0.31080   0.37020   0.00000  Uiso   1.00
H258   H     0.39167   0.33445   0.42203   0.00000  Uiso   1.00
H259   H     0.00078   0.36402   0.38519   0.00000  Uiso   1.00
H260   H     0.03323   0.32673   0.38885   0.00000  Uiso   1.00
H261   H     0.01271   0.34577   0.43204   0.00000  Uiso   1.00
H262   H     0.03945   0.19225   0.62832   0.00000  Uiso   1.00
H263   H     0.10285   0.19654   0.61501   0.00000  Uiso   1.00
H264   H     0.08599   0.24301   0.61536   0.00000  Uiso   1.00
H265   H     0.09327   0.21942   0.56989   0.00000  Uiso   1.00
H266   H     0.19168   0.03840   0.37150   0.00000  Uiso   1.00
H267   H     0.19458   0.10218   0.38352   0.00000  Uiso   1.00
H268   H     0.24137   0.08638   0.38293   0.00000  Uiso   1.00
H269   H     0.02912   0.11590   0.57814   0.00000  Uiso   1.00
H270   H     0.21813   0.09393   0.42852   0.00000  Uiso   1.00
H271   H     0.30688   0.45670   0.62666   0.00000  Uiso   1.00
H272   H     0.36192   0.49202   0.62511   0.00000  Uiso   1.00
H273   H     0.32379   0.02176   0.63541   0.00000  Uiso   1.00
H274   H     0.34288   0.01972   0.58688   0.00000  Uiso   1.00
H275   H     0.04366   0.19297   0.37369   0.00000  Uiso   1.00
H276   H     0.00863   0.13740   0.37343   0.00000  Uiso   1.00
H277   H     0.47954   0.17568   0.36163   0.00000  Uiso   1.00
H278   H     0.47923   0.15638   0.41016   0.00000  Uiso   1.00
H279   H     0.45965   0.30742   0.62797   0.00000  Uiso   1.00
H280   H     0.11606   0.02900   0.42401   0.00000  Uiso   1.00
H281   H     0.39576   0.30172   0.61804   0.00000  Uiso   1.00
H282   H     0.41328   0.25552   0.61939   0.00000  Uiso   1.00
H283   H     0.40368   0.27733   0.57349   0.00000  Uiso   1.00
H284   H     0.30824   0.46145   0.37160   0.00000  Uiso   1.00
H285   H     0.30517   0.39765   0.38358   0.00000  Uiso   1.00
H286   H     0.25843   0.41357   0.38286   0.00000  Uiso   1.00
H287   H     0.28155   0.40589   0.42852   0.00000  Uiso   1.00
H288   H     0.19315   0.04336   0.62657   0.00000  Uiso   1.00
H289   H     0.13807   0.00805   0.62503   0.00000  Uiso   1.00
H290   H     0.17620   0.47835   0.63552   0.00000  Uiso   1.00
H291   H     0.34689   0.39639   0.57086   0.00000  Uiso   1.00
H292   H     0.15716   0.48027   0.58695   0.00000  Uiso   1.00
H293   H     0.22146   0.06181   0.87061   0.00000  Uiso   1.00
H294   H     0.25232   0.11479   0.89028   0.00000  Uiso   1.00
H295   H     0.28487   0.07769   0.89438   0.00000  Uiso   1.00
H296   H     0.26159   0.09480   0.93699   0.00000  Uiso   1.00
H297   H     0.27565   0.43655   0.13024   0.00000  Uiso   1.00
H298   H     0.33849   0.42718   0.11654   0.00000  Uiso   1.00
H299   H     0.33096   0.47598   0.11595   0.00000  Uiso   1.00
H300   H     0.33351   0.45070   0.07098   0.00000  Uiso   1.00
H301   H     0.44275   0.29055   0.87199   0.00000  Uiso   1.00
H302   H     0.33621   0.38323   0.93572   0.00000  Uiso   1.00
H303   H     0.44875   0.35447   0.88193   0.00000  Uiso   1.00
H304   H     0.49483   0.33674   0.88067   0.00000  Uiso   1.00
H305   H     0.47303   0.34640   0.92654   0.00000  Uiso   1.00
H306   H     0.05696   0.20626   0.12646   0.00000  Uiso   1.00
H307   H     0.11252   0.24119   0.12644   0.00000  Uiso   1.00
H308   H     0.07438   0.27048   0.13806   0.00000  Uiso   1.00
H309   H     0.09360   0.27047   0.08952   0.00000  Uiso   1.00
H310   H     0.29407   0.44287   0.87558   0.00000  Uiso   1.00
H311   H     0.25838   0.38736   0.87042   0.00000  Uiso   1.00
H312   H     0.23196   0.42655   0.85551   0.00000  Uiso   1.00
N313   N     0.47840   0.31271   0.39790   0.00000  Uiso   1.00
N314   N     0.28501   0.44356   0.10308   0.00000  Uiso   1.00
N315   N     0.45410   0.29931   0.89767   0.00000  Uiso   1.00
N316   N     0.06212   0.22438   0.10430   0.00000  Uiso   1.00
N317   N     0.27404   0.43691   0.89554   0.00000  Uiso   1.00
N318   N     0.22535   0.06245   0.10125   0.00000  Uiso   1.00
N319   N     0.04724   0.20240   0.89828   0.00000  Uiso   1.00
N320   N     0.43739   0.27167   0.10203   0.00000  Uiso   1.00
N321   N     0.04725   0.20249   0.60177   0.00000  Uiso   1.00
N322   N     0.20193   0.04690   0.39779   0.00000  Uiso   1.00
N323   N     0.31147   0.47429   0.60388   0.00000  Uiso   1.00
N324   N     0.02544   0.18778   0.39574   0.00000  Uiso   1.00
N325   N     0.45082   0.29611   0.60230   0.00000  Uiso   1.00
N326   N     0.29793   0.45292   0.39786   0.00000  Uiso   1.00
N327   N     0.18854   0.02575   0.60383   0.00000  Uiso   1.00
N328   N     0.22972   0.06287   0.89911   0.00000  Uiso   1.00
O329   O     0.25000   0.00000   0.25000   0.00000  Uiso   1.00
O330   O     0.25000   0.46964   0.66245   0.00000  Uiso   1.00
O331   O     0.03241   0.12079   0.70330   0.00000  Uiso   1.00
O332   O     0.08353   0.03288   0.75511   0.00000  Uiso   1.00
O333   O     0.12369   0.03123   0.70499   0.00000  Uiso   1.00
O334   O     0.41513   0.46749   0.24407   0.00000  Uiso   1.00
O335   O     0.37776   0.46781   0.29661   0.00000  Uiso   1.00
O336   O     0.10223   0.30778   0.82536   0.00000  Uiso   1.00
O337   O     0.09426   0.36268   0.85488   0.00000  Uiso   1.00
O338   O     0.39690   0.19285   0.17567   0.00000  Uiso   1.00
O339   O     0.40325   0.13826   0.14498   0.00000  Uiso   1.00
O340   O     0.41599   0.46718   0.75681   0.00000  Uiso   1.00
O341   O     0.46964   0.25000   0.33755   0.00000  Uiso   1.00
O342   O     0.37702   0.46894   0.70562   0.00000  Uiso   1.00
O343   O     0.08525   0.03234   0.24298   0.00000  Uiso   1.00
O344   O     0.12216   0.03187   0.29592   0.00000  Uiso   1.00
O345   O     0.37477   0.18305   0.83521   0.00000  Uiso   1.00
O346   O     0.42790   0.15115   0.84143   0.00000  Uiso   1.00
O347   O     0.12529   0.31884   0.16305   0.00000  Uiso   1.00
O348   O     0.07155   0.35008   0.15897   0.00000  Uiso   1.00
O349   O     0.44287   0.14709   0.67518   0.00000  Uiso   1.00
O350   O     0.38833   0.15505   0.64499   0.00000  Uiso   1.00
O351   O     0.05719   0.35327   0.32426   0.00000  Uiso   1.00
O352   O     0.03037   0.25000   0.66245   0.00000  Uiso   1.00
O353   O     0.11170   0.34656   0.35497   0.00000  Uiso   1.00
O354   O     0.28300   0.33405   0.74188   0.00000  Uiso   1.00
O355   O     0.28077   0.37234   0.79362   0.00000  Uiso   1.00
O356   O     0.21760   0.16458   0.25759   0.00000  Uiso   1.00
O357   O     0.21802   0.12848   0.20403   0.00000  Uiso   1.00
O358   O     0.05775   0.35265   0.67479   0.00000  Uiso   1.00
O359   O     0.11250   0.34435   0.64516   0.00000  Uiso   1.00
O360   O     0.43111   0.12465   0.33693   0.00000  Uiso   1.00
O361   O     0.39992   0.17845   0.34103   0.00000  Uiso   1.00
O362   O     0.21748   0.16508   0.74372   0.00000  Uiso   1.00
O363   O     0.00000   0.21963   0.83755   0.00000  Uiso   1.00
O364   O     0.21770   0.12789   0.79648   0.00000  Uiso   1.00
O365   O     0.28253   0.33501   0.25607   0.00000  Uiso   1.00
O366   O     0.28243   0.37197   0.20313   0.00000  Uiso   1.00
O367   O     0.33474   0.28244   0.25503   0.00000  Uiso   1.00
O368   O     0.37262   0.28246   0.20290   0.00000  Uiso   1.00
O369   O     0.16516   0.21742   0.74333   0.00000  Uiso   1.00
O370   O     0.12784   0.21810   0.79591   0.00000  Uiso   1.00
O371   O     0.35280   0.05679   0.32476   0.00000  Uiso   1.00
O372   O     0.34558   0.11133   0.35520   0.00000  Uiso   1.00
O373   O     0.12574   0.43148   0.66349   0.00000  Uiso   1.00
O374   O     0.00000   0.28037   0.16245   0.00000  Uiso   1.00
O375   O     0.17850   0.39865   0.65885   0.00000  Uiso   1.00
O376   O     0.16598   0.21722   0.25627   0.00000  Uiso   1.00
O377   O     0.12687   0.21884   0.20520   0.00000  Uiso   1.00
O378   O     0.33543   0.28231   0.74168   0.00000  Uiso   1.00
O379   O     0.37164   0.28153   0.79516   0.00000  Uiso   1.00
O380   O     0.12420   0.43339   0.33481   0.00000  Uiso   1.00
O381   O     0.17749   0.40183   0.34140   0.00000  Uiso   1.00
O382   O     0.37429   0.06909   0.66306   0.00000  Uiso   1.00
O383   O     0.32110   0.10128   0.65900   0.00000  Uiso   1.00
O384   O     0.28037   0.00000   0.83755   0.00000  Uiso   1.00
O385   O     0.21964   0.00000   0.16245   0.00000  Uiso   1.00
O386   O     0.00000   0.28037   0.83755   0.00000  Uiso   1.00
O387   O     0.00000   0.21964   0.16245   0.00000  Uiso   1.00
O388   O     0.21964   0.00000   0.83755   0.00000  Uiso   1.00
O389   O     0.25000   0.00000   0.75000   0.00000  Uiso   1.00
O390   O     0.28037   0.00000   0.16245   0.00000  Uiso   1.00
O391   O     0.20725   0.07308   0.27302   0.00000  Uiso   1.00
O392   O     0.29276   0.42693   0.72698   0.00000  Uiso   1.00
O393   O     0.42693   0.20725   0.27302   0.00000  Uiso   1.00
O394   O     0.07308   0.29275   0.72698   0.00000  Uiso   1.00
O395   O     0.29276   0.42693   0.27302   0.00000  Uiso   1.00
O396   O     0.20725   0.07308   0.72698   0.00000  Uiso   1.00
O397   O     0.07308   0.29275   0.27302   0.00000  Uiso   1.00
O398   O     0.42693   0.20725   0.72698   0.00000  Uiso   1.00
O399   O     0.20725   0.42693   0.72698   0.00000  Uiso   1.00
O400   O     0.00000   0.25000   0.25000   0.00000  Uiso   1.00
O401   O     0.29276   0.07308   0.27302   0.00000  Uiso   1.00
O402   O     0.42693   0.29276   0.72698   0.00000  Uiso   1.00
O403   O     0.07308   0.20725   0.27302   0.00000  Uiso   1.00
O404   O     0.29276   0.07308   0.72698   0.00000  Uiso   1.00
O405   O     0.20725   0.42693   0.27302   0.00000  Uiso   1.00
O406   O     0.07308   0.20725   0.72698   0.00000  Uiso   1.00
O407   O     0.42693   0.29276   0.27302   0.00000  Uiso   1.00
O408   O     0.45725   0.32308   0.77302   0.00000  Uiso   1.00
O409   O     0.04276   0.17692   0.22698   0.00000  Uiso   1.00
O410   O     0.17693   0.45725   0.77302   0.00000  Uiso   1.00
O411   O     0.00000   0.25000   0.75000   0.00000  Uiso   1.00
O412   O     0.32308   0.04276   0.22698   0.00000  Uiso   1.00
O413   O     0.04276   0.17692   0.77302   0.00000  Uiso   1.00
O414   O     0.45725   0.32308   0.22698   0.00000  Uiso   1.00
O415   O     0.32308   0.04276   0.77302   0.00000  Uiso   1.00
O416   O     0.17693   0.45725   0.22698   0.00000  Uiso   1.00
O417   O     0.45725   0.17693   0.22698   0.00000  Uiso   1.00
O418   O     0.04276   0.32307   0.77302   0.00000  Uiso   1.00
O419   O     0.17693   0.04276   0.22698   0.00000  Uiso   1.00
O420   O     0.32308   0.45725   0.77302   0.00000  Uiso   1.00
O421   O     0.04276   0.32307   0.22698   0.00000  Uiso   1.00
O422   O     0.25000   0.46964   0.33755   0.00000  Uiso   1.00
O423   O     0.45725   0.17693   0.77302   0.00000  Uiso   1.00
O424   O     0.32308   0.45725   0.22698   0.00000  Uiso   1.00
O425   O     0.17693   0.04276   0.77302   0.00000  Uiso   1.00
O426   O     0.04366   0.12993   0.45995   0.00000  Uiso   1.00
O427   O     0.08795   0.17021   0.44280   0.00000  Uiso   1.00
O428   O     0.41551   0.34696   0.53774   0.00000  Uiso   1.00
O429   O     0.47224   0.36047   0.56019   0.00000  Uiso   1.00
O430   O     0.35391   0.42407   0.46169   0.00000  Uiso   1.00
O431   O     0.36130   0.48118   0.43699   0.00000  Uiso   1.00
O432   O     0.13221   0.04809   0.54017   0.00000  Uiso   1.00
O433   O     0.25000   0.03037   0.66245   0.00000  Uiso   1.00
O434   O     0.17431   0.09036   0.55811   0.00000  Uiso   1.00
O435   O     0.43855   0.36225   0.46064   0.00000  Uiso   1.00
O436   O     0.40688   0.31474   0.43504   0.00000  Uiso   1.00
O437   O     0.07450   0.14480   0.53841   0.00000  Uiso   1.00
O438   O     0.01817   0.13823   0.56511   0.00000  Uiso   1.00
O439   O     0.14578   0.07552   0.46152   0.00000  Uiso   1.00
O440   O     0.13863   0.01839   0.43685   0.00000  Uiso   1.00
O441   O     0.36765   0.45160   0.54028   0.00000  Uiso   1.00
O442   O     0.32545   0.40950   0.55840   0.00000  Uiso   1.00
O443   O     0.27480   0.37438   0.95852   0.00000  Uiso   1.00
O444   O     0.03037   0.25000   0.33755   0.00000  Uiso   1.00
O445   O     0.32681   0.40665   0.94791   0.00000  Uiso   1.00
O446   O     0.15171   0.06933   0.04851   0.00000  Uiso   1.00
O447   O     0.19329   0.11520   0.04403   0.00000  Uiso   1.00
O448   O     0.10449   0.17453   0.96178   0.00000  Uiso   1.00
O449   O     0.11158   0.23091   0.93518   0.00000  Uiso   1.00
O450   O     0.38796   0.31164   0.03919   0.00000  Uiso   1.00
O451   O     0.43550   0.34322   0.06480   0.00000  Uiso   1.00
O452   O     0.18110   0.10898   0.96184   0.00000  Uiso   1.00
O453   O     0.15660   0.06028   0.93054   0.00000  Uiso   1.00
O454   O     0.30419   0.38236   0.03931   0.00000  Uiso   1.00
O455   O     0.46964   0.25000   0.66245   0.00000  Uiso   1.00
O456   O     0.24710   0.38526   0.06499   0.00000  Uiso   1.00
O457   O     0.40328   0.33463   0.96208   0.00000  Uiso   1.00
O458   O     0.38969   0.27788   0.93963   0.00000  Uiso   1.00
O459   O     0.11956   0.20507   0.04018   0.00000  Uiso   1.00
O460   O     0.07880   0.16130   0.05757   0.00000  Uiso   1.00
O461   O     0.19344   0.39700   0.17548   0.00000  Uiso   1.00
O462   O     0.13911   0.40394   0.14462   0.00000  Uiso   1.00
O463   O     0.30784   0.10233   0.82508   0.00000  Uiso   1.00
O464   O     0.36277   0.09567   0.85493   0.00000  Uiso   1.00
O465   O     0.03286   0.08415   0.24338   0.00000  Uiso   1.00
O466   O     0.25000   0.03037   0.33755   0.00000  Uiso   1.00
O467   O     0.03140   0.12276   0.29489   0.00000  Uiso   1.00
O468   O     0.46754   0.41428   0.75897   0.00000  Uiso   1.00
O469   O     0.46812   0.37929   0.70458   0.00000  Uiso   1.00
O470   O     0.31637   0.12625   0.16539   0.00000  Uiso   1.00
O471   O     0.34761   0.07278   0.15854   0.00000  Uiso   1.00
O472   O     0.18078   0.37429   0.83694   0.00000  Uiso   1.00
O473   O     0.15041   0.42856   0.84088   0.00000  Uiso   1.00
O474   O     0.46753   0.41512   0.24459   0.00000  Uiso   1.00
O475   O     0.46740   0.37771   0.29718   0.00000  Uiso   1.00
O476   O     0.03222   0.08603   0.75791   0.00000  Uiso   1.00
Zn477  Zn    0.20660   0.00000   0.21735   0.00000  Uiso   1.00
Zn478  Zn    0.04341   0.25000   0.28265   0.00000  Uiso   1.00
Zn479  Zn    0.25000   0.45660   0.71735   0.00000  Uiso   1.00
Zn480  Zn    0.25000   0.04341   0.28265   0.00000  Uiso   1.00
Zn481  Zn    0.04341   0.25000   0.71735   0.00000  Uiso   1.00
Zn482  Zn    0.45660   0.25000   0.28265   0.00000  Uiso   1.00
Zn483  Zn    0.25000   0.04341   0.71735   0.00000  Uiso   1.00
Zn484  Zn    0.25000   0.45660   0.28265   0.00000  Uiso   1.00
Zn485  Zn    0.29341   0.00000   0.78265   0.00000  Uiso   1.00
Zn486  Zn    0.00000   0.20660   0.21735   0.00000  Uiso   1.00
Zn487  Zn    0.00000   0.29340   0.78265   0.00000  Uiso   1.00
Zn488  Zn    0.29341   0.00000   0.21735   0.00000  Uiso   1.00
Zn489  Zn    0.20660   0.00000   0.78265   0.00000  Uiso   1.00
Zn490  Zn    0.00000   0.29340   0.21735   0.00000  Uiso   1.00
Zn491  Zn    0.00000   0.20660   0.78265   0.00000  Uiso   1.00
Zn492  Zn    0.45660   0.25000   0.71735   0.00000  Uiso   1.00
C493   C     0.98489   0.27908   0.41793   0.00000  Uiso   1.00
C494   C     0.76344   0.46956   0.08215   0.00000  Uiso   1.00
C495   C     0.72075   0.01726   0.54137   0.00000  Uiso   1.00
C496   C     0.98022   0.27685   0.45852   0.00000  Uiso   1.00
C497   C     0.51663   0.22043   0.54087   0.00000  Uiso   1.00
C498   C     0.72148   0.01800   0.45916   0.00000  Uiso   1.00
C499   C     0.77918   0.48265   0.54141   0.00000  Uiso   1.00
C500   C     0.75997   0.46580   0.95900   0.00000  Uiso   1.00
C501   C     0.72718   0.02614   0.04074   0.00000  Uiso   1.00
C502   C     0.52939   0.23302   0.95918   0.00000  Uiso   1.00
C503   C     0.97318   0.26973   0.04144   0.00000  Uiso   1.00
C504   C     0.72840   0.02559   0.95872   0.00000  Uiso   1.00
C505   C     0.97592   0.27346   0.91847   0.00000  Uiso   1.00
C506   C     0.75871   0.46630   0.04148   0.00000  Uiso   1.00
C507   C     0.97365   0.27115   0.95941   0.00000  Uiso   1.00
C508   C     0.53083   0.23419   0.04142   0.00000  Uiso   1.00
C509   C     0.59772   0.34859   0.24977   0.00000  Uiso   1.00
C510   C     0.90245   0.15151   0.75002   0.00000  Uiso   1.00
C511   C     0.65194   0.09809   0.25000   0.00000  Uiso   1.00
C512   C     0.84804   0.40190   0.74995   0.00000  Uiso   1.00
C513   C     0.90143   0.15227   0.25019   0.00000  Uiso   1.00
C514   C     0.59797   0.34799   0.75003   0.00000  Uiso   1.00
C515   C     0.84807   0.40192   0.25005   0.00000  Uiso   1.00
C516   C     0.53100   0.23591   0.08254   0.00000  Uiso   1.00
C517   C     0.65192   0.09804   0.74989   0.00000  Uiso   1.00
C518   C     0.59806   0.15188   0.75006   0.00000  Uiso   1.00
C519   C     0.90194   0.34808   0.24994   0.00000  Uiso   1.00
C520   C     0.65187   0.40180   0.75005   0.00000  Uiso   1.00
C521   C     0.84846   0.09754   0.25007   0.00000  Uiso   1.00
C522   C     0.90191   0.34808   0.75004   0.00000  Uiso   1.00
C523   C     0.59808   0.15193   0.24996   0.00000  Uiso   1.00
C524   C     0.84763   0.09865   0.74990   0.00000  Uiso   1.00
C525   C     0.65254   0.40145   0.24993   0.00000  Uiso   1.00
C526   C     0.99767   0.24791   0.47911   0.00000  Uiso   1.00
C527   C     0.76125   0.46725   0.91771   0.00000  Uiso   1.00
C528   C     0.99760   0.24818   0.52014   0.00000  Uiso   1.00
C529   C     0.74995   0.49992   0.47980   0.00000  Uiso   1.00
C530   C     0.74996   0.49994   0.52087   0.00000  Uiso   1.00
C531   C     0.74353   0.49556   0.97943   0.00000  Uiso   1.00
C532   C     0.74293   0.49587   0.02057   0.00000  Uiso   1.00
C533   C     0.50174   0.25219   0.97986   0.00000  Uiso   1.00
C534   C     0.50201   0.25213   0.02089   0.00000  Uiso   1.00
C535   C     0.55476   0.16139   0.46036   0.00000  Uiso   1.00
C536   C     0.94787   0.33871   0.53938   0.00000  Uiso   1.00
C537   C     0.84257   0.45549   0.45933   0.00000  Uiso   1.00
C538   C     0.73155   0.02854   0.08161   0.00000  Uiso   1.00
C539   C     0.66410   0.05785   0.53993   0.00000  Uiso   1.00
C540   C     0.93466   0.32915   0.45815   0.00000  Uiso   1.00
C541   C     0.54325   0.15637   0.54149   0.00000  Uiso   1.00
C542   C     0.65725   0.04414   0.45920   0.00000  Uiso   1.00
C543   C     0.83573   0.44194   0.54010   0.00000  Uiso   1.00
C544   C     0.79105   0.40335   0.96154   0.00000  Uiso   1.00
C545   C     0.68221   0.07906   0.03865   0.00000  Uiso   1.00
C546   C     0.59320   0.20591   0.95871   0.00000  Uiso   1.00
C547   C     0.92103   0.31545   0.04171   0.00000  Uiso   1.00
C548   C     0.68094   0.07589   0.95693   0.00000  Uiso   1.00
C549   C     0.52564   0.22876   0.91857   0.00000  Uiso   1.00
C550   C     0.77527   0.39902   0.04195   0.00000  Uiso   1.00
C551   C     0.91146   0.30222   0.96048   0.00000  Uiso   1.00
C552   C     0.58799   0.19435   0.03984   0.00000  Uiso   1.00
C553   C     0.66014   0.39575   0.17735   0.00000  Uiso   1.00
C554   C     0.84109   0.10378   0.82265   0.00000  Uiso   1.00
C555   C     0.54928   0.10575   0.26393   0.00000  Uiso   1.00
C556   C     0.95072   0.39437   0.73692   0.00000  Uiso   1.00
C557   C     0.83923   0.10507   0.17831   0.00000  Uiso   1.00
C558   C     0.65912   0.39573   0.82230   0.00000  Uiso   1.00
C559   C     0.95049   0.39406   0.26521   0.00000  Uiso   1.00
C560   C     0.97096   0.26513   0.08204   0.00000  Uiso   1.00
C561   C     0.54936   0.10579   0.73597   0.00000  Uiso   1.00
C562   C     0.60589   0.04919   0.73540   0.00000  Uiso   1.00
C563   C     0.89408   0.45061   0.26483   0.00000  Uiso   1.00
C564   C     0.60315   0.34109   0.82279   0.00000  Uiso   1.00
C565   C     0.89553   0.15954   0.17765   0.00000  Uiso   1.00
C566   C     0.89419   0.45089   0.73641   0.00000  Uiso   1.00
C567   C     0.60596   0.04922   0.26412   0.00000  Uiso   1.00
C568   C     0.89561   0.16007   0.82195   0.00000  Uiso   1.00
C569   C     0.60419   0.34086   0.17762   0.00000  Uiso   1.00
C570   C     0.90957   0.14622   0.67738   0.00000  Uiso   1.00
C571   C     0.99983   0.24939   0.39783   0.00000  Uiso   1.00
C572   C     0.59047   0.35446   0.32231   0.00000  Uiso   1.00
C573   C     0.79910   0.35554   0.76283   0.00000  Uiso   1.00
C574   C     0.70071   0.14422   0.23608   0.00000  Uiso   1.00
C575   C     0.59104   0.35335   0.67730   0.00000  Uiso   1.00
C576   C     0.90911   0.14580   0.32237   0.00000  Uiso   1.00
C577   C     0.70057   0.14413   0.76457   0.00000  Uiso   1.00
C578   C     0.79948   0.35587   0.23515   0.00000  Uiso   1.00
C579   C     0.85602   0.29944   0.23466   0.00000  Uiso   1.00
C580   C     0.64413   0.20068   0.76424   0.00000  Uiso   1.00
C581   C     0.85400   0.09012   0.32268   0.00000  Uiso   1.00
C582   C     0.99948   0.24974   0.60169   0.00000  Uiso   1.00
C583   C     0.64628   0.40876   0.67778   0.00000  Uiso   1.00
C584   C     0.64415   0.20086   0.23595   0.00000  Uiso   1.00
C585   C     0.85582   0.29909   0.76326   0.00000  Uiso   1.00
C586   C     0.64523   0.41048   0.32174   0.00000  Uiso   1.00
C587   C     0.85358   0.09146   0.67764   0.00000  Uiso   1.00
C588   C     0.50788   0.33862   0.40118   0.00000  Uiso   1.00
C589   C     0.58421   0.21621   0.60042   0.00000  Uiso   1.00
C590   C     0.71481   0.08423   0.39823   0.00000  Uiso   1.00
C591   C     0.83620   0.00363   0.61325   0.00000  Uiso   1.00
C592   C     0.99654   0.16314   0.38472   0.00000  Uiso   1.00
C593   C     0.74997   0.49995   0.39822   0.00000  Uiso   1.00
C594   C     0.91404   0.28181   0.60336   0.00000  Uiso   1.00
C595   C     0.78497   0.41563   0.39825   0.00000  Uiso   1.00
C596   C     0.66381   0.49642   0.61327   0.00000  Uiso   1.00
C597   C     0.75871   0.08883   0.90558   0.00000  Uiso   1.00
C598   C     0.82398   0.44982   0.10152   0.00000  Uiso   1.00
C599   C     0.96855   0.33607   0.89665   0.00000  Uiso   1.00
C600   C     0.58683   0.25330   0.11509   0.00000  Uiso   1.00
C601   C     0.74585   0.41334   0.88045   0.00000  Uiso   1.00
C602   C     0.69329   0.06546   0.12578   0.00000  Uiso   1.00
C603   C     0.53334   0.16547   0.89951   0.00000  Uiso   1.00
C604   C     0.52098   0.22420   0.58147   0.00000  Uiso   1.00
C605   C     0.75000   0.00002   0.60219   0.00000  Uiso   1.00
C606   C     0.91144   0.24221   0.09875   0.00000  Uiso   1.00
C607   C     0.74953   0.49891   0.89816   0.00000  Uiso   1.00
C608   C     0.74896   0.49993   0.10177   0.00000  Uiso   1.00
C609   C     0.50025   0.25044   0.89832   0.00000  Uiso   1.00
C610   C     0.50062   0.25017   0.10217   0.00000  Uiso   1.00
C611   C     0.53309   0.19049   0.47983   0.00000  Uiso   1.00
C612   C     0.96157   0.30520   0.51959   0.00000  Uiso   1.00
C613   C     0.80843   0.46661   0.47976   0.00000  Uiso   1.00
C614   C     0.69233   0.03512   0.52033   0.00000  Uiso   1.00
C615   C     0.95995   0.30382   0.47893   0.00000  Uiso   1.00
C616   C     0.72441   0.02146   0.41838   0.00000  Uiso   1.00
C617   C     0.53172   0.19017   0.52057   0.00000  Uiso   1.00
C618   C     0.69143   0.03316   0.47967   0.00000  Uiso   1.00
C619   C     0.80755   0.46470   0.52043   0.00000  Uiso   1.00
C620   C     0.77308   0.43508   0.98048   0.00000  Uiso   1.00
C621   C     0.70704   0.05271   0.01936   0.00000  Uiso   1.00
C622   C     0.55950   0.21771   0.97954   0.00000  Uiso   1.00
C623   C     0.94627   0.29007   0.02098   0.00000  Uiso   1.00
C624   C     0.70698   0.05190   0.97859   0.00000  Uiso   1.00
C625   C     0.76988   0.43440   0.02118   0.00000  Uiso   1.00
C626   C     0.94489   0.28843   0.98032   0.00000  Uiso   1.00
C627   C     0.77988   0.48506   0.58241   0.00000  Uiso   1.00
C628   C     0.55916   0.21634   0.02029   0.00000  Uiso   1.00
C629   C     0.75000   0.49999   0.35583   0.00000  Uiso   1.00
C630   C     0.75000   0.00001   0.64433   0.00000  Uiso   1.00
C631   C     0.50001   0.24993   0.35568   0.00000  Uiso   1.00
C632   C     0.99993   0.25006   0.64414   0.00000  Uiso   1.00
C633   C     0.99995   0.25005   0.85587   0.00000  Uiso   1.00
C634   C     0.50009   0.24999   0.14431   0.00000  Uiso   1.00
C635   C     0.75000   0.49994   0.85580   0.00000  Uiso   1.00
C636   C     0.74990   0.00077   0.14417   0.00000  Uiso   1.00
C637   C     0.68007   0.06996   0.24999   0.00000  Uiso   1.00
C638   C     0.51391   0.21890   0.41750   0.00000  Uiso   1.00
C639   C     0.81992   0.43004   0.75001   0.00000  Uiso   1.00
C640   C     0.93008   0.17991   0.25025   0.00000  Uiso   1.00
C641   C     0.56993   0.31995   0.75001   0.00000  Uiso   1.00
C642   C     0.81994   0.43005   0.25002   0.00000  Uiso   1.00
C643   C     0.68007   0.06995   0.74999   0.00000  Uiso   1.00
C644   C     0.57008   0.31993   0.24973   0.00000  Uiso   1.00
C645   C     0.93003   0.18005   0.75015   0.00000  Uiso   1.00
C646   C     0.68002   0.42996   0.75004   0.00000  Uiso   1.00
C647   C     0.81994   0.06996   0.24990   0.00000  Uiso   1.00
C648   C     0.93006   0.31996   0.75000   0.00000  Uiso   1.00
C649   C     0.97653   0.27416   0.58151   0.00000  Uiso   1.00
C650   C     0.56995   0.18006   0.24999   0.00000  Uiso   1.00
C651   C     0.82004   0.06997   0.74980   0.00000  Uiso   1.00
C652   C     0.68006   0.43003   0.25011   0.00000  Uiso   1.00
C653   C     0.56993   0.18003   0.75000   0.00000  Uiso   1.00
C654   C     0.93006   0.31995   0.24998   0.00000  Uiso   1.00
C655   C     0.64192   0.38545   0.21446   0.00000  Uiso   1.00
C656   C     0.85864   0.11442   0.78540   0.00000  Uiso   1.00
C657   C     0.58796   0.11509   0.25533   0.00000  Uiso   1.00
C658   C     0.91203   0.38496   0.74510   0.00000  Uiso   1.00
C659   C     0.85870   0.11412   0.21479   0.00000  Uiso   1.00
C660   C     0.77548   0.47839   0.41841   0.00000  Uiso   1.00
C661   C     0.64074   0.38600   0.78547   0.00000  Uiso   1.00
C662   C     0.91199   0.38483   0.25581   0.00000  Uiso   1.00
C663   C     0.58798   0.11507   0.74461   0.00000  Uiso   1.00
C664   C     0.61516   0.08787   0.74436   0.00000  Uiso   1.00
C665   C     0.88481   0.41202   0.25577   0.00000  Uiso   1.00
C666   C     0.61389   0.35876   0.78553   0.00000  Uiso   1.00
C667   C     0.88533   0.14156   0.21477   0.00000  Uiso   1.00
C668   C     0.88485   0.41214   0.74493   0.00000  Uiso   1.00
C669   C     0.61516   0.08792   0.25535   0.00000  Uiso   1.00
C670   C     0.88614   0.14100   0.78536   0.00000  Uiso   1.00
C671   C     0.72011   0.01495   0.58238   0.00000  Uiso   1.00
C672   C     0.61412   0.35915   0.21443   0.00000  Uiso   1.00
C673   C     0.89157   0.13575   0.71453   0.00000  Uiso   1.00
C674   C     0.60847   0.36463   0.28520   0.00000  Uiso   1.00
C675   C     0.83788   0.36501   0.75487   0.00000  Uiso   1.00
C676   C     0.66205   0.13492   0.24466   0.00000  Uiso   1.00
C677   C     0.60881   0.36392   0.71455   0.00000  Uiso   1.00
C678   C     0.89081   0.13592   0.28555   0.00000  Uiso   1.00
C679   C     0.66200   0.13484   0.75549   0.00000  Uiso   1.00
C680   C     0.83802   0.36515   0.24425   0.00000  Uiso   1.00
C681   C     0.86522   0.33798   0.24410   0.00000  Uiso   1.00
C682   C     0.73488   0.02865   0.91847   0.00000  Uiso   1.00
C683   C     0.63483   0.16203   0.75547   0.00000  Uiso   1.00
C684   C     0.86444   0.10819   0.28554   0.00000  Uiso   1.00
C685   C     0.63614   0.39066   0.71463   0.00000  Uiso   1.00
C686   C     0.63487   0.16212   0.24459   0.00000  Uiso   1.00
C687   C     0.86509   0.33785   0.75493   0.00000  Uiso   1.00
C688   C     0.63599   0.39118   0.28521   0.00000  Uiso   1.00
C689   C     0.86376   0.10948   0.71452   0.00000  Uiso   1.00
C690   C     0.51549   0.21899   0.45863   0.00000  Uiso   1.00
C691   C     0.97878   0.27638   0.54056   0.00000  Uiso   1.00
C692   C     0.77840   0.48181   0.45920   0.00000  Uiso   1.00
H693   H     0.60024   0.14821   0.43051   0.00000  Uiso   1.00
H694   H     0.67369   0.13080   0.05666   0.00000  Uiso   1.00
H695   H     0.72552   0.40684   0.90332   0.00000  Uiso   1.00
H696   H     0.74846   0.07366   0.11340   0.00000  Uiso   1.00
H697   H     0.67907   0.09165   0.11971   0.00000  Uiso   1.00
H698   H     0.70146   0.06598   0.15674   0.00000  Uiso   1.00
H699   H     0.67393   0.04264   0.12072   0.00000  Uiso   1.00
H700   H     0.55757   0.21023   0.87179   0.00000  Uiso   1.00
H701   H     0.55294   0.14675   0.88498   0.00000  Uiso   1.00
H702   H     0.50661   0.16386   0.88445   0.00000  Uiso   1.00
H703   H     0.53000   0.15635   0.93002   0.00000  Uiso   1.00
H704   H     0.93930   0.28195   0.12973   0.00000  Uiso   1.00
H705   H     0.63383   0.21979   0.92220   0.00000  Uiso   1.00
H706   H     0.88610   0.24935   0.11475   0.00000  Uiso   1.00
H707   H     0.92329   0.21680   0.11107   0.00000  Uiso   1.00
H708   H     0.90427   0.23742   0.06789   0.00000  Uiso   1.00
H709   H     0.91585   0.35848   0.07781   0.00000  Uiso   1.00
H710   H     0.64053   0.07919   0.91735   0.00000  Uiso   1.00
H711   H     0.75394   0.36135   0.07801   0.00000  Uiso   1.00
H712   H     0.86791   0.29036   0.92712   0.00000  Uiso   1.00
H713   H     0.60064   0.14877   0.06990   0.00000  Uiso   1.00
H714   H     0.65460   0.41050   0.12131   0.00000  Uiso   1.00
H715   H     0.84787   0.08903   0.87861   0.00000  Uiso   1.00
H716   H     0.50502   0.11485   0.29741   0.00000  Uiso   1.00
H717   H     0.95982   0.38230   0.57267   0.00000  Uiso   1.00
H718   H     0.99448   0.38730   0.70228   0.00000  Uiso   1.00
H719   H     0.83244   0.06963   0.13420   0.00000  Uiso   1.00
H720   H     0.66397   0.43171   0.86626   0.00000  Uiso   1.00
H721   H     0.99359   0.38593   0.30055   0.00000  Uiso   1.00
H722   H     0.50608   0.11280   0.70064   0.00000  Uiso   1.00
H723   H     0.61569   0.00488   0.70214   0.00000  Uiso   1.00
H724   H     0.88600   0.49404   0.29971   0.00000  Uiso   1.00
H725   H     0.58738   0.34757   0.87838   0.00000  Uiso   1.00
H726   H     0.90947   0.15347   0.12138   0.00000  Uiso   1.00
H727   H     0.88498   0.49533   0.70311   0.00000  Uiso   1.00
H728   H     0.88383   0.47049   0.42417   0.00000  Uiso   1.00
H729   H     0.61442   0.00543   0.29853   0.00000  Uiso   1.00
H730   H     0.93134   0.16603   0.86593   0.00000  Uiso   1.00
H731   H     0.56833   0.33678   0.13345   0.00000  Uiso   1.00
H732   H     0.90367   0.16178   0.62161   0.00000  Uiso   1.00
H733   H     0.59648   0.34037   0.37856   0.00000  Uiso   1.00
H734   H     0.75437   0.36440   0.79565   0.00000  Uiso   1.00
H735   H     0.74445   0.13621   0.20157   0.00000  Uiso   1.00
H736   H     0.59733   0.33762   0.62167   0.00000  Uiso   1.00
H737   H     0.91323   0.18163   0.36655   0.00000  Uiso   1.00
H738   H     0.74395   0.13602   0.79955   0.00000  Uiso   1.00
H739   H     0.65284   0.10343   0.57053   0.00000  Uiso   1.00
H740   H     0.75622   0.36374   0.20000   0.00000  Uiso   1.00
H741   H     0.86438   0.25627   0.19947   0.00000  Uiso   1.00
H742   H     0.63599   0.24440   0.79873   0.00000  Uiso   1.00
H743   H     0.83885   0.09595   0.37856   0.00000  Uiso   1.00
H744   H     0.68193   0.41198   0.63336   0.00000  Uiso   1.00
H745   H     0.63478   0.24524   0.20263   0.00000  Uiso   1.00
H746   H     0.86392   0.25505   0.79744   0.00000  Uiso   1.00
H747   H     0.68077   0.41685   0.36583   0.00000  Uiso   1.00
H748   H     0.81766   0.08807   0.63346   0.00000  Uiso   1.00
H749   H     0.96813   0.31080   0.37020   0.00000  Uiso   1.00
H750   H     0.89167   0.33445   0.42203   0.00000  Uiso   1.00
H751   H     0.50078   0.36402   0.38519   0.00000  Uiso   1.00
H752   H     0.53323   0.32673   0.38885   0.00000  Uiso   1.00
H753   H     0.51271   0.34577   0.43204   0.00000  Uiso   1.00
H754   H     0.53945   0.19225   0.62832   0.00000  Uiso   1.00
H755   H     0.60285   0.19654   0.61501   0.00000  Uiso   1.00
H756   H     0.58599   0.24301   0.61536   0.00000  Uiso   1.00
H757   H     0.59327   0.21942   0.56989   0.00000  Uiso   1.00
H758   H     0.69168   0.03840   0.37150   0.00000  Uiso   1.00
H759   H     0.69458   0.10218   0.38352   0.00000  Uiso   1.00
H760   H     0.74137   0.08638   0.38293   0.00000  Uiso   1.00
H761   H     0.52912   0.11590   0.57814   0.00000  Uiso   1.00
H762   H     0.71813   0.09393   0.42852   0.00000  Uiso   1.00
H763   H     0.80688   0.45670   0.62666   0.00000  Uiso   1.00
H764   H     0.86192   0.49202   0.62511   0.00000  Uiso   1.00
H765   H     0.82379   0.02176   0.63541   0.00000  Uiso   1.00
H766   H     0.84288   0.01972   0.58688   0.00000  Uiso   1.00
H767   H     0.54366   0.19297   0.37369   0.00000  Uiso   1.00
H768   H     0.50863   0.13740   0.37343   0.00000  Uiso   1.00
H769   H     0.97954   0.17568   0.36163   0.00000  Uiso   1.00
H770   H     0.97923   0.15638   0.41016   0.00000  Uiso   1.00
H771   H     0.95965   0.30742   0.62797   0.00000  Uiso   1.00
H772   H     0.61606   0.02900   0.42401   0.00000  Uiso   1.00
H773   H     0.89576   0.30172   0.61804   0.00000  Uiso   1.00
H774   H     0.91328   0.25552   0.61939   0.00000  Uiso   1.00
H775   H     0.90368   0.27733   0.57349   0.00000  Uiso   1.00
H776   H     0.80824   0.46145   0.37160   0.00000  Uiso   1.00
H777   H     0.80517   0.39765   0.38358   0.00000  Uiso   1.00
H778   H     0.75843   0.41357   0.38286   0.00000  Uiso   1.00
H779   H     0.78155   0.40589   0.42852   0.00000  Uiso   1.00
H780   H     0.69315   0.04336   0.62657   0.00000  Uiso   1.00
H781   H     0.63807   0.00805   0.62503   0.00000  Uiso   1.00
H782   H     0.67620   0.47835   0.63552   0.00000  Uiso   1.00
H783   H     0.84689   0.39639   0.57086   0.00000  Uiso   1.00
H784   H     0.65716   0.48027   0.58695   0.00000  Uiso   1.00
H785   H     0.72146   0.06181   0.87061   0.00000  Uiso   1.00
H786   H     0.75232   0.11479   0.89028   0.00000  Uiso   1.00
H787   H     0.78487   0.07769   0.89438   0.00000  Uiso   1.00
H788   H     0.76159   0.09480   0.93699   0.00000  Uiso   1.00
H789   H     0.77565   0.43655   0.13024   0.00000  Uiso   1.00
H790   H     0.83849   0.42718   0.11654   0.00000  Uiso   1.00
H791   H     0.83096   0.47598   0.11595   0.00000  Uiso   1.00
H792   H     0.83351   0.45070   0.07098   0.00000  Uiso   1.00
H793   H     0.94275   0.29055   0.87199   0.00000  Uiso   1.00
H794   H     0.83621   0.38323   0.93572   0.00000  Uiso   1.00
H795   H     0.94875   0.35447   0.88193   0.00000  Uiso   1.00
H796   H     0.99483   0.33674   0.88067   0.00000  Uiso   1.00
H797   H     0.97303   0.34640   0.92654   0.00000  Uiso   1.00
H798   H     0.55696   0.20626   0.12646   0.00000  Uiso   1.00
H799   H     0.61252   0.24119   0.12644   0.00000  Uiso   1.00
H800   H     0.57438   0.27048   0.13806   0.00000  Uiso   1.00
H801   H     0.59360   0.27047   0.08952   0.00000  Uiso   1.00
H802   H     0.79407   0.44287   0.87558   0.00000  Uiso   1.00
H803   H     0.75838   0.38736   0.87042   0.00000  Uiso   1.00
H804   H     0.73196   0.42655   0.85551   0.00000  Uiso   1.00
N805   N     0.97840   0.31271   0.39790   0.00000  Uiso   1.00
N806   N     0.78501   0.44356   0.10308   0.00000  Uiso   1.00
N807   N     0.95410   0.29931   0.89767   0.00000  Uiso   1.00
N808   N     0.56212   0.22438   0.10430   0.00000  Uiso   1.00
N809   N     0.77404   0.43691   0.89554   0.00000  Uiso   1.00
N810   N     0.72535   0.06245   0.10125   0.00000  Uiso   1.00
N811   N     0.54724   0.20240   0.89828   0.00000  Uiso   1.00
N812   N     0.93739   0.27167   0.10203   0.00000  Uiso   1.00
N813   N     0.54725   0.20249   0.60177   0.00000  Uiso   1.00
N814   N     0.70193   0.04690   0.39779   0.00000  Uiso   1.00
N815   N     0.81147   0.47429   0.60388   0.00000  Uiso   1.00
N816   N     0.52544   0.18778   0.39574   0.00000  Uiso   1.00
N817   N     0.95082   0.29611   0.60230   0.00000  Uiso   1.00
N818   N     0.79793   0.45292   0.39786   0.00000  Uiso   1.00
N819   N     0.68854   0.02575   0.60383   0.00000  Uiso   1.00
N820   N     0.72972   0.06287   0.89911   0.00000  Uiso   1.00
O821   O     0.75000   0.00000   0.25000   0.00000  Uiso   1.00
O822   O     0.75000   0.46964   0.66245   0.00000  Uiso   1.00
O823   O     0.53241   0.12079   0.70330   0.00000  Uiso   1.00
O824   O     0.58353   0.03288   0.75511   0.00000  Uiso   1.00
O825   O     0.62369   0.03123   0.70499   0.00000  Uiso   1.00
O826   O     0.91513   0.46749   0.24407   0.00000  Uiso   1.00
O827   O     0.87776   0.46781   0.29661   0.00000  Uiso   1.00
O828   O     0.60223   0.30778   0.82536   0.00000  Uiso   1.00
O829   O     0.59426   0.36268   0.85488   0.00000  Uiso   1.00
O830   O     0.89690   0.19285   0.17567   0.00000  Uiso   1.00
O831   O     0.90325   0.13826   0.14498   0.00000  Uiso   1.00
O832   O     0.91599   0.46718   0.75681   0.00000  Uiso   1.00
O833   O     0.96964   0.25000   0.33755   0.00000  Uiso   1.00
O834   O     0.87702   0.46894   0.70562   0.00000  Uiso   1.00
O835   O     0.58525   0.03234   0.24298   0.00000  Uiso   1.00
O836   O     0.62216   0.03187   0.29592   0.00000  Uiso   1.00
O837   O     0.87477   0.18305   0.83521   0.00000  Uiso   1.00
O838   O     0.92790   0.15115   0.84143   0.00000  Uiso   1.00
O839   O     0.62529   0.31884   0.16305   0.00000  Uiso   1.00
O840   O     0.57155   0.35008   0.15897   0.00000  Uiso   1.00
O841   O     0.94287   0.14709   0.67518   0.00000  Uiso   1.00
O842   O     0.88833   0.15505   0.64499   0.00000  Uiso   1.00
O843   O     0.55719   0.35327   0.32426   0.00000  Uiso   1.00
O844   O     0.53037   0.25000   0.66245   0.00000  Uiso   1.00
O845   O     0.61170   0.34656   0.35497   0.00000  Uiso   1.00
O846   O     0.78300   0.33405   0.74188   0.00000  Uiso   1.00
O847   O     0.78077   0.37234   0.79362   0.00000  Uiso   1.00
O848   O     0.71760   0.16458   0.25759   0.00000  Uiso   1.00
O849   O     0.71802   0.12848   0.20403   0.00000  Uiso   1.00
O850   O     0.55775   0.35265   0.67479   0.00000  Uiso   1.00
O851   O     0.61250   0.34435   0.64516   0.00000  Uiso   1.00
O852   O     0.93111   0.12465   0.33693   0.00000  Uiso   1.00
O853   O     0.89992   0.17845   0.34103   0.00000  Uiso   1.00
O854   O     0.71748   0.16508   0.74372   0.00000  Uiso   1.00
O855   O     0.50000   0.21963   0.83755   0.00000  Uiso   1.00
O856   O     0.71770   0.12789   0.79648   0.00000  Uiso   1.00
O857   O     0.78253   0.33501   0.25607   0.00000  Uiso   1.00
O858   O     0.78243   0.37197   0.20313   0.00000  Uiso   1.00
O859   O     0.83474   0.28244   0.25503   0.00000  Uiso   1.00
O860   O     0.87262   0.28246   0.20290   0.00000  Uiso   1.00
O861   O     0.66516   0.21742   0.74333   0.00000  Uiso   1.00
O862   O     0.62784   0.21810   0.79591   0.00000  Uiso   1.00
O863   O     0.85280   0.05679   0.32476   0.00000  Uiso   1.00
O864   O     0.84558   0.11133   0.35520   0.00000  Uiso   1.00
O865   O     0.62574   0.43148   0.66349   0.00000  Uiso   1.00
O866   O     0.50000   0.28037   0.16245   0.00000  Uiso   1.00
O867   O     0.67850   0.39865   0.65885   0.00000  Uiso   1.00
O868   O     0.66598   0.21722   0.25627   0.00000  Uiso   1.00
O869   O     0.62687   0.21884   0.20520   0.00000  Uiso   1.00
O870   O     0.83543   0.28231   0.74168   0.00000  Uiso   1.00
O871   O     0.87164   0.28153   0.79516   0.00000  Uiso   1.00
O872   O     0.62420   0.43339   0.33481   0.00000  Uiso   1.00
O873   O     0.67749   0.40183   0.34140   0.00000  Uiso   1.00
O874   O     0.87429   0.06909   0.66306   0.00000  Uiso   1.00
O875   O     0.82110   0.10128   0.65900   0.00000  Uiso   1.00
O876   O     0.78037   0.00000   0.83755   0.00000  Uiso   1.00
O877   O     0.71964   0.00000   0.16245   0.00000  Uiso   1.00
O878   O     0.50000   0.28037   0.83755   0.00000  Uiso   1.00
O879   O     0.50000   0.21964   0.16245   0.00000  Uiso   1.00
O880   O     0.71964   0.00000   0.83755   0.00000  Uiso   1.00
O881   O     0.75000   0.00000   0.75000   0.00000  Uiso   1.00
O882   O     0.78037   0.00000   0.16245   0.00000  Uiso   1.00
O883   O     0.70725   0.07308   0.27302   0.00000  Uiso   1.00
O884   O     0.79276   0.42693   0.72698   0.00000  Uiso   1.00
O885   O     0.92693   0.20725   0.27302   0.00000  Uiso   1.00
O886   O     0.57308   0.29275   0.72698   0.00000  Uiso   1.00
O887   O     0.79276   0.42693   0.27302   0.00000  Uiso   1.00
O888   O     0.70725   0.07308   0.72698   0.00000  Uiso   1.00
O889   O     0.57308   0.29275   0.27302   0.00000  Uiso   1.00
O890   O     0.92693   0.20725   0.72698   0.00000  Uiso   1.00
O891   O     0.70725   0.42693   0.72698   0.00000  Uiso   1.00
O892   O     0.50000   0.25000   0.25000   0.00000  Uiso   1.00
O893   O     0.79276   0.07308   0.27302   0.00000  Uiso   1.00
O894   O     0.92693   0.29276   0.72698   0.00000  Uiso   1.00
O895   O     0.57308   0.20725   0.27302   0.00000  Uiso   1.00
O896   O     0.79276   0.07308   0.72698   0.00000  Uiso   1.00
O897   O     0.70725   0.42693   0.27302   0.00000  Uiso   1.00
O898   O     0.57308   0.20725   0.72698   0.00000  Uiso   1.00
O899   O     0.92693   0.29276   0.27302   0.00000  Uiso   1.00
O900   O     0.95725   0.32308   0.77302   0.00000  Uiso   1.00
O901   O     0.54276   0.17692   0.22698   0.00000  Uiso   1.00
O902   O     0.67693   0.45725   0.77302   0.00000  Uiso   1.00
O903   O     0.50000   0.25000   0.75000   0.00000  Uiso   1.00
O904   O     0.82308   0.04276   0.22698   0.00000  Uiso   1.00
O905   O     0.54276   0.17692   0.77302   0.00000  Uiso   1.00
O906   O     0.95725   0.32308   0.22698   0.00000  Uiso   1.00
O907   O     0.82308   0.04276   0.77302   0.00000  Uiso   1.00
O908   O     0.67693   0.45725   0.22698   0.00000  Uiso   1.00
O909   O     0.95725   0.17693   0.22698   0.00000  Uiso   1.00
O910   O     0.54276   0.32307   0.77302   0.00000  Uiso   1.00
O911   O     0.67693   0.04276   0.22698   0.00000  Uiso   1.00
O912   O     0.82308   0.45725   0.77302   0.00000  Uiso   1.00
O913   O     0.54276   0.32307   0.22698   0.00000  Uiso   1.00
O914   O     0.75000   0.46964   0.33755   0.00000  Uiso   1.00
O915   O     0.95725   0.17693   0.77302   0.00000  Uiso   1.00
O916   O     0.82308   0.45725   0.22698   0.00000  Uiso   1.00
O917   O     0.67693   0.04276   0.77302   0.00000  Uiso   1.00
O918   O     0.54366   0.12993   0.45995   0.00000  Uiso   1.00
O919   O     0.58795   0.17021   0.44280   0.00000  Uiso   1.00
O920   O     0.91551   0.34696   0.53774   0.00000  Uiso   1.00
O921   O     0.97224   0.36047   0.56019   0.00000  Uiso   1.00
O922   O     0.85391   0.42407   0.46169   0.00000  Uiso   1.00
O923   O     0.86130   0.48118   0.43699   0.00000  Uiso   1.00
O924   O     0.63221   0.04809   0.54017   0.00000  Uiso   1.00
O925   O     0.75000   0.03037   0.66245   0.00000  Uiso   1.00
O926   O     0.67431   0.09036   0.55811   0.00000  Uiso   1.00
O927   O     0.93855   0.36225   0.46064   0.00000  Uiso   1.00
O928   O     0.90688   0.31474   0.43504   0.00000  Uiso   1.00
O929   O     0.57450   0.14480   0.53841   0.00000  Uiso   1.00
O930   O     0.51817   0.13823   0.56511   0.00000  Uiso   1.00
O931   O     0.64578   0.07552   0.46152   0.00000  Uiso   1.00
O932   O     0.63863   0.01839   0.43685   0.00000  Uiso   1.00
O933   O     0.86765   0.45160   0.54028   0.00000  Uiso   1.00
O934   O     0.82545   0.40950   0.55840   0.00000  Uiso   1.00
O935   O     0.77480   0.37438   0.95852   0.00000  Uiso   1.00
O936   O     0.53037   0.25000   0.33755   0.00000  Uiso   1.00
O937   O     0.82681   0.40665   0.94791   0.00000  Uiso   1.00
O938   O     0.65171   0.06933   0.04851   0.00000  Uiso   1.00
O939   O     0.69329   0.11520   0.04403   0.00000  Uiso   1.00
O940   O     0.60449   0.17453   0.96178   0.00000  Uiso   1.00
O941   O     0.61158   0.23091   0.93518   0.00000  Uiso   1.00
O942   O     0.88796   0.31164   0.03919   0.00000  Uiso   1.00
O943   O     0.93550   0.34322   0.06480   0.00000  Uiso   1.00
O944   O     0.68110   0.10898   0.96184   0.00000  Uiso   1.00
O945   O     0.65660   0.06028   0.93054   0.00000  Uiso   1.00
O946   O     0.80419   0.38236   0.03931   0.00000  Uiso   1.00
O947   O     0.96964   0.25000   0.66245   0.00000  Uiso   1.00
O948   O     0.74710   0.38526   0.06499   0.00000  Uiso   1.00
O949   O     0.90328   0.33463   0.96208   0.00000  Uiso   1.00
O950   O     0.88969   0.27788   0.93963   0.00000  Uiso   1.00
O951   O     0.61956   0.20507   0.04018   0.00000  Uiso   1.00
O952   O     0.57880   0.16130   0.05757   0.00000  Uiso   1.00
O953   O     0.69344   0.39700   0.17548   0.00000  Uiso   1.00
O954   O     0.63911   0.40394   0.14462   0.00000  Uiso   1.00
O955   O     0.80784   0.10233   0.82508   0.00000  Uiso   1.00
O956   O     0.86277   0.09567   0.85493   0.00000  Uiso   1.00
O957   O     0.53286   0.08415   0.24338   0.00000  Uiso   1.00
O958   O     0.75000   0.03037   0.33755   0.00000  Uiso   1.00
O959   O     0.53140   0.12276   0.29489   0.00000  Uiso   1.00
O960   O     0.96754   0.41428   0.75897   0.00000  Uiso   1.00
O961   O     0.96812   0.37929   0.70458   0.00000  Uiso   1.00
O962   O     0.81637   0.12625   0.16539   0.00000  Uiso   1.00
O963   O     0.84761   0.07278   0.15854   0.00000  Uiso   1.00
O964   O     0.68078   0.37429   0.83694   0.00000  Uiso   1.00
O965   O     0.65041   0.42856   0.84088   0.00000  Uiso   1.00
O966   O     0.96753   0.41512   0.24459   0.00000  Uiso   1.00
O967   O     0.96740   0.37771   0.29718   0.00000  Uiso   1.00
O968   O     0.53222   0.08603   0.75791   0.00000  Uiso   1.00
Zn969  Zn    0.70660   0.00000   0.21735   0.00000  Uiso   1.00
Zn970  Zn    0.54341   0.25000   0.28265   0.00000  Uiso   1.00
Zn971  Zn    0.75000   0.45660   0.71735   0.00000  Uiso   1.00
Zn972  Zn    0.75000   0.04341   0.28265   0.00000  Uiso   1.00
Zn973  Zn    0.54341   0.25000   0.71735   0.00000  Uiso   1.00
Zn974  Zn    0.95660   0.25000   0.28265   0.00000  Uiso   1.00
Zn975  Zn    0.75000   0.04341   0.71735   0.00000  Uiso   1.00
Zn976  Zn    0.75000   0.45660   0.28265   0.00000  Uiso   1.00
Zn977  Zn    0.79341   0.00000   0.78265   0.00000  Uiso   1.00
Zn978  Zn    0.50000   0.20660   0.21735   0.00000  Uiso   1.00
Zn979  Zn    0.50000   0.29340   0.78265   0.00000  Uiso   1.00
Zn980  Zn    0.79341   0.00000   0.21735   0.00000  Uiso   1.00
Zn981  Zn    0.70660   0.00000   0.78265   0.00000  Uiso   1.00
Zn982  Zn    0.50000   0.29340   0.21735   0.00000  Uiso   1.00
Zn983  Zn    0.50000   0.20660   0.78265   0.00000  Uiso   1.00
Zn984  Zn    0.95660   0.25000   0.71735   0.00000  Uiso   1.00
C985   C     0.48489   0.77908   0.41793   0.00000  Uiso   1.00
C986   C     0.26344   0.96956   0.08215   0.00000  Uiso   1.00
C987   C     0.22075   0.51726   0.54137   0.00000  Uiso   1.00
C988   C     0.48022   0.77685   0.45852   0.00000  Uiso   1.00
C989   C     0.01663   0.72043   0.54087   0.00000  Uiso   1.00
C990   C     0.22148   0.51800   0.45916   0.00000  Uiso   1.00
C991   C     0.27918   0.98265   0.54141   0.00000  Uiso   1.00
C992   C     0.25997   0.96580   0.95900   0.00000  Uiso   1.00
C993   C     0.22718   0.52614   0.04074   0.00000  Uiso   1.00
C994   C     0.02939   0.73302   0.95918   0.00000  Uiso   1.00
C995   C     0.47318   0.76973   0.04144   0.00000  Uiso   1.00
C996   C     0.22840   0.52559   0.95872   0.00000  Uiso   1.00
C997   C     0.47592   0.77346   0.91847   0.00000  Uiso   1.00
C998   C     0.25871   0.96630   0.04148   0.00000  Uiso   1.00
C999   C     0.47365   0.77115   0.95941   0.00000  Uiso   1.00
C1000  C     0.03083   0.73419   0.04142   0.00000  Uiso   1.00
C1001  C     0.09772   0.84859   0.24977   0.00000  Uiso   1.00
C1002  C     0.40245   0.65151   0.75002   0.00000  Uiso   1.00
C1003  C     0.15194   0.59809   0.25000   0.00000  Uiso   1.00
C1004  C     0.34804   0.90190   0.74995   0.00000  Uiso   1.00
C1005  C     0.40143   0.65227   0.25019   0.00000  Uiso   1.00
C1006  C     0.09797   0.84799   0.75003   0.00000  Uiso   1.00
C1007  C     0.34807   0.90192   0.25005   0.00000  Uiso   1.00
C1008  C     0.03100   0.73591   0.08254   0.00000  Uiso   1.00
C1009  C     0.15192   0.59804   0.74989   0.00000  Uiso   1.00
C1010  C     0.09806   0.65188   0.75006   0.00000  Uiso   1.00
C1011  C     0.40194   0.84808   0.24994   0.00000  Uiso   1.00
C1012  C     0.15187   0.90180   0.75005   0.00000  Uiso   1.00
C1013  C     0.34846   0.59754   0.25007   0.00000  Uiso   1.00
C1014  C     0.40191   0.84808   0.75004   0.00000  Uiso   1.00
C1015  C     0.09808   0.65193   0.24996   0.00000  Uiso   1.00
C1016  C     0.34763   0.59865   0.74990   0.00000  Uiso   1.00
C1017  C     0.15254   0.90145   0.24993   0.00000  Uiso   1.00
C1018  C     0.49767   0.74791   0.47911   0.00000  Uiso   1.00
C1019  C     0.26125   0.96725   0.91771   0.00000  Uiso   1.00
C1020  C     0.49760   0.74818   0.52014   0.00000  Uiso   1.00
C1021  C     0.24995   0.99992   0.47980   0.00000  Uiso   1.00
C1022  C     0.24996   0.99994   0.52087   0.00000  Uiso   1.00
C1023  C     0.24353   0.99556   0.97943   0.00000  Uiso   1.00
C1024  C     0.24293   0.99587   0.02057   0.00000  Uiso   1.00
C1025  C     0.00174   0.75219   0.97986   0.00000  Uiso   1.00
C1026  C     0.00201   0.75213   0.02089   0.00000  Uiso   1.00
C1027  C     0.05476   0.66139   0.46036   0.00000  Uiso   1.00
C1028  C     0.44787   0.83871   0.53938   0.00000  Uiso   1.00
C1029  C     0.34257   0.95549   0.45933   0.00000  Uiso   1.00
C1030  C     0.23155   0.52854   0.08161   0.00000  Uiso   1.00
C1031  C     0.16410   0.55785   0.53993   0.00000  Uiso   1.00
C1032  C     0.43466   0.82915   0.45815   0.00000  Uiso   1.00
C1033  C     0.04325   0.65637   0.54149   0.00000  Uiso   1.00
C1034  C     0.15725   0.54414   0.45920   0.00000  Uiso   1.00
C1035  C     0.33573   0.94194   0.54010   0.00000  Uiso   1.00
C1036  C     0.29105   0.90335   0.96154   0.00000  Uiso   1.00
C1037  C     0.18221   0.57906   0.03865   0.00000  Uiso   1.00
C1038  C     0.09320   0.70591   0.95871   0.00000  Uiso   1.00
C1039  C     0.42103   0.81545   0.04171   0.00000  Uiso   1.00
C1040  C     0.18094   0.57589   0.95693   0.00000  Uiso   1.00
C1041  C     0.02564   0.72876   0.91857   0.00000  Uiso   1.00
C1042  C     0.27527   0.89902   0.04195   0.00000  Uiso   1.00
C1043  C     0.41146   0.80222   0.96048   0.00000  Uiso   1.00
C1044  C     0.08799   0.69435   0.03984   0.00000  Uiso   1.00
C1045  C     0.16014   0.89575   0.17735   0.00000  Uiso   1.00
C1046  C     0.34109   0.60378   0.82265   0.00000  Uiso   1.00
C1047  C     0.04928   0.60575   0.26393   0.00000  Uiso   1.00
C1048  C     0.45072   0.89437   0.73692   0.00000  Uiso   1.00
C1049  C     0.33923   0.60507   0.17831   0.00000  Uiso   1.00
C1050  C     0.15912   0.89573   0.82230   0.00000  Uiso   1.00
C1051  C     0.45049   0.89406   0.26521   0.00000  Uiso   1.00
C1052  C     0.47096   0.76513   0.08204   0.00000  Uiso   1.00
C1053  C     0.04936   0.60579   0.73597   0.00000  Uiso   1.00
C1054  C     0.10589   0.54919   0.73540   0.00000  Uiso   1.00
C1055  C     0.39408   0.95061   0.26483   0.00000  Uiso   1.00
C1056  C     0.10315   0.84109   0.82279   0.00000  Uiso   1.00
C1057  C     0.39553   0.65954   0.17765   0.00000  Uiso   1.00
C1058  C     0.39419   0.95089   0.73641   0.00000  Uiso   1.00
C1059  C     0.10596   0.54922   0.26412   0.00000  Uiso   1.00
C1060  C     0.39561   0.66007   0.82195   0.00000  Uiso   1.00
C1061  C     0.10419   0.84086   0.17762   0.00000  Uiso   1.00
C1062  C     0.40957   0.64622   0.67738   0.00000  Uiso   1.00
C1063  C     0.49983   0.74939   0.39783   0.00000  Uiso   1.00
C1064  C     0.09047   0.85446   0.32231   0.00000  Uiso   1.00
C1065  C     0.29910   0.85554   0.76283   0.00000  Uiso   1.00
C1066  C     0.20071   0.64422   0.23608   0.00000  Uiso   1.00
C1067  C     0.09104   0.85335   0.67730   0.00000  Uiso   1.00
C1068  C     0.40911   0.64580   0.32237   0.00000  Uiso   1.00
C1069  C     0.20057   0.64413   0.76457   0.00000  Uiso   1.00
C1070  C     0.29948   0.85587   0.23515   0.00000  Uiso   1.00
C1071  C     0.35602   0.79944   0.23466   0.00000  Uiso   1.00
C1072  C     0.14413   0.70068   0.76424   0.00000  Uiso   1.00
C1073  C     0.35400   0.59012   0.32268   0.00000  Uiso   1.00
C1074  C     0.49948   0.74974   0.60169   0.00000  Uiso   1.00
C1075  C     0.14628   0.90876   0.67778   0.00000  Uiso   1.00
C1076  C     0.14415   0.70086   0.23595   0.00000  Uiso   1.00
C1077  C     0.35582   0.79909   0.76326   0.00000  Uiso   1.00
C1078  C     0.14523   0.91048   0.32174   0.00000  Uiso   1.00
C1079  C     0.35358   0.59146   0.67764   0.00000  Uiso   1.00
C1080  C     0.00788   0.83862   0.40118   0.00000  Uiso   1.00
C1081  C     0.08421   0.71621   0.60042   0.00000  Uiso   1.00
C1082  C     0.21481   0.58423   0.39823   0.00000  Uiso   1.00
C1083  C     0.33620   0.50363   0.61325   0.00000  Uiso   1.00
C1084  C     0.49654   0.66314   0.38472   0.00000  Uiso   1.00
C1085  C     0.24997   0.99995   0.39822   0.00000  Uiso   1.00
C1086  C     0.41404   0.78181   0.60336   0.00000  Uiso   1.00
C1087  C     0.28497   0.91563   0.39825   0.00000  Uiso   1.00
C1088  C     0.16381   0.99642   0.61327   0.00000  Uiso   1.00
C1089  C     0.25871   0.58883   0.90558   0.00000  Uiso   1.00
C1090  C     0.32398   0.94982   0.10152   0.00000  Uiso   1.00
C1091  C     0.46855   0.83607   0.89665   0.00000  Uiso   1.00
C1092  C     0.08683   0.75330   0.11509   0.00000  Uiso   1.00
C1093  C     0.24585   0.91334   0.88045   0.00000  Uiso   1.00
C1094  C     0.19329   0.56546   0.12578   0.00000  Uiso   1.00
C1095  C     0.03334   0.66547   0.89951   0.00000  Uiso   1.00
C1096  C     0.02098   0.72420   0.58147   0.00000  Uiso   1.00
C1097  C     0.25000   0.50002   0.60219   0.00000  Uiso   1.00
C1098  C     0.41144   0.74221   0.09875   0.00000  Uiso   1.00
C1099  C     0.24953   0.99891   0.89816   0.00000  Uiso   1.00
C1100  C     0.24896   0.99993   0.10177   0.00000  Uiso   1.00
C1101  C     0.00025   0.75044   0.89832   0.00000  Uiso   1.00
C1102  C     0.00062   0.75017   0.10217   0.00000  Uiso   1.00
C1103  C     0.03309   0.69049   0.47983   0.00000  Uiso   1.00
C1104  C     0.46157   0.80520   0.51959   0.00000  Uiso   1.00
C1105  C     0.30843   0.96661   0.47976   0.00000  Uiso   1.00
C1106  C     0.19233   0.53512   0.52033   0.00000  Uiso   1.00
C1107  C     0.45995   0.80382   0.47893   0.00000  Uiso   1.00
C1108  C     0.22441   0.52146   0.41838   0.00000  Uiso   1.00
C1109  C     0.03172   0.69017   0.52057   0.00000  Uiso   1.00
C1110  C     0.19143   0.53316   0.47967   0.00000  Uiso   1.00
C1111  C     0.30755   0.96470   0.52043   0.00000  Uiso   1.00
C1112  C     0.27308   0.93508   0.98048   0.00000  Uiso   1.00
C1113  C     0.20704   0.55271   0.01936   0.00000  Uiso   1.00
C1114  C     0.05950   0.71771   0.97954   0.00000  Uiso   1.00
C1115  C     0.44627   0.79007   0.02098   0.00000  Uiso   1.00
C1116  C     0.20698   0.55190   0.97859   0.00000  Uiso   1.00
C1117  C     0.26988   0.93440   0.02118   0.00000  Uiso   1.00
C1118  C     0.44489   0.78843   0.98032   0.00000  Uiso   1.00
C1119  C     0.27988   0.98506   0.58241   0.00000  Uiso   1.00
C1120  C     0.05916   0.71634   0.02029   0.00000  Uiso   1.00
C1121  C     0.25000   0.99999   0.35583   0.00000  Uiso   1.00
C1122  C     0.25000   0.50001   0.64433   0.00000  Uiso   1.00
C1123  C     0.00001   0.74993   0.35568   0.00000  Uiso   1.00
C1124  C     0.49993   0.75006   0.64414   0.00000  Uiso   1.00
C1125  C     0.49995   0.75005   0.85587   0.00000  Uiso   1.00
C1126  C     0.00009   0.74999   0.14431   0.00000  Uiso   1.00
C1127  C     0.25000   0.99994   0.85580   0.00000  Uiso   1.00
C1128  C     0.24990   0.50077   0.14417   0.00000  Uiso   1.00
C1129  C     0.18007   0.56996   0.24999   0.00000  Uiso   1.00
C1130  C     0.01391   0.71890   0.41750   0.00000  Uiso   1.00
C1131  C     0.31992   0.93004   0.75001   0.00000  Uiso   1.00
C1132  C     0.43008   0.67991   0.25025   0.00000  Uiso   1.00
C1133  C     0.06993   0.81995   0.75001   0.00000  Uiso   1.00
C1134  C     0.31994   0.93005   0.25002   0.00000  Uiso   1.00
C1135  C     0.18007   0.56995   0.74999   0.00000  Uiso   1.00
C1136  C     0.07008   0.81993   0.24973   0.00000  Uiso   1.00
C1137  C     0.43003   0.68005   0.75015   0.00000  Uiso   1.00
C1138  C     0.18002   0.92996   0.75004   0.00000  Uiso   1.00
C1139  C     0.31994   0.56996   0.24990   0.00000  Uiso   1.00
C1140  C     0.43006   0.81996   0.75000   0.00000  Uiso   1.00
C1141  C     0.47653   0.77416   0.58151   0.00000  Uiso   1.00
C1142  C     0.06995   0.68006   0.24999   0.00000  Uiso   1.00
C1143  C     0.32004   0.56997   0.74980   0.00000  Uiso   1.00
C1144  C     0.18006   0.93003   0.25011   0.00000  Uiso   1.00
C1145  C     0.06993   0.68003   0.75000   0.00000  Uiso   1.00
C1146  C     0.43006   0.81995   0.24998   0.00000  Uiso   1.00
C1147  C     0.14192   0.88545   0.21446   0.00000  Uiso   1.00
C1148  C     0.35864   0.61442   0.78540   0.00000  Uiso   1.00
C1149  C     0.08796   0.61509   0.25533   0.00000  Uiso   1.00
C1150  C     0.41203   0.88496   0.74510   0.00000  Uiso   1.00
C1151  C     0.35870   0.61412   0.21479   0.00000  Uiso   1.00
C1152  C     0.27548   0.97839   0.41841   0.00000  Uiso   1.00
C1153  C     0.14074   0.88600   0.78547   0.00000  Uiso   1.00
C1154  C     0.41199   0.88483   0.25581   0.00000  Uiso   1.00
C1155  C     0.08798   0.61507   0.74461   0.00000  Uiso   1.00
C1156  C     0.11516   0.58787   0.74436   0.00000  Uiso   1.00
C1157  C     0.38481   0.91202   0.25577   0.00000  Uiso   1.00
C1158  C     0.11389   0.85876   0.78553   0.00000  Uiso   1.00
C1159  C     0.38533   0.64156   0.21477   0.00000  Uiso   1.00
C1160  C     0.38485   0.91214   0.74493   0.00000  Uiso   1.00
C1161  C     0.11516   0.58792   0.25535   0.00000  Uiso   1.00
C1162  C     0.38614   0.64100   0.78536   0.00000  Uiso   1.00
C1163  C     0.22011   0.51495   0.58238   0.00000  Uiso   1.00
C1164  C     0.11412   0.85915   0.21443   0.00000  Uiso   1.00
C1165  C     0.39157   0.63575   0.71453   0.00000  Uiso   1.00
C1166  C     0.10847   0.86463   0.28520   0.00000  Uiso   1.00
C1167  C     0.33788   0.86501   0.75487   0.00000  Uiso   1.00
C1168  C     0.16205   0.63492   0.24466   0.00000  Uiso   1.00
C1169  C     0.10881   0.86392   0.71455   0.00000  Uiso   1.00
C1170  C     0.39081   0.63592   0.28555   0.00000  Uiso   1.00
C1171  C     0.16200   0.63484   0.75549   0.00000  Uiso   1.00
C1172  C     0.33802   0.86515   0.24425   0.00000  Uiso   1.00
C1173  C     0.36522   0.83798   0.24410   0.00000  Uiso   1.00
C1174  C     0.23488   0.52865   0.91847   0.00000  Uiso   1.00
C1175  C     0.13483   0.66203   0.75547   0.00000  Uiso   1.00
C1176  C     0.36444   0.60819   0.28554   0.00000  Uiso   1.00
C1177  C     0.13614   0.89066   0.71463   0.00000  Uiso   1.00
C1178  C     0.13487   0.66212   0.24459   0.00000  Uiso   1.00
C1179  C     0.36509   0.83785   0.75493   0.00000  Uiso   1.00
C1180  C     0.13599   0.89118   0.28521   0.00000  Uiso   1.00
C1181  C     0.36376   0.60948   0.71452   0.00000  Uiso   1.00
C1182  C     0.01549   0.71899   0.45863   0.00000  Uiso   1.00
C1183  C     0.47878   0.77638   0.54056   0.00000  Uiso   1.00
C1184  C     0.27840   0.98181   0.45920   0.00000  Uiso   1.00
H1185  H     0.10024   0.64821   0.43051   0.00000  Uiso   1.00
H1186  H     0.17369   0.63080   0.05666   0.00000  Uiso   1.00
H1187  H     0.22552   0.90684   0.90332   0.00000  Uiso   1.00
H1188  H     0.24846   0.57366   0.11340   0.00000  Uiso   1.00
H1189  H     0.17907   0.59165   0.11971   0.00000  Uiso   1.00
H1190  H     0.20146   0.56598   0.15674   0.00000  Uiso   1.00
H1191  H     0.17393   0.54264   0.12072   0.00000  Uiso   1.00
H1192  H     0.05757   0.71023   0.87179   0.00000  Uiso   1.00
H1193  H     0.05294   0.64675   0.88498   0.00000  Uiso   1.00
H1194  H     0.00661   0.66386   0.88445   0.00000  Uiso   1.00
H1195  H     0.03000   0.65635   0.93002   0.00000  Uiso   1.00
H1196  H     0.43930   0.78195   0.12973   0.00000  Uiso   1.00
H1197  H     0.13383   0.71979   0.92220   0.00000  Uiso   1.00
H1198  H     0.38610   0.74935   0.11475   0.00000  Uiso   1.00
H1199  H     0.42329   0.71680   0.11107   0.00000  Uiso   1.00
H1200  H     0.40427   0.73742   0.06789   0.00000  Uiso   1.00
H1201  H     0.41585   0.85848   0.07781   0.00000  Uiso   1.00
H1202  H     0.14053   0.57919   0.91735   0.00000  Uiso   1.00
H1203  H     0.25394   0.86135   0.07801   0.00000  Uiso   1.00
H1204  H     0.36791   0.79036   0.92712   0.00000  Uiso   1.00
H1205  H     0.10064   0.64877   0.06990   0.00000  Uiso   1.00
H1206  H     0.15460   0.91050   0.12131   0.00000  Uiso   1.00
H1207  H     0.34787   0.58903   0.87861   0.00000  Uiso   1.00
H1208  H     0.00502   0.61485   0.29741   0.00000  Uiso   1.00
H1209  H     0.45982   0.88230   0.57267   0.00000  Uiso   1.00
H1210  H     0.49448   0.88730   0.70228   0.00000  Uiso   1.00
H1211  H     0.33244   0.56963   0.13420   0.00000  Uiso   1.00
H1212  H     0.16397   0.93171   0.86626   0.00000  Uiso   1.00
H1213  H     0.49359   0.88593   0.30055   0.00000  Uiso   1.00
H1214  H     0.00608   0.61280   0.70064   0.00000  Uiso   1.00
H1215  H     0.11569   0.50488   0.70214   0.00000  Uiso   1.00
H1216  H     0.38600   0.99404   0.29971   0.00000  Uiso   1.00
H1217  H     0.08738   0.84757   0.87838   0.00000  Uiso   1.00
H1218  H     0.40947   0.65347   0.12138   0.00000  Uiso   1.00
H1219  H     0.38498   0.99533   0.70311   0.00000  Uiso   1.00
H1220  H     0.38383   0.97049   0.42417   0.00000  Uiso   1.00
H1221  H     0.11442   0.50543   0.29853   0.00000  Uiso   1.00
H1222  H     0.43134   0.66603   0.86593   0.00000  Uiso   1.00
H1223  H     0.06833   0.83678   0.13345   0.00000  Uiso   1.00
H1224  H     0.40367   0.66178   0.62161   0.00000  Uiso   1.00
H1225  H     0.09648   0.84037   0.37856   0.00000  Uiso   1.00
H1226  H     0.25437   0.86440   0.79565   0.00000  Uiso   1.00
H1227  H     0.24445   0.63621   0.20157   0.00000  Uiso   1.00
H1228  H     0.09733   0.83762   0.62167   0.00000  Uiso   1.00
H1229  H     0.41323   0.68163   0.36655   0.00000  Uiso   1.00
H1230  H     0.24395   0.63602   0.79955   0.00000  Uiso   1.00
H1231  H     0.15284   0.60343   0.57053   0.00000  Uiso   1.00
H1232  H     0.25622   0.86374   0.20000   0.00000  Uiso   1.00
H1233  H     0.36438   0.75627   0.19947   0.00000  Uiso   1.00
H1234  H     0.13599   0.74440   0.79873   0.00000  Uiso   1.00
H1235  H     0.33885   0.59595   0.37856   0.00000  Uiso   1.00
H1236  H     0.18193   0.91198   0.63336   0.00000  Uiso   1.00
H1237  H     0.13478   0.74524   0.20263   0.00000  Uiso   1.00
H1238  H     0.36392   0.75505   0.79744   0.00000  Uiso   1.00
H1239  H     0.18077   0.91685   0.36583   0.00000  Uiso   1.00
H1240  H     0.31766   0.58807   0.63346   0.00000  Uiso   1.00
H1241  H     0.46813   0.81080   0.37020   0.00000  Uiso   1.00
H1242  H     0.39167   0.83445   0.42203   0.00000  Uiso   1.00
H1243  H     0.00078   0.86402   0.38519   0.00000  Uiso   1.00
H1244  H     0.03323   0.82673   0.38885   0.00000  Uiso   1.00
H1245  H     0.01271   0.84577   0.43204   0.00000  Uiso   1.00
H1246  H     0.03945   0.69225   0.62832   0.00000  Uiso   1.00
H1247  H     0.10285   0.69654   0.61501   0.00000  Uiso   1.00
H1248  H     0.08599   0.74301   0.61536   0.00000  Uiso   1.00
H1249  H     0.09327   0.71942   0.56989   0.00000  Uiso   1.00
H1250  H     0.19168   0.53840   0.37150   0.00000  Uiso   1.00
H1251  H     0.19458   0.60218   0.38352   0.00000  Uiso   1.00
H1252  H     0.24137   0.58638   0.38293   0.00000  Uiso   1.00
H1253  H     0.02912   0.61590   0.57814   0.00000  Uiso   1.00
H1254  H     0.21813   0.59393   0.42852   0.00000  Uiso   1.00
H1255  H     0.30688   0.95670   0.62666   0.00000  Uiso   1.00
H1256  H     0.36192   0.99202   0.62511   0.00000  Uiso   1.00
H1257  H     0.32379   0.52176   0.63541   0.00000  Uiso   1.00
H1258  H     0.34288   0.51972   0.58688   0.00000  Uiso   1.00
H1259  H     0.04366   0.69297   0.37369   0.00000  Uiso   1.00
H1260  H     0.00863   0.63740   0.37343   0.00000  Uiso   1.00
H1261  H     0.47954   0.67568   0.36163   0.00000  Uiso   1.00
H1262  H     0.47923   0.65638   0.41016   0.00000  Uiso   1.00
H1263  H     0.45965   0.80742   0.62797   0.00000  Uiso   1.00
H1264  H     0.11606   0.52900   0.42401   0.00000  Uiso   1.00
H1265  H     0.39576   0.80172   0.61804   0.00000  Uiso   1.00
H1266  H     0.41328   0.75552   0.61939   0.00000  Uiso   1.00
H1267  H     0.40368   0.77733   0.57349   0.00000  Uiso   1.00
H1268  H     0.30824   0.96145   0.37160   0.00000  Uiso   1.00
H1269  H     0.30517   0.89765   0.38358   0.00000  Uiso   1.00
H1270  H     0.25843   0.91357   0.38286   0.00000  Uiso   1.00
H1271  H     0.28155   0.90589   0.42852   0.00000  Uiso   1.00
H1272  H     0.19315   0.54336   0.62657   0.00000  Uiso   1.00
H1273  H     0.13807   0.50805   0.62503   0.00000  Uiso   1.00
H1274  H     0.17620   0.97835   0.63552   0.00000  Uiso   1.00
H1275  H     0.34689   0.89639   0.57086   0.00000  Uiso   1.00
H1276  H     0.15716   0.98027   0.58695   0.00000  Uiso   1.00
H1277  H     0.22146   0.56181   0.87061   0.00000  Uiso   1.00
H1278  H     0.25232   0.61479   0.89028   0.00000  Uiso   1.00
H1279  H     0.28487   0.57769   0.89438   0.00000  Uiso   1.00
H1280  H     0.26159   0.59480   0.93699   0.00000  Uiso   1.00
H1281  H     0.27565   0.93655   0.13024   0.00000  Uiso   1.00
H1282  H     0.33849   0.92718   0.11654   0.00000  Uiso   1.00
H1283  H     0.33096   0.97598   0.11595   0.00000  Uiso   1.00
H1284  H     0.33351   0.95070   0.07098   0.00000  Uiso   1.00
H1285  H     0.44275   0.79055   0.87199   0.00000  Uiso   1.00
H1286  H     0.33621   0.88323   0.93572   0.00000  Uiso   1.00
H1287  H     0.44875   0.85447   0.88193   0.00000  Uiso   1.00
H1288  H     0.49483   0.83674   0.88067   0.00000  Uiso   1.00
H1289  H     0.47303   0.84640   0.92654   0.00000  Uiso   1.00
H1290  H     0.05696   0.70626   0.12646   0.00000  Uiso   1.00
H1291  H     0.11252   0.74119   0.12644   0.00000  Uiso   1.00
H1292  H     0.07438   0.77048   0.13806   0.00000  Uiso   1.00
H1293  H     0.09360   0.77047   0.08952   0.00000  Uiso   1.00
H1294  H     0.29407   0.94287   0.87558   0.00000  Uiso   1.00
H1295  H     0.25838   0.88736   0.87042   0.00000  Uiso   1.00
H1296  H     0.23196   0.92655   0.85551   0.00000  Uiso   1.00
N1297  N     0.47840   0.81271   0.39790   0.00000  Uiso   1.00
N1298  N     0.28501   0.94356   0.10308   0.00000  Uiso   1.00
N1299  N     0.45410   0.79931   0.89767   0.00000  Uiso   1.00
N1300  N     0.06212   0.72438   0.10430   0.00000  Uiso   1.00
N1301  N     0.27404   0.93691   0.89554   0.00000  Uiso   1.00
N1302  N     0.22535   0.56245   0.10125   0.00000  Uiso   1.00
N1303  N     0.04724   0.70240   0.89828   0.00000  Uiso   1.00
N1304  N     0.43739   0.77167   0.10203   0.00000  Uiso   1.00
N1305  N     0.04725   0.70249   0.60177   0.00000  Uiso   1.00
N1306  N     0.20193   0.54690   0.39779   0.00000  Uiso   1.00
N1307  N     0.31147   0.97429   0.60388   0.00000  Uiso   1.00
N1308  N     0.02544   0.68778   0.39574   0.00000  Uiso   1.00
N1309  N     0.45082   0.79611   0.60230   0.00000  Uiso   1.00
N1310  N     0.29793   0.95292   0.39786   0.00000  Uiso   1.00
N1311  N     0.18854   0.52575   0.60383   0.00000  Uiso   1.00
N1312  N     0.22972   0.56287   0.89911   0.00000  Uiso   1.00
O1313  O     0.25000   0.50000   0.25000   0.00000  Uiso   1.00
O1314  O     0.25000   0.96964   0.66245   0.00000  Uiso   1.00
O1315  O     0.03241   0.62079   0.70330   0.00000  Uiso   1.00
O1316  O     0.08353   0.53288   0.75511   0.00000  Uiso   1.00
O1317  O     0.12369   0.53123   0.70499   0.00000  Uiso   1.00
O1318  O     0.41513   0.96749   0.24407   0.00000  Uiso   1.00
O1319  O     0.37776   0.96781   0.29661   0.00000  Uiso   1.00
O1320  O     0.10223   0.80778   0.82536   0.00000  Uiso   1.00
O1321  O     0.09426   0.86268   0.85488   0.00000  Uiso   1.00
O1322  O     0.39690   0.69285   0.17567   0.00000  Uiso   1.00
O1323  O     0.40325   0.63826   0.14498   0.00000  Uiso   1.00
O1324  O     0.41599   0.96718   0.75681   0.00000  Uiso   1.00
O1325  O     0.46964   0.75000   0.33755   0.00000  Uiso   1.00
O1326  O     0.37702   0.96894   0.70562   0.00000  Uiso   1.00
O1327  O     0.08525   0.53234   0.24298   0.00000  Uiso   1.00
O1328  O     0.12216   0.53187   0.29592   0.00000  Uiso   1.00
O1329  O     0.37477   0.68305   0.83521   0.00000  Uiso   1.00
O1330  O     0.42790   0.65115   0.84143   0.00000  Uiso   1.00
O1331  O     0.12529   0.81884   0.16305   0.00000  Uiso   1.00
O1332  O     0.07155   0.85008   0.15897   0.00000  Uiso   1.00
O1333  O     0.44287   0.64709   0.67518   0.00000  Uiso   1.00
O1334  O     0.38833   0.65505   0.64499   0.00000  Uiso   1.00
O1335  O     0.05719   0.85327   0.32426   0.00000  Uiso   1.00
O1336  O     0.03037   0.75000   0.66245   0.00000  Uiso   1.00
O1337  O     0.11170   0.84656   0.35497   0.00000  Uiso   1.00
O1338  O     0.28300   0.83405   0.74188   0.00000  Uiso   1.00
O1339  O     0.28077   0.87234   0.79362   0.00000  Uiso   1.00
O1340  O     0.21760   0.66458   0.25759   0.00000  Uiso   1.00
O1341  O     0.21802   0.62848   0.20403   0.00000  Uiso   1.00
O1342  O     0.05775   0.85265   0.67479   0.00000  Uiso   1.00
O1343  O     0.11250   0.84435   0.64516   0.00000  Uiso   1.00
O1344  O     0.43111   0.62465   0.33693   0.00000  Uiso   1.00
O1345  O     0.39992   0.67845   0.34103   0.00000  Uiso   1.00
O1346  O     0.21748   0.66508   0.74372   0.00000  Uiso   1.00
O1347  O     0.00000   0.71963   0.83755   0.00000  Uiso   1.00
O1348  O     0.21770   0.62789   0.79648   0.00000  Uiso   1.00
O1349  O     0.28253   0.83501   0.25607   0.00000  Uiso   1.00
O1350  O     0.28243   0.87197   0.20313   0.00000  Uiso   1.00
O1351  O     0.33474   0.78244   0.25503   0.00000  Uiso   1.00
O1352  O     0.37262   0.78246   0.20290   0.00000  Uiso   1.00
O1353  O     0.16516   0.71742   0.74333   0.00000  Uiso   1.00
O1354  O     0.12784   0.71810   0.79591   0.00000  Uiso   1.00
O1355  O     0.35280   0.55679   0.32476   0.00000  Uiso   1.00
O1356  O     0.34558   0.61133   0.35520   0.00000  Uiso   1.00
O1357  O     0.12574   0.93148   0.66349   0.00000  Uiso   1.00
O1358  O     0.00000   0.78037   0.16245   0.00000  Uiso   1.00
O1359  O     0.17850   0.89865   0.65885   0.00000  Uiso   1.00
O1360  O     0.16598   0.71722   0.25627   0.00000  Uiso   1.00
O1361  O     0.12687   0.71884   0.20520   0.00000  Uiso   1.00
O1362  O     0.33543   0.78231   0.74168   0.00000  Uiso   1.00
O1363  O     0.37164   0.78153   0.79516   0.00000  Uiso   1.00
O1364  O     0.12420   0.93339   0.33481   0.00000  Uiso   1.00
O1365  O     0.17749   0.90183   0.34140   0.00000  Uiso   1.00
O1366  O     0.37429   0.56909   0.66306   0.00000  Uiso   1.00
O1367  O     0.32110   0.60128   0.65900   0.00000  Uiso   1.00
O1368  O     0.28037   0.50000   0.83755   0.00000  Uiso   1.00
O1369  O     0.21964   0.50000   0.16245   0.00000  Uiso   1.00
O1370  O     0.00000   0.78037   0.83755   0.00000  Uiso   1.00
O1371  O     0.00000   0.71964   0.16245   0.00000  Uiso   1.00
O1372  O     0.21964   0.50000   0.83755   0.00000  Uiso   1.00
O1373  O     0.25000   0.50000   0.75000   0.00000  Uiso   1.00
O1374  O     0.28037   0.50000   0.16245   0.00000  Uiso   1.00
O1375  O     0.20725   0.57308   0.27302   0.00000  Uiso   1.00
O1376  O     0.29276   0.92693   0.72698   0.00000  Uiso   1.00
O1377  O     0.42693   0.70725   0.27302   0.00000  Uiso   1.00
O1378  O     0.07308   0.79275   0.72698   0.00000  Uiso   1.00
O1379  O     0.29276   0.92693   0.27302   0.00000  Uiso   1.00
O1380  O     0.20725   0.57308   0.72698   0.00000  Uiso   1.00
O1381  O     0.07308   0.79275   0.27302   0.00000  Uiso   1.00
O1382  O     0.42693   0.70725   0.72698   0.00000  Uiso   1.00
O1383  O     0.20725   0.92693   0.72698   0.00000  Uiso   1.00
O1384  O     0.00000   0.75000   0.25000   0.00000  Uiso   1.00
O1385  O     0.29276   0.57308   0.27302   0.00000  Uiso   1.00
O1386  O     0.42693   0.79276   0.72698   0.00000  Uiso   1.00
O1387  O     0.07308   0.70725   0.27302   0.00000  Uiso   1.00
O1388  O     0.29276   0.57308   0.72698   0.00000  Uiso   1.00
O1389  O     0.20725   0.92693   0.27302   0.00000  Uiso   1.00
O1390  O     0.07308   0.70725   0.72698   0.00000  Uiso   1.00
O1391  O     0.42693   0.79276   0.27302   0.00000  Uiso   1.00
O1392  O     0.45725   0.82308   0.77302   0.00000  Uiso   1.00
O1393  O     0.04276   0.67692   0.22698   0.00000  Uiso   1.00
O1394  O     0.17693   0.95725   0.77302   0.00000  Uiso   1.00
O1395  O     0.00000   0.75000   0.75000   0.00000  Uiso   1.00
O1396  O     0.32308   0.54276   0.22698   0.00000  Uiso   1.00
O1397  O     0.04276   0.67692   0.77302   0.00000  Uiso   1.00
O1398  O     0.45725   0.82308   0.22698   0.00000  Uiso   1.00
O1399  O     0.32308   0.54276   0.77302   0.00000  Uiso   1.00
O1400  O     0.17693   0.95725   0.22698   0.00000  Uiso   1.00
O1401  O     0.45725   0.67693   0.22698   0.00000  Uiso   1.00
O1402  O     0.04276   0.82307   0.77302   0.00000  Uiso   1.00
O1403  O     0.17693   0.54276   0.22698   0.00000  Uiso   1.00
O1404  O     0.32308   0.95725   0.77302   0.00000  Uiso   1.00
O1405  O     0.04276   0.82307   0.22698   0.00000  Uiso   1.00
O1406  O     0.25000   0.96964   0.33755   0.00000  Uiso   1.00
O1407  O     0.45725   0.67693   0.77302   0.00000  Uiso   1.00
O1408  O     0.32308   0.95725   0.22698   0.00000  Uiso   1.00
O1409  O     0.17693   0.54276   0.77302   0.00000  Uiso   1.00
O1410  O     0.04366   0.62993   0.45995   0.00000  Uiso   1.00
O1411  O     0.08795   0.67021   0.44280   0.00000  Uiso   1.00
O1412  O     0.41551   0.84696   0.53774   0.00000  Uiso   1.00
O1413  O     0.47224   0.86047   0.56019   0.00000  Uiso   1.00
O1414  O     0.35391   0.92407   0.46169   0.00000  Uiso   1.00
O1415  O     0.36130   0.98118   0.43699   0.00000  Uiso   1.00
O1416  O     0.13221   0.54809   0.54017   0.00000  Uiso   1.00
O1417  O     0.25000   0.53037   0.66245   0.00000  Uiso   1.00
O1418  O     0.17431   0.59036   0.55811   0.00000  Uiso   1.00
O1419  O     0.43855   0.86225   0.46064   0.00000  Uiso   1.00
O1420  O     0.40688   0.81474   0.43504   0.00000  Uiso   1.00
O1421  O     0.07450   0.64480   0.53841   0.00000  Uiso   1.00
O1422  O     0.01817   0.63823   0.56511   0.00000  Uiso   1.00
O1423  O     0.14578   0.57552   0.46152   0.00000  Uiso   1.00
O1424  O     0.13863   0.51839   0.43685   0.00000  Uiso   1.00
O1425  O     0.36765   0.95160   0.54028   0.00000  Uiso   1.00
O1426  O     0.32545   0.90950   0.55840   0.00000  Uiso   1.00
O1427  O     0.27480   0.87438   0.95852   0.00000  Uiso   1.00
O1428  O     0.03037   0.75000   0.33755   0.00000  Uiso   1.00
O1429  O     0.32681   0.90665   0.94791   0.00000  Uiso   1.00
O1430  O     0.15171   0.56933   0.04851   0.00000  Uiso   1.00
O1431  O     0.19329   0.61520   0.04403   0.00000  Uiso   1.00
O1432  O     0.10449   0.67453   0.96178   0.00000  Uiso   1.00
O1433  O     0.11158   0.73091   0.93518   0.00000  Uiso   1.00
O1434  O     0.38796   0.81164   0.03919   0.00000  Uiso   1.00
O1435  O     0.43550   0.84322   0.06480   0.00000  Uiso   1.00
O1436  O     0.18110   0.60898   0.96184   0.00000  Uiso   1.00
O1437  O     0.15660   0.56028   0.93054   0.00000  Uiso   1.00
O1438  O     0.30419   0.88236   0.03931   0.00000  Uiso   1.00
O1439  O     0.46964   0.75000   0.66245   0.00000  Uiso   1.00
O1440  O     0.24710   0.88526   0.06499   0.00000  Uiso   1.00
O1441  O     0.40328   0.83463   0.96208   0.00000  Uiso   1.00
O1442  O     0.38969   0.77788   0.93963   0.00000  Uiso   1.00
O1443  O     0.11956   0.70507   0.04018   0.00000  Uiso   1.00
O1444  O     0.07880   0.66130   0.05757   0.00000  Uiso   1.00
O1445  O     0.19344   0.89700   0.17548   0.00000  Uiso   1.00
O1446  O     0.13911   0.90394   0.14462   0.00000  Uiso   1.00
O1447  O     0.30784   0.60233   0.82508   0.00000  Uiso   1.00
O1448  O     0.36277   0.59567   0.85493   0.00000  Uiso   1.00
O1449  O     0.03286   0.58415   0.24338   0.00000  Uiso   1.00
O1450  O     0.25000   0.53037   0.33755   0.00000  Uiso   1.00
O1451  O     0.03140   0.62276   0.29489   0.00000  Uiso   1.00
O1452  O     0.46754   0.91428   0.75897   0.00000  Uiso   1.00
O1453  O     0.46812   0.87929   0.70458   0.00000  Uiso   1.00
O1454  O     0.31637   0.62625   0.16539   0.00000  Uiso   1.00
O1455  O     0.34761   0.57278   0.15854   0.00000  Uiso   1.00
O1456  O     0.18078   0.87429   0.83694   0.00000  Uiso   1.00
O1457  O     0.15041   0.92856   0.84088   0.00000  Uiso   1.00
O1458  O     0.46753   0.91512   0.24459   0.00000  Uiso   1.00
O1459  O     0.46740   0.87771   0.29718   0.00000  Uiso   1.00
O1460  O     0.03222   0.58603   0.75791   0.00000  Uiso   1.00
Zn1461 Zn    0.20660   0.50000   0.21735   0.00000  Uiso   1.00
Zn1462 Zn    0.04341   0.75000   0.28265   0.00000  Uiso   1.00
Zn1463 Zn    0.25000   0.95660   0.71735   0.00000  Uiso   1.00
Zn1464 Zn    0.25000   0.54341   0.28265   0.00000  Uiso   1.00
Zn1465 Zn    0.04341   0.75000   0.71735   0.00000  Uiso   1.00
Zn1466 Zn    0.45660   0.75000   0.28265   0.00000  Uiso   1.00
Zn1467 Zn    0.25000   0.54341   0.71735   0.00000  Uiso   1.00
Zn1468 Zn    0.25000   0.95660   0.28265   0.00000  Uiso   1.00
Zn1469 Zn    0.29341   0.50000   0.78265   0.00000  Uiso   1.00
Zn1470 Zn    0.00000   0.70660   0.21735   0.00000  Uiso   1.00
Zn1471 Zn    0.00000   0.79340   0.78265   0.00000  Uiso   1.00
Zn1472 Zn    0.29341   0.50000   0.21735   0.00000  Uiso   1.00
Zn1473 Zn    0.20660   0.50000   0.78265   0.00000  Uiso   1.00
Zn1474 Zn    0.00000   0.79340   0.21735   0.00000  Uiso   1.00
Zn1475 Zn    0.00000   0.70660   0.78265   0.00000  Uiso   1.00
Zn1476 Zn    0.45660   0.75000   0.71735   0.00000  Uiso   1.00
C1477  C     0.98489   0.77908   0.41793   0.00000  Uiso   1.00
C1478  C     0.76344   0.96956   0.08215   0.00000  Uiso   1.00
C1479  C     0.72075   0.51726   0.54137   0.00000  Uiso   1.00
C1480  C     0.98022   0.77685   0.45852   0.00000  Uiso   1.00
C1481  C     0.51663   0.72043   0.54087   0.00000  Uiso   1.00
C1482  C     0.72148   0.51800   0.45916   0.00000  Uiso   1.00
C1483  C     0.77918   0.98265   0.54141   0.00000  Uiso   1.00
C1484  C     0.75997   0.96580   0.95900   0.00000  Uiso   1.00
C1485  C     0.72718   0.52614   0.04074   0.00000  Uiso   1.00
C1486  C     0.52939   0.73302   0.95918   0.00000  Uiso   1.00
C1487  C     0.97318   0.76973   0.04144   0.00000  Uiso   1.00
C1488  C     0.72840   0.52559   0.95872   0.00000  Uiso   1.00
C1489  C     0.97592   0.77346   0.91847   0.00000  Uiso   1.00
C1490  C     0.75871   0.96630   0.04148   0.00000  Uiso   1.00
C1491  C     0.97365   0.77115   0.95941   0.00000  Uiso   1.00
C1492  C     0.53083   0.73419   0.04142   0.00000  Uiso   1.00
C1493  C     0.59772   0.84859   0.24977   0.00000  Uiso   1.00
C1494  C     0.90245   0.65151   0.75002   0.00000  Uiso   1.00
C1495  C     0.65194   0.59809   0.25000   0.00000  Uiso   1.00
C1496  C     0.84804   0.90190   0.74995   0.00000  Uiso   1.00
C1497  C     0.90143   0.65227   0.25019   0.00000  Uiso   1.00
C1498  C     0.59797   0.84799   0.75003   0.00000  Uiso   1.00
C1499  C     0.84807   0.90192   0.25005   0.00000  Uiso   1.00
C1500  C     0.53100   0.73591   0.08254   0.00000  Uiso   1.00
C1501  C     0.65192   0.59804   0.74989   0.00000  Uiso   1.00
C1502  C     0.59806   0.65188   0.75006   0.00000  Uiso   1.00
C1503  C     0.90194   0.84808   0.24994   0.00000  Uiso   1.00
C1504  C     0.65187   0.90180   0.75005   0.00000  Uiso   1.00
C1505  C     0.84846   0.59754   0.25007   0.00000  Uiso   1.00
C1506  C     0.90191   0.84808   0.75004   0.00000  Uiso   1.00
C1507  C     0.59808   0.65193   0.24996   0.00000  Uiso   1.00
C1508  C     0.84763   0.59865   0.74990   0.00000  Uiso   1.00
C1509  C     0.65254   0.90145   0.24993   0.00000  Uiso   1.00
C1510  C     0.99767   0.74791   0.47911   0.00000  Uiso   1.00
C1511  C     0.76125   0.96725   0.91771   0.00000  Uiso   1.00
C1512  C     0.99760   0.74818   0.52014   0.00000  Uiso   1.00
C1513  C     0.74995   0.99992   0.47980   0.00000  Uiso   1.00
C1514  C     0.74996   0.99994   0.52087   0.00000  Uiso   1.00
C1515  C     0.74353   0.99556   0.97943   0.00000  Uiso   1.00
C1516  C     0.74293   0.99587   0.02057   0.00000  Uiso   1.00
C1517  C     0.50174   0.75219   0.97986   0.00000  Uiso   1.00
C1518  C     0.50201   0.75213   0.02089   0.00000  Uiso   1.00
C1519  C     0.55476   0.66139   0.46036   0.00000  Uiso   1.00
C1520  C     0.94787   0.83871   0.53938   0.00000  Uiso   1.00
C1521  C     0.84257   0.95549   0.45933   0.00000  Uiso   1.00
C1522  C     0.73155   0.52854   0.08161   0.00000  Uiso   1.00
C1523  C     0.66410   0.55785   0.53993   0.00000  Uiso   1.00
C1524  C     0.93466   0.82915   0.45815   0.00000  Uiso   1.00
C1525  C     0.54325   0.65637   0.54149   0.00000  Uiso   1.00
C1526  C     0.65725   0.54414   0.45920   0.00000  Uiso   1.00
C1527  C     0.83573   0.94194   0.54010   0.00000  Uiso   1.00
C1528  C     0.79105   0.90335   0.96154   0.00000  Uiso   1.00
C1529  C     0.68221   0.57906   0.03865   0.00000  Uiso   1.00
C1530  C     0.59320   0.70591   0.95871   0.00000  Uiso   1.00
C1531  C     0.92103   0.81545   0.04171   0.00000  Uiso   1.00
C1532  C     0.68094   0.57589   0.95693   0.00000  Uiso   1.00
C1533  C     0.52564   0.72876   0.91857   0.00000  Uiso   1.00
C1534  C     0.77527   0.89902   0.04195   0.00000  Uiso   1.00
C1535  C     0.91146   0.80222   0.96048   0.00000  Uiso   1.00
C1536  C     0.58799   0.69435   0.03984   0.00000  Uiso   1.00
C1537  C     0.66014   0.89575   0.17735   0.00000  Uiso   1.00
C1538  C     0.84109   0.60378   0.82265   0.00000  Uiso   1.00
C1539  C     0.54928   0.60575   0.26393   0.00000  Uiso   1.00
C1540  C     0.95072   0.89437   0.73692   0.00000  Uiso   1.00
C1541  C     0.83923   0.60507   0.17831   0.00000  Uiso   1.00
C1542  C     0.65912   0.89573   0.82230   0.00000  Uiso   1.00
C1543  C     0.95049   0.89406   0.26521   0.00000  Uiso   1.00
C1544  C     0.97096   0.76513   0.08204   0.00000  Uiso   1.00
C1545  C     0.54936   0.60579   0.73597   0.00000  Uiso   1.00
C1546  C     0.60589   0.54919   0.73540   0.00000  Uiso   1.00
C1547  C     0.89408   0.95061   0.26483   0.00000  Uiso   1.00
C1548  C     0.60315   0.84109   0.82279   0.00000  Uiso   1.00
C1549  C     0.89553   0.65954   0.17765   0.00000  Uiso   1.00
C1550  C     0.89419   0.95089   0.73641   0.00000  Uiso   1.00
C1551  C     0.60596   0.54922   0.26412   0.00000  Uiso   1.00
C1552  C     0.89561   0.66007   0.82195   0.00000  Uiso   1.00
C1553  C     0.60419   0.84086   0.17762   0.00000  Uiso   1.00
C1554  C     0.90957   0.64622   0.67738   0.00000  Uiso   1.00
C1555  C     0.99983   0.74939   0.39783   0.00000  Uiso   1.00
C1556  C     0.59047   0.85446   0.32231   0.00000  Uiso   1.00
C1557  C     0.79910   0.85554   0.76283   0.00000  Uiso   1.00
C1558  C     0.70071   0.64422   0.23608   0.00000  Uiso   1.00
C1559  C     0.59104   0.85335   0.67730   0.00000  Uiso   1.00
C1560  C     0.90911   0.64580   0.32237   0.00000  Uiso   1.00
C1561  C     0.70057   0.64413   0.76457   0.00000  Uiso   1.00
C1562  C     0.79948   0.85587   0.23515   0.00000  Uiso   1.00
C1563  C     0.85602   0.79944   0.23466   0.00000  Uiso   1.00
C1564  C     0.64413   0.70068   0.76424   0.00000  Uiso   1.00
C1565  C     0.85400   0.59012   0.32268   0.00000  Uiso   1.00
C1566  C     0.99948   0.74974   0.60169   0.00000  Uiso   1.00
C1567  C     0.64628   0.90876   0.67778   0.00000  Uiso   1.00
C1568  C     0.64415   0.70086   0.23595   0.00000  Uiso   1.00
C1569  C     0.85582   0.79909   0.76326   0.00000  Uiso   1.00
C1570  C     0.64523   0.91048   0.32174   0.00000  Uiso   1.00
C1571  C     0.85358   0.59146   0.67764   0.00000  Uiso   1.00
C1572  C     0.50788   0.83862   0.40118   0.00000  Uiso   1.00
C1573  C     0.58421   0.71621   0.60042   0.00000  Uiso   1.00
C1574  C     0.71481   0.58423   0.39823   0.00000  Uiso   1.00
C1575  C     0.83620   0.50363   0.61325   0.00000  Uiso   1.00
C1576  C     0.99654   0.66314   0.38472   0.00000  Uiso   1.00
C1577  C     0.74997   0.99995   0.39822   0.00000  Uiso   1.00
C1578  C     0.91404   0.78181   0.60336   0.00000  Uiso   1.00
C1579  C     0.78497   0.91563   0.39825   0.00000  Uiso   1.00
C1580  C     0.66381   0.99642   0.61327   0.00000  Uiso   1.00
C1581  C     0.75871   0.58883   0.90558   0.00000  Uiso   1.00
C1582  C     0.82398   0.94982   0.10152   0.00000  Uiso   1.00
C1583  C     0.96855   0.83607   0.89665   0.00000  Uiso   1.00
C1584  C     0.58683   0.75330   0.11509   0.00000  Uiso   1.00
C1585  C     0.74585   0.91334   0.88045   0.00000  Uiso   1.00
C1586  C     0.69329   0.56546   0.12578   0.00000  Uiso   1.00
C1587  C     0.53334   0.66547   0.89951   0.00000  Uiso   1.00
C1588  C     0.52098   0.72420   0.58147   0.00000  Uiso   1.00
C1589  C     0.75000   0.50002   0.60219   0.00000  Uiso   1.00
C1590  C     0.91144   0.74221   0.09875   0.00000  Uiso   1.00
C1591  C     0.74953   0.99891   0.89816   0.00000  Uiso   1.00
C1592  C     0.74896   0.99993   0.10177   0.00000  Uiso   1.00
C1593  C     0.50025   0.75044   0.89832   0.00000  Uiso   1.00
C1594  C     0.50062   0.75017   0.10217   0.00000  Uiso   1.00
C1595  C     0.53309   0.69049   0.47983   0.00000  Uiso   1.00
C1596  C     0.96157   0.80520   0.51959   0.00000  Uiso   1.00
C1597  C     0.80843   0.96661   0.47976   0.00000  Uiso   1.00
C1598  C     0.69233   0.53512   0.52033   0.00000  Uiso   1.00
C1599  C     0.95995   0.80382   0.47893   0.00000  Uiso   1.00
C1600  C     0.72441   0.52146   0.41838   0.00000  Uiso   1.00
C1601  C     0.53172   0.69017   0.52057   0.00000  Uiso   1.00
C1602  C     0.69143   0.53316   0.47967   0.00000  Uiso   1.00
C1603  C     0.80755   0.96470   0.52043   0.00000  Uiso   1.00
C1604  C     0.77308   0.93508   0.98048   0.00000  Uiso   1.00
C1605  C     0.70704   0.55271   0.01936   0.00000  Uiso   1.00
C1606  C     0.55950   0.71771   0.97954   0.00000  Uiso   1.00
C1607  C     0.94627   0.79007   0.02098   0.00000  Uiso   1.00
C1608  C     0.70698   0.55190   0.97859   0.00000  Uiso   1.00
C1609  C     0.76988   0.93440   0.02118   0.00000  Uiso   1.00
C1610  C     0.94489   0.78843   0.98032   0.00000  Uiso   1.00
C1611  C     0.77988   0.98506   0.58241   0.00000  Uiso   1.00
C1612  C     0.55916   0.71634   0.02029   0.00000  Uiso   1.00
C1613  C     0.75000   0.99999   0.35583   0.00000  Uiso   1.00
C1614  C     0.75000   0.50001   0.64433   0.00000  Uiso   1.00
C1615  C     0.50001   0.74993   0.35568   0.00000  Uiso   1.00
C1616  C     0.99993   0.75006   0.64414   0.00000  Uiso   1.00
C1617  C     0.99995   0.75005   0.85587   0.00000  Uiso   1.00
C1618  C     0.50009   0.74999   0.14431   0.00000  Uiso   1.00
C1619  C     0.75000   0.99994   0.85580   0.00000  Uiso   1.00
C1620  C     0.74990   0.50077   0.14417   0.00000  Uiso   1.00
C1621  C     0.68007   0.56996   0.24999   0.00000  Uiso   1.00
C1622  C     0.51391   0.71890   0.41750   0.00000  Uiso   1.00
C1623  C     0.81992   0.93004   0.75001   0.00000  Uiso   1.00
C1624  C     0.93008   0.67991   0.25025   0.00000  Uiso   1.00
C1625  C     0.56993   0.81995   0.75001   0.00000  Uiso   1.00
C1626  C     0.81994   0.93005   0.25002   0.00000  Uiso   1.00
C1627  C     0.68007   0.56995   0.74999   0.00000  Uiso   1.00
C1628  C     0.57008   0.81993   0.24973   0.00000  Uiso   1.00
C1629  C     0.93003   0.68005   0.75015   0.00000  Uiso   1.00
C1630  C     0.68002   0.92996   0.75004   0.00000  Uiso   1.00
C1631  C     0.81994   0.56996   0.24990   0.00000  Uiso   1.00
C1632  C     0.93006   0.81996   0.75000   0.00000  Uiso   1.00
C1633  C     0.97653   0.77416   0.58151   0.00000  Uiso   1.00
C1634  C     0.56995   0.68006   0.24999   0.00000  Uiso   1.00
C1635  C     0.82004   0.56997   0.74980   0.00000  Uiso   1.00
C1636  C     0.68006   0.93003   0.25011   0.00000  Uiso   1.00
C1637  C     0.56993   0.68003   0.75000   0.00000  Uiso   1.00
C1638  C     0.93006   0.81995   0.24998   0.00000  Uiso   1.00
C1639  C     0.64192   0.88545   0.21446   0.00000  Uiso   1.00
C1640  C     0.85864   0.61442   0.78540   0.00000  Uiso   1.00
C1641  C     0.58796   0.61509   0.25533   0.00000  Uiso   1.00
C1642  C     0.91203   0.88496   0.74510   0.00000  Uiso   1.00
C1643  C     0.85870   0.61412   0.21479   0.00000  Uiso   1.00
C1644  C     0.77548   0.97839   0.41841   0.00000  Uiso   1.00
C1645  C     0.64074   0.88600   0.78547   0.00000  Uiso   1.00
C1646  C     0.91199   0.88483   0.25581   0.00000  Uiso   1.00
C1647  C     0.58798   0.61507   0.74461   0.00000  Uiso   1.00
C1648  C     0.61516   0.58787   0.74436   0.00000  Uiso   1.00
C1649  C     0.88481   0.91202   0.25577   0.00000  Uiso   1.00
C1650  C     0.61389   0.85876   0.78553   0.00000  Uiso   1.00
C1651  C     0.88533   0.64156   0.21477   0.00000  Uiso   1.00
C1652  C     0.88485   0.91214   0.74493   0.00000  Uiso   1.00
C1653  C     0.61516   0.58792   0.25535   0.00000  Uiso   1.00
C1654  C     0.88614   0.64100   0.78536   0.00000  Uiso   1.00
C1655  C     0.72011   0.51495   0.58238   0.00000  Uiso   1.00
C1656  C     0.61412   0.85915   0.21443   0.00000  Uiso   1.00
C1657  C     0.89157   0.63575   0.71453   0.00000  Uiso   1.00
C1658  C     0.60847   0.86463   0.28520   0.00000  Uiso   1.00
C1659  C     0.83788   0.86501   0.75487   0.00000  Uiso   1.00
C1660  C     0.66205   0.63492   0.24466   0.00000  Uiso   1.00
C1661  C     0.60881   0.86392   0.71455   0.00000  Uiso   1.00
C1662  C     0.89081   0.63592   0.28555   0.00000  Uiso   1.00
C1663  C     0.66200   0.63484   0.75549   0.00000  Uiso   1.00
C1664  C     0.83802   0.86515   0.24425   0.00000  Uiso   1.00
C1665  C     0.86522   0.83798   0.24410   0.00000  Uiso   1.00
C1666  C     0.73488   0.52865   0.91847   0.00000  Uiso   1.00
C1667  C     0.63483   0.66203   0.75547   0.00000  Uiso   1.00
C1668  C     0.86444   0.60819   0.28554   0.00000  Uiso   1.00
C1669  C     0.63614   0.89066   0.71463   0.00000  Uiso   1.00
C1670  C     0.63487   0.66212   0.24459   0.00000  Uiso   1.00
C1671  C     0.86509   0.83785   0.75493   0.00000  Uiso   1.00
C1672  C     0.63599   0.89118   0.28521   0.00000  Uiso   1.00
C1673  C     0.86376   0.60948   0.71452   0.00000  Uiso   1.00
C1674  C     0.51549   0.71899   0.45863   0.00000  Uiso   1.00
C1675  C     0.97878   0.77638   0.54056   0.00000  Uiso   1.00
C1676  C     0.77840   0.98181   0.45920   0.00000  Uiso   1.00
H1677  H     0.60024   0.64821   0.43051   0.00000  Uiso   1.00
H1678  H     0.67369   0.63080   0.05666   0.00000  Uiso   1.00
H1679  H     0.72552   0.90684   0.90332   0.00000  Uiso   1.00
H1680  H     0.74846   0.57366   0.11340   0.00000  Uiso   1.00
H1681  H     0.67907   0.59165   0.11971   0.00000  Uiso   1.00
H1682  H     0.70146   0.56598   0.15674   0.00000  Uiso   1.00
H1683  H     0.67393   0.54264   0.12072   0.00000  Uiso   1.00
H1684  H     0.55757   0.71023   0.87179   0.00000  Uiso   1.00
H1685  H     0.55294   0.64675   0.88498   0.00000  Uiso   1.00
H1686  H     0.50661   0.66386   0.88445   0.00000  Uiso   1.00
H1687  H     0.53000   0.65635   0.93002   0.00000  Uiso   1.00
H1688  H     0.93930   0.78195   0.12973   0.00000  Uiso   1.00
H1689  H     0.63383   0.71979   0.92220   0.00000  Uiso   1.00
H1690  H     0.88610   0.74935   0.11475   0.00000  Uiso   1.00
H1691  H     0.92329   0.71680   0.11107   0.00000  Uiso   1.00
H1692  H     0.90427   0.73742   0.06789   0.00000  Uiso   1.00
H1693  H     0.91585   0.85848   0.07781   0.00000  Uiso   1.00
H1694  H     0.64053   0.57919   0.91735   0.00000  Uiso   1.00
H1695  H     0.75394   0.86135   0.07801   0.00000  Uiso   1.00
H1696  H     0.86791   0.79036   0.92712   0.00000  Uiso   1.00
H1697  H     0.60064   0.64877   0.06990   0.00000  Uiso   1.00
H1698  H     0.65460   0.91050   0.12131   0.00000  Uiso   1.00
H1699  H     0.84787   0.58903   0.87861   0.00000  Uiso   1.00
H1700  H     0.50502   0.61485   0.29741   0.00000  Uiso   1.00
H1701  H     0.95982   0.88230   0.57267   0.00000  Uiso   1.00
H1702  H     0.99448   0.88730   0.70228   0.00000  Uiso   1.00
H1703  H     0.83244   0.56963   0.13420   0.00000  Uiso   1.00
H1704  H     0.66397   0.93171   0.86626   0.00000  Uiso   1.00
H1705  H     0.99359   0.88593   0.30055   0.00000  Uiso   1.00
H1706  H     0.50608   0.61280   0.70064   0.00000  Uiso   1.00
H1707  H     0.61569   0.50488   0.70214   0.00000  Uiso   1.00
H1708  H     0.88600   0.99404   0.29971   0.00000  Uiso   1.00
H1709  H     0.58738   0.84757   0.87838   0.00000  Uiso   1.00
H1710  H     0.90947   0.65347   0.12138   0.00000  Uiso   1.00
H1711  H     0.88498   0.99533   0.70311   0.00000  Uiso   1.00
H1712  H     0.88383   0.97049   0.42417   0.00000  Uiso   1.00
H1713  H     0.61442   0.50543   0.29853   0.00000  Uiso   1.00
H1714  H     0.93134   0.66603   0.86593   0.00000  Uiso   1.00
H1715  H     0.56833   0.83678   0.13345   0.00000  Uiso   1.00
H1716  H     0.90367   0.66178   0.62161   0.00000  Uiso   1.00
H1717  H     0.59648   0.84037   0.37856   0.00000  Uiso   1.00
H1718  H     0.75437   0.86440   0.79565   0.00000  Uiso   1.00
H1719  H     0.74445   0.63621   0.20157   0.00000  Uiso   1.00
H1720  H     0.59733   0.83762   0.62167   0.00000  Uiso   1.00
H1721  H     0.91323   0.68163   0.36655   0.00000  Uiso   1.00
H1722  H     0.74395   0.63602   0.79955   0.00000  Uiso   1.00
H1723  H     0.65284   0.60343   0.57053   0.00000  Uiso   1.00
H1724  H     0.75622   0.86374   0.20000   0.00000  Uiso   1.00
H1725  H     0.86438   0.75627   0.19947   0.00000  Uiso   1.00
H1726  H     0.63599   0.74440   0.79873   0.00000  Uiso   1.00
H1727  H     0.83885   0.59595   0.37856   0.00000  Uiso   1.00
H1728  H     0.68193   0.91198   0.63336   0.00000  Uiso   1.00
H1729  H     0.63478   0.74524   0.20263   0.00000  Uiso   1.00
H1730  H     0.86392   0.75505   0.79744   0.00000  Uiso   1.00
H1731  H     0.68077   0.91685   0.36583   0.00000  Uiso   1.00
H1732  H     0.81766   0.58807   0.63346   0.00000  Uiso   1.00
H1733  H     0.96813   0.81080   0.37020   0.00000  Uiso   1.00
H1734  H     0.89167   0.83445   0.42203   0.00000  Uiso   1.00
H1735  H     0.50078   0.86402   0.38519   0.00000  Uiso   1.00
H1736  H     0.53323   0.82673   0.38885   0.00000  Uiso   1.00
H1737  H     0.51271   0.84577   0.43204   0.00000  Uiso   1.00
H1738  H     0.53945   0.69225   0.62832   0.00000  Uiso   1.00
H1739  H     0.60285   0.69654   0.61501   0.00000  Uiso   1.00
H1740  H     0.58599   0.74301   0.61536   0.00000  Uiso   1.00
H1741  H     0.59327   0.71942   0.56989   0.00000  Uiso   1.00
H1742  H     0.69168   0.53840   0.37150   0.00000  Uiso   1.00
H1743  H     0.69458   0.60218   0.38352   0.00000  Uiso   1.00
H1744  H     0.74137   0.58638   0.38293   0.00000  Uiso   1.00
H1745  H     0.52912   0.61590   0.57814   0.00000  Uiso   1.00
H1746  H     0.71813   0.59393   0.42852   0.00000  Uiso   1.00
H1747  H     0.80688   0.95670   0.62666   0.00000  Uiso   1.00
H1748  H     0.86192   0.99202   0.62511   0.00000  Uiso   1.00
H1749  H     0.82379   0.52176   0.63541   0.00000  Uiso   1.00
H1750  H     0.84288   0.51972   0.58688   0.00000  Uiso   1.00
H1751  H     0.54366   0.69297   0.37369   0.00000  Uiso   1.00
H1752  H     0.50863   0.63740   0.37343   0.00000  Uiso   1.00
H1753  H     0.97954   0.67568   0.36163   0.00000  Uiso   1.00
H1754  H     0.97923   0.65638   0.41016   0.00000  Uiso   1.00
H1755  H     0.95965   0.80742   0.62797   0.00000  Uiso   1.00
H1756  H     0.61606   0.52900   0.42401   0.00000  Uiso   1.00
H1757  H     0.89576   0.80172   0.61804   0.00000  Uiso   1.00
H1758  H     0.91328   0.75552   0.61939   0.00000  Uiso   1.00
H1759  H     0.90368   0.77733   0.57349   0.00000  Uiso   1.00
H1760  H     0.80824   0.96145   0.37160   0.00000  Uiso   1.00
H1761  H     0.80517   0.89765   0.38358   0.00000  Uiso   1.00
H1762  H     0.75843   0.91357   0.38286   0.00000  Uiso   1.00
H1763  H     0.78155   0.90589   0.42852   0.00000  Uiso   1.00
H1764  H     0.69315   0.54336   0.62657   0.00000  Uiso   1.00
H1765  H     0.63807   0.50805   0.62503   0.00000  Uiso   1.00
H1766  H     0.67620   0.97835   0.63552   0.00000  Uiso   1.00
H1767  H     0.84689   0.89639   0.57086   0.00000  Uiso   1.00
H1768  H     0.65716   0.98027   0.58695   0.00000  Uiso   1.00
H1769  H     0.72146   0.56181   0.87061   0.00000  Uiso   1.00
H1770  H     0.75232   0.61479   0.89028   0.00000  Uiso   1.00
H1771  H     0.78487   0.57769   0.89438   0.00000  Uiso   1.00
H1772  H     0.76159   0.59480   0.93699   0.00000  Uiso   1.00
H1773  H     0.77565   0.93655   0.13024   0.00000  Uiso   1.00
H1774  H     0.83849   0.92718   0.11654   0.00000  Uiso   1.00
H1775  H     0.83096   0.97598   0.11595   0.00000  Uiso   1.00
H1776  H     0.83351   0.95070   0.07098   0.00000  Uiso   1.00
H1777  H     0.94275   0.79055   0.87199   0.00000  Uiso   1.00
H1778  H     0.83621   0.88323   0.93572   0.00000  Uiso   1.00
H1779  H     0.94875   0.85447   0.88193   0.00000  Uiso   1.00
H1780  H     0.99483   0.83674   0.88067   0.00000  Uiso   1.00
H1781  H     0.97303   0.84640   0.92654   0.00000  Uiso   1.00
H1782  H     0.55696   0.70626   0.12646   0.00000  Uiso   1.00
H1783  H     0.61252   0.74119   0.12644   0.00000  Uiso   1.00
H1784  H     0.57438   0.77048   0.13806   0.00000  Uiso   1.00
H1785  H     0.59360   0.77047   0.08952   0.00000  Uiso   1.00
H1786  H     0.79407   0.94287   0.87558   0.00000  Uiso   1.00
H1787  H     0.75838   0.88736   0.87042   0.00000  Uiso   1.00
H1788  H     0.73196   0.92655   0.85551   0.00000  Uiso   1.00
N1789  N     0.97840   0.81271   0.39790   0.00000  Uiso   1.00
N1790  N     0.78501   0.94356   0.10308   0.00000  Uiso   1.00
N1791  N     0.95410   0.79931   0.89767   0.00000  Uiso   1.00
N1792  N     0.56212   0.72438   0.10430   0.00000  Uiso   1.00
N1793  N     0.77404   0.93691   0.89554   0.00000  Uiso   1.00
N1794  N     0.72535   0.56245   0.10125   0.00000  Uiso   1.00
N1795  N     0.54724   0.70240   0.89828   0.00000  Uiso   1.00
N1796  N     0.93739   0.77167   0.10203   0.00000  Uiso   1.00
N1797  N     0.54725   0.70249   0.60177   0.00000  Uiso   1.00
N1798  N     0.70193   0.54690   0.39779   0.00000  Uiso   1.00
N1799  N     0.81147   0.97429   0.60388   0.00000  Uiso   1.00
N1800  N     0.52544   0.68778   0.39574   0.00000  Uiso   1.00
N1801  N     0.95082   0.79611   0.60230   0.00000  Uiso   1.00
N1802  N     0.79793   0.95292   0.39786   0.00000  Uiso   1.00
N1803  N     0.68854   0.52575   0.60383   0.00000  Uiso   1.00
N1804  N     0.72972   0.56287   0.89911   0.00000  Uiso   1.00
O1805  O     0.75000   0.50000   0.25000   0.00000  Uiso   1.00
O1806  O     0.75000   0.96964   0.66245   0.00000  Uiso   1.00
O1807  O     0.53241   0.62079   0.70330   0.00000  Uiso   1.00
O1808  O     0.58353   0.53288   0.75511   0.00000  Uiso   1.00
O1809  O     0.62369   0.53123   0.70499   0.00000  Uiso   1.00
O1810  O     0.91513   0.96749   0.24407   0.00000  Uiso   1.00
O1811  O     0.87776   0.96781   0.29661   0.00000  Uiso   1.00
O1812  O     0.60223   0.80778   0.82536   0.00000  Uiso   1.00
O1813  O     0.59426   0.86268   0.85488   0.00000  Uiso   1.00
O1814  O     0.89690   0.69285   0.17567   0.00000  Uiso   1.00
O1815  O     0.90325   0.63826   0.14498   0.00000  Uiso   1.00
O1816  O     0.91599   0.96718   0.75681   0.00000  Uiso   1.00
O1817  O     0.96964   0.75000   0.33755   0.00000  Uiso   1.00
O1818  O     0.87702   0.96894   0.70562   0.00000  Uiso   1.00
O1819  O     0.58525   0.53234   0.24298   0.00000  Uiso   1.00
O1820  O     0.62216   0.53187   0.29592   0.00000  Uiso   1.00
O1821  O     0.87477   0.68305   0.83521   0.00000  Uiso   1.00
O1822  O     0.92790   0.65115   0.84143   0.00000  Uiso   1.00
O1823  O     0.62529   0.81884   0.16305   0.00000  Uiso   1.00
O1824  O     0.57155   0.85008   0.15897   0.00000  Uiso   1.00
O1825  O     0.94287   0.64709   0.67518   0.00000  Uiso   1.00
O1826  O     0.88833   0.65505   0.64499   0.00000  Uiso   1.00
O1827  O     0.55719   0.85327   0.32426   0.00000  Uiso   1.00
O1828  O     0.53037   0.75000   0.66245   0.00000  Uiso   1.00
O1829  O     0.61170   0.84656   0.35497   0.00000  Uiso   1.00
O1830  O     0.78300   0.83405   0.74188   0.00000  Uiso   1.00
O1831  O     0.78077   0.87234   0.79362   0.00000  Uiso   1.00
O1832  O     0.71760   0.66458   0.25759   0.00000  Uiso   1.00
O1833  O     0.71802   0.62848   0.20403   0.00000  Uiso   1.00
O1834  O     0.55775   0.85265   0.67479   0.00000  Uiso   1.00
O1835  O     0.61250   0.84435   0.64516   0.00000  Uiso   1.00
O1836  O     0.93111   0.62465   0.33693   0.00000  Uiso   1.00
O1837  O     0.89992   0.67845   0.34103   0.00000  Uiso   1.00
O1838  O     0.71748   0.66508   0.74372   0.00000  Uiso   1.00
O1839  O     0.50000   0.71963   0.83755   0.00000  Uiso   1.00
O1840  O     0.71770   0.62789   0.79648   0.00000  Uiso   1.00
O1841  O     0.78253   0.83501   0.25607   0.00000  Uiso   1.00
O1842  O     0.78243   0.87197   0.20313   0.00000  Uiso   1.00
O1843  O     0.83474   0.78244   0.25503   0.00000  Uiso   1.00
O1844  O     0.87262   0.78246   0.20290   0.00000  Uiso   1.00
O1845  O     0.66516   0.71742   0.74333   0.00000  Uiso   1.00
O1846  O     0.62784   0.71810   0.79591   0.00000  Uiso   1.00
O1847  O     0.85280   0.55679   0.32476   0.00000  Uiso   1.00
O1848  O     0.84558   0.61133   0.35520   0.00000  Uiso   1.00
O1849  O     0.62574   0.93148   0.66349   0.00000  Uiso   1.00
O1850  O     0.50000   0.78037   0.16245   0.00000  Uiso   1.00
O1851  O     0.67850   0.89865   0.65885   0.00000  Uiso   1.00
O1852  O     0.66598   0.71722   0.25627   0.00000  Uiso   1.00
O1853  O     0.62687   0.71884   0.20520   0.00000  Uiso   1.00
O1854  O     0.83543   0.78231   0.74168   0.00000  Uiso   1.00
O1855  O     0.87164   0.78153   0.79516   0.00000  Uiso   1.00
O1856  O     0.62420   0.93339   0.33481   0.00000  Uiso   1.00
O1857  O     0.67749   0.90183   0.34140   0.00000  Uiso   1.00
O1858  O     0.87429   0.56909   0.66306   0.00000  Uiso   1.00
O1859  O     0.82110   0.60128   0.65900   0.00000  Uiso   1.00
O1860  O     0.78037   0.50000   0.83755   0.00000  Uiso   1.00
O1861  O     0.71964   0.50000   0.16245   0.00000  Uiso   1.00
O1862  O     0.50000   0.78037   0.83755   0.00000  Uiso   1.00
O1863  O     0.50000   0.71964   0.16245   0.00000  Uiso   1.00
O1864  O     0.71964   0.50000   0.83755   0.00000  Uiso   1.00
O1865  O     0.75000   0.50000   0.75000   0.00000  Uiso   1.00
O1866  O     0.78037   0.50000   0.16245   0.00000  Uiso   1.00
O1867  O     0.70725   0.57308   0.27302   0.00000  Uiso   1.00
O1868  O     0.79276   0.92693   0.72698   0.00000  Uiso   1.00
O1869  O     0.92693   0.70725   0.27302   0.00000  Uiso   1.00
O1870  O     0.57308   0.79275   0.72698   0.00000  Uiso   1.00
O1871  O     0.79276   0.92693   0.27302   0.00000  Uiso   1.00
O1872  O     0.70725   0.57308   0.72698   0.00000  Uiso   1.00
O1873  O     0.57308   0.79275   0.27302   0.00000  Uiso   1.00
O1874  O     0.92693   0.70725   0.72698   0.00000  Uiso   1.00
O1875  O     0.70725   0.92693   0.72698   0.00000  Uiso   1.00
O1876  O     0.50000   0.75000   0.25000   0.00000  Uiso   1.00
O1877  O     0.79276   0.57308   0.27302   0.00000  Uiso   1.00
O1878  O     0.92693   0.79276   0.72698   0.00000  Uiso   1.00
O1879  O     0.57308   0.70725   0.27302   0.00000  Uiso   1.00
O1880  O     0.79276   0.57308   0.72698   0.00000  Uiso   1.00
O1881  O     0.70725   0.92693   0.27302   0.00000  Uiso   1.00
O1882  O     0.57308   0.70725   0.72698   0.00000  Uiso   1.00
O1883  O     0.92693   0.79276   0.27302   0.00000  Uiso   1.00
O1884  O     0.95725   0.82308   0.77302   0.00000  Uiso   1.00
O1885  O     0.54276   0.67692   0.22698   0.00000  Uiso   1.00
O1886  O     0.67693   0.95725   0.77302   0.00000  Uiso   1.00
O1887  O     0.50000   0.75000   0.75000   0.00000  Uiso   1.00
O1888  O     0.82308   0.54276   0.22698   0.00000  Uiso   1.00
O1889  O     0.54276   0.67692   0.77302   0.00000  Uiso   1.00
O1890  O     0.95725   0.82308   0.22698   0.00000  Uiso   1.00
O1891  O     0.82308   0.54276   0.77302   0.00000  Uiso   1.00
O1892  O     0.67693   0.95725   0.22698   0.00000  Uiso   1.00
O1893  O     0.95725   0.67693   0.22698   0.00000  Uiso   1.00
O1894  O     0.54276   0.82307   0.77302   0.00000  Uiso   1.00
O1895  O     0.67693   0.54276   0.22698   0.00000  Uiso   1.00
O1896  O     0.82308   0.95725   0.77302   0.00000  Uiso   1.00
O1897  O     0.54276   0.82307   0.22698   0.00000  Uiso   1.00
O1898  O     0.75000   0.96964   0.33755   0.00000  Uiso   1.00
O1899  O     0.95725   0.67693   0.77302   0.00000  Uiso   1.00
O1900  O     0.82308   0.95725   0.22698   0.00000  Uiso   1.00
O1901  O     0.67693   0.54276   0.77302   0.00000  Uiso   1.00
O1902  O     0.54366   0.62993   0.45995   0.00000  Uiso   1.00
O1903  O     0.58795   0.67021   0.44280   0.00000  Uiso   1.00
O1904  O     0.91551   0.84696   0.53774   0.00000  Uiso   1.00
O1905  O     0.97224   0.86047   0.56019   0.00000  Uiso   1.00
O1906  O     0.85391   0.92407   0.46169   0.00000  Uiso   1.00
O1907  O     0.86130   0.98118   0.43699   0.00000  Uiso   1.00
O1908  O     0.63221   0.54809   0.54017   0.00000  Uiso   1.00
O1909  O     0.75000   0.53037   0.66245   0.00000  Uiso   1.00
O1910  O     0.67431   0.59036   0.55811   0.00000  Uiso   1.00
O1911  O     0.93855   0.86225   0.46064   0.00000  Uiso   1.00
O1912  O     0.90688   0.81474   0.43504   0.00000  Uiso   1.00
O1913  O     0.57450   0.64480   0.53841   0.00000  Uiso   1.00
O1914  O     0.51817   0.63823   0.56511   0.00000  Uiso   1.00
O1915  O     0.64578   0.57552   0.46152   0.00000  Uiso   1.00
O1916  O     0.63863   0.51839   0.43685   0.00000  Uiso   1.00
O1917  O     0.86765   0.95160   0.54028   0.00000  Uiso   1.00
O1918  O     0.82545   0.90950   0.55840   0.00000  Uiso   1.00
O1919  O     0.77480   0.87438   0.95852   0.00000  Uiso   1.00
O1920  O     0.53037   0.75000   0.33755   0.00000  Uiso   1.00
O1921  O     0.82681   0.90665   0.94791   0.00000  Uiso   1.00
O1922  O     0.65171   0.56933   0.04851   0.00000  Uiso   1.00
O1923  O     0.69329   0.61520   0.04403   0.00000  Uiso   1.00
O1924  O     0.60449   0.67453   0.96178   0.00000  Uiso   1.00
O1925  O     0.61158   0.73091   0.93518   0.00000  Uiso   1.00
O1926  O     0.88796   0.81164   0.03919   0.00000  Uiso   1.00
O1927  O     0.93550   0.84322   0.06480   0.00000  Uiso   1.00
O1928  O     0.68110   0.60898   0.96184   0.00000  Uiso   1.00
O1929  O     0.65660   0.56028   0.93054   0.00000  Uiso   1.00
O1930  O     0.80419   0.88236   0.03931   0.00000  Uiso   1.00
O1931  O     0.96964   0.75000   0.66245   0.00000  Uiso   1.00
O1932  O     0.74710   0.88526   0.06499   0.00000  Uiso   1.00
O1933  O     0.90328   0.83463   0.96208   0.00000  Uiso   1.00
O1934  O     0.88969   0.77788   0.93963   0.00000  Uiso   1.00
O1935  O     0.61956   0.70507   0.04018   0.00000  Uiso   1.00
O1936  O     0.57880   0.66130   0.05757   0.00000  Uiso   1.00
O1937  O     0.69344   0.89700   0.17548   0.00000  Uiso   1.00
O1938  O     0.63911   0.90394   0.14462   0.00000  Uiso   1.00
O1939  O     0.80784   0.60233   0.82508   0.00000  Uiso   1.00
O1940  O     0.86277   0.59567   0.85493   0.00000  Uiso   1.00
O1941  O     0.53286   0.58415   0.24338   0.00000  Uiso   1.00
O1942  O     0.75000   0.53037   0.33755   0.00000  Uiso   1.00
O1943  O     0.53140   0.62276   0.29489   0.00000  Uiso   1.00
O1944  O     0.96754   0.91428   0.75897   0.00000  Uiso   1.00
O1945  O     0.96812   0.87929   0.70458   0.00000  Uiso   1.00
O1946  O     0.81637   0.62625   0.16539   0.00000  Uiso   1.00
O1947  O     0.84761   0.57278   0.15854   0.00000  Uiso   1.00
O1948  O     0.68078   0.87429   0.83694   0.00000  Uiso   1.00
O1949  O     0.65041   0.92856   0.84088   0.00000  Uiso   1.00
O1950  O     0.96753   0.91512   0.24459   0.00000  Uiso   1.00
O1951  O     0.96740   0.87771   0.29718   0.00000  Uiso   1.00
O1952  O     0.53222   0.58603   0.75791   0.00000  Uiso   1.00
Zn1953 Zn    0.70660   0.50000   0.21735   0.00000  Uiso   1.00
Zn1954 Zn    0.54341   0.75000   0.28265   0.00000  Uiso   1.00
Zn1955 Zn    0.75000   0.95660   0.71735   0.00000  Uiso   1.00
Zn1956 Zn    0.75000   0.54341   0.28265   0.00000  Uiso   1.00
Zn1957 Zn    0.54341   0.75000   0.71735   0.00000  Uiso   1.00
Zn1958 Zn    0.95660   0.75000   0.28265   0.00000  Uiso   1.00
Zn1959 Zn    0.75000   0.54341   0.71735   0.00000  Uiso   1.00
Zn1960 Zn    0.75000   0.95660   0.28265   0.00000  Uiso   1.00
Zn1961 Zn    0.79341   0.50000   0.78265   0.00000  Uiso   1.00
Zn1962 Zn    0.50000   0.70660   0.21735   0.00000  Uiso   1.00
Zn1963 Zn    0.50000   0.79340   0.78265   0.00000  Uiso   1.00
Zn1964 Zn    0.79341   0.50000   0.21735   0.00000  Uiso   1.00
Zn1965 Zn    0.70660   0.50000   0.78265   0.00000  Uiso   1.00
Zn1966 Zn    0.50000   0.79340   0.21735   0.00000  Uiso   1.00
Zn1967 Zn    0.50000   0.70660   0.78265   0.00000  Uiso   1.00
Zn1968 Zn    0.95660   0.75000   0.71735   0.00000  Uiso   1.00
loop_
_geom_bond_atom_site_label_1
_geom_bond_atom_site_label_2
_geom_bond_distance
_geom_bond_site_symmetry_2
_ccdc_geom_bond_type
C1     C79     1.399   .     A
C1     N313    1.430   .     S
C1     C4      1.413   .     A
C2     C116    1.404   .     A
C2     N314    1.429   .     S
C2     C14     1.419   .     A
C3     C179    1.418   .     A
C3     C122    1.425   .     A
C3     C1022   1.429   1_545 S
C4     C34     1.424   .     A
C4     C123    1.420   .     A
C5     C112    1.417   .     A
C5     C125    1.420   .     A
C5     C528    1.422   1_455 S
C6     C126    1.420   .     A
C6     C124    1.417   .     A
C6     C1021   1.423   1_545 S
C7     C127    1.425   .     A
C7     C135    1.418   .     A
C7     C38     1.429   .     A
C8     C35     1.427   .     A
C8     C128    1.427   .     A
C8     C39     1.428   .     A
C9     C46     1.422   .     A
C9     C129    1.424   .     A
C9     C1024   1.428   1_545 S
C10    C41     1.422   .     A
C10    C130    1.420   .     A
C10    C57     1.417   .     A
C11    C68     1.413   .     A
C11    C131    1.420   .     A
C11    C534    1.424   .     S
C12    C132    1.417   .     A
C12    C190    1.413   .     A
C12    C1023   1.421   1_545 S
C13    N315    1.429   .     S
C13    C15     1.418   .     A
C13    C609    1.408   .     S
C14    C133    1.420   .     A
C14    C40     1.421   .     A
C15    C134    1.423   .     A
C15    C533    1.425   .     S
C16    C136    1.425   .     A
C16    C24     1.420   .     A
C16    C42     1.428   .     A
C17    C182    1.413   .     A
C17    C152    1.461   .     S
C17    C180    1.414   .     A
C18    C181    1.412   .     A
C18    C153    1.457   .     S
C18    C178    1.412   .     A
C19    C177    1.412   .     A
C19    C184    1.412   .     A
C19    C145    1.453   .     S
C20    C176    1.412   .     A
C20    C183    1.412   .     A
C20    C147    1.453   .     S
C21    C186    1.414   .     A
C21    C175    1.413   .     A
C21    C148    1.461   .     S
C22    C149    1.455   .     S
C22    C174    1.414   .     A
C22    C185    1.413   .     A
C23    C188    1.411   .     A
C23    C150    1.453   .     S
C23    C173    1.411   .     A
C24    N316    1.427   .     S
C24    C118    1.402   .     A
C25    C187    1.411   .     A
C25    C151    1.453   .     S
C25    C172    1.412   .     A
C26    C191    1.411   .     A
C26    C161    1.454   .     S
C26    C171    1.411   .     A
C27    C162    1.453   .     S
C27    C170    1.411   .     A
C27    C189    1.411   .     A
C28    C169    1.413   .     A
C28    C154    1.461   .     S
C28    C193    1.412   .     A
C29    C155    1.456   .     S
C29    C167    1.412   .     A
C29    C192    1.412   .     A
C30    C166    1.411   .     A
C30    C156    1.454   .     S
C30    C195    1.412   .     A
C31    C165    1.412   .     A
C31    C194    1.412   .     A
C31    C158    1.453   .     S
C32    C159    1.461   .     S
C32    C164    1.414   .     A
C32    C197    1.414   .     A
C33    C163    1.413   .     A
C33    C196    1.411   .     A
C33    C160    1.456   .     S
C34    C36     1.416   .     A
C34    C690    1.429   .     S
C35    C115    1.406   .     A
C35    N317    1.426   .     S
C36    C199    1.425   .     A
C36    C497    1.422   .     S
C37    C38     1.417   .     A
C37    C200    1.423   .     A
C37    C990    1.423   .     S
C38    C987    1.429   .     S
C39    C996    1.421   .     S
C39    C40     1.420   1_556 S
C40    C993    1.428   .     S
C40    C39     1.420   1_554 S
C41    C507    1.425   1_455 S
C41    C42     1.416   1_556 S
C42    C503    1.424   1_455 S
C42    C41     1.416   1_554 S
C43    O426    1.223   .     D
C43    C119    1.486   .     S
C43    O427    1.398   .     S
C44    O429    1.398   .     S
C44    O428    1.223   .     D
C44    C120    1.489   .     S
C45    O430    1.223   .     D
C45    C121    1.491   .     S
C45    O431    1.398   .     S
C46    N318    1.431   .     S
C46    C1100   1.407   1_545 S
C47    O434    1.398   .     S
C47    O432    1.223   .     D
C47    C122    1.487   .     S
C48    O436    1.398   .     S
C48    C123    1.491   .     S
C48    O435    1.223   .     D
C49    O437    1.223   .     D
C49    O438    1.398   .     S
C49    C125    1.491   .     S
C50    O439    1.223   .     D
C50    O440    1.398   .     S
C50    C126    1.491   .     S
C51    O441    1.223   .     D
C51    C127    1.487   .     S
C51    O442    1.398   .     S
C52    C128    1.484   .     S
C52    O445    1.398   .     S
C52    O443    1.223   .     D
C53    O447    1.398   .     S
C53    C129    1.481   .     S
C53    O446    1.223   .     D
C54    C130    1.491   .     S
C54    O449    1.398   .     S
C54    O448    1.223   .     D
C55    O450    1.223   .     D
C55    O451    1.398   .     S
C55    C131    1.491   .     S
C56    O452    1.223   .     D
C56    O453    1.398   .     S
C56    C132    1.493   .     S
C57    C117    1.406   .     A
C57    N319    1.428   .     S
C58    O456    1.398   .     S
C58    O454    1.223   .     D
C58    C133    1.492   .     S
C59    O458    1.398   .     S
C59    O457    1.223   .     D
C59    C134    1.489   .     S
C60    O459    1.223   .     D
C60    O460    1.398   .     S
C60    C136    1.486   .     S
C61    O462    1.398   .     S
C61    O461    1.223   .     D
C61    C163    1.493   .     S
C62    O463    1.223   .     D
C62    O464    1.398   .     S
C62    C164    1.490   .     S
C63    O465    1.222   .     D
C63    O467    1.398   .     S
C63    C165    1.489   .     S
C64    C166    1.487   .     S
C64    O468    1.222   .     D
C64    O469    1.398   .     S
C65    O470    1.222   .     D
C65    C167    1.485   .     S
C65    O471    1.398   .     S
C66    O472    1.222   .     D
C66    C169    1.482   .     S
C66    O473    1.398   .     S
C67    O474    1.222   .     D
C67    C170    1.488   .     S
C67    O475    1.398   .     S
C68    N320    1.430   .     S
C68    C610    1.399   .     S
C69    O331    1.398   .     S
C69    C171    1.487   .     S
C69    O476    1.222   .     D
C70    O332    1.222   .     D
C70    C172    1.490   .     S
C70    O333    1.399   .     S
C71    O334    1.222   .     D
C71    C173    1.487   .     S
C71    O335    1.398   .     S
C72    O336    1.223   .     D
C72    O337    1.398   .     S
C72    C174    1.492   .     S
C73    C175    1.488   .     S
C73    O338    1.222   .     D
C73    O339    1.399   .     S
C74    O340    1.222   .     D
C74    C176    1.490   .     S
C74    O342    1.398   .     S
C75    C177    1.488   .     S
C75    O344    1.398   .     S
C75    O343    1.222   .     D
C76    C178    1.485   .     S
C76    O345    1.222   .     D
C76    O346    1.398   .     S
C77    C180    1.482   .     S
C77    O348    1.398   .     S
C77    O347    1.222   .     D
C78    O349    1.223   .     D
C78    C181    1.493   .     S
C78    O350    1.398   .     S
C79    C631    1.455   .     S
C79    C638    1.402   .     S
C80    O351    1.222   .     D
C80    C182    1.488   .     S
C80    O353    1.399   .     S
C81    O354    1.222   .     D
C81    O355    1.398   .     S
C81    C183    1.489   .     S
C82    C184    1.488   .     S
C82    O356    1.222   .     D
C82    O357    1.398   .     S
C83    O359    1.398   .     S
C83    O358    1.223   .     D
C83    C185    1.492   .     S
C84    C186    1.482   .     S
C84    O361    1.398   .     S
C84    O360    1.222   .     D
C85    C187    1.488   .     S
C85    O362    1.222   .     D
C85    O364    1.398   .     S
C86    O366    1.398   .     S
C86    C188    1.487   .     S
C86    O365    1.222   .     D
C87    O367    1.222   .     D
C87    O368    1.398   .     S
C87    C189    1.488   .     S
C88    C191    1.488   .     S
C88    O370    1.398   .     S
C88    O369    1.222   .     D
C89    O372    1.398   .     S
C89    C192    1.493   .     S
C89    O371    1.223   .     D
C90    C140    1.465   .     S
C90    C157    1.408   .     A
C90    C604    1.405   .     S
C91    O375    1.398   .     S
C91    O373    1.222   .     D
C91    C193    1.482   .     S
C92    C194    1.489   .     S
C92    O377    1.398   .     S
C92    O376    1.222   .     D
C93    O379    1.398   .     S
C93    C195    1.488   .     S
C93    O378    1.222   .     D
C94    C196    1.485   .     S
C94    O380    1.222   .     D
C94    O381    1.398   .     S
C95    C197    1.482   .     S
C95    O383    1.398   .     S
C95    O382    1.222   .     D
C96    H259    1.110   .     S
C96    H260    1.109   .     S
C96    H261    1.111   .     S
C96    N805    1.445   1_455 S
C97    H265    1.111   .     S
C97    H263    1.110   .     S
C97    H264    1.111   .     S
C97    N321    1.447   .     S
C98    H268    1.110   .     S
C98    H270    1.111   .     S
C98    H267    1.110   .     S
C98    N322    1.447   .     S
C99    H274    1.111   .     S
C99    H273    1.109   .     S
C99    H1256   1.110   1_545 S
C99    N1307   1.445   1_545 S
C100   H277    1.109   .     S
C100   H278    1.112   .     S
C100   H768    1.110   .     S
C100   N816    1.445   .     S
C101   C137    1.462   .     S
C101   C168    1.405   .     A
C101   C1108   1.405   .     S
C102   H282    1.110   .     S
C102   H283    1.111   .     S
C102   N325    1.448   .     S
C102   H281    1.110   .     S
C103   H285    1.110   .     S
C103   N326    1.447   .     S
C103   H286    1.110   .     S
C103   H287    1.111   .     S
C104   H292    1.111   .     S
C104   H290    1.109   .     S
C104   H1273   1.110   .     S
C104   N1311   1.445   .     S
C105   H294    1.110   .     S
C105   H296    1.111   .     S
C105   H295    1.109   .     S
C105   N328    1.446   .     S
C106   H298    1.110   .     S
C106   H299    1.110   .     S
C106   N314    1.448   .     S
C106   H300    1.111   .     S
C107   H303    1.110   .     S
C107   N315    1.448   .     S
C107   H305    1.111   .     S
C107   H304    1.110   .     S
C108   H308    1.109   .     S
C108   N316    1.445   .     S
C108   H307    1.110   .     S
C108   H309    1.112   .     S
C109   H311    1.110   .     S
C109   N317    1.446   .     S
C109   H312    1.109   .     S
C109   H203    1.112   .     S
C110   N318    1.452   .     S
C110   H207    1.112   .     S
C110   H205    1.109   .     S
C110   H206    1.110   .     S
C111   N319    1.447   .     S
C111   H209    1.110   .     S
C111   H210    1.110   .     S
C111   H211    1.111   .     S
C112   N321    1.428   .     S
C112   C582    1.405   1_455 S
C113   C179    1.400   .     A
C113   C138    1.454   .     S
C113   C1119   1.400   1_545 S
C114   H216    1.111   .     S
C114   H214    1.110   .     S
C114   N320    1.445   .     S
C114   H215    1.109   .     S
C115   C143    1.462   .     S
C115   C1174   1.400   .     S
C116   C1030   1.407   .     S
C116   C1128   1.464   .     S
C117   C505    1.408   1_455 S
C117   C633    1.465   1_455 S
C118   C142    1.454   .     S
C118   C560    1.399   1_455 S
C119   C198    1.425   .     A
C119   C125    1.407   .     A
C120   C199    1.423   .     A
C120   C123    1.405   .     A
C121   C127    1.405   .     A
C121   C200    1.420   .     A
C122   C126    1.405   .     A
C124   N322    1.429   .     S
C124   C1085   1.405   1_545 S
C128   C133    1.410   1_556 S
C129   C132    1.407   1_554 S
C130   C136    1.407   1_556 S
C131   C134    1.405   1_554 S
C132   C129    1.407   1_556 S
C133   C128    1.410   1_554 S
C134   C131    1.405   1_556 S
C135   N323    1.428   .     S
C135   C1097   1.400   .     S
C136   C130    1.407   1_554 S
C137   O422    1.278   .     A
C137   O1450   1.278   .     S
C138   O433    1.275   .     A
C138   O1314   1.275   1_545 S
C139   O444    1.276   .     A
C139   C571    1.455   1_455 S
C139   O833    1.277   1_455 S
C140   O455    1.277   .     A
C140   O844    1.281   .     S
C141   O878    1.277   .     A
C141   C609    1.465   .     S
C141   O855    1.280   .     S
C142   O374    1.276   .     S
C142   O387    1.275   .     S
C143   O1368   1.278   .     S
C143   O1372   1.278   .     S
C144   O390    1.282   .     A
C144   O385    1.276   .     A
C144   C1100   1.464   1_545 S
C145   O419    1.279   .     A
C145   O391    1.279   .     A
C146   N324    1.427   .     S
C146   C198    1.420   .     A
C146   C571    1.402   1_455 S
C147   O420    1.280   .     A
C147   O392    1.279   .     A
C148   O417    1.283   .     A
C148   O393    1.277   .     A
C149   O418    1.279   .     A
C149   O394    1.279   .     A
C150   O424    1.279   .     A
C150   O395    1.279   .     A
C151   O425    1.279   .     A
C151   O396    1.279   .     A
C152   O397    1.283   .     A
C152   O421    1.277   .     A
C153   O423    1.276   .     A
C153   O398    1.281   .     A
C154   O410    1.280   .     A
C154   O399    1.281   .     A
C155   O401    1.281   .     A
C155   O412    1.277   .     A
C156   O408    1.279   .     A
C156   O402    1.280   .     A
C157   C199    1.418   .     A
C157   N325    1.429   .     S
C158   O403    1.279   .     A
C158   O409    1.279   .     A
C159   O404    1.277   .     A
C159   O415    1.282   .     A
C160   O405    1.276   .     A
C160   O416    1.281   .     A
C161   O413    1.279   .     A
C161   O406    1.279   .     A
C162   O414    1.279   .     A
C162   O407    1.279   .     A
C163   C180    1.405   .     A
C164   C178    1.404   .     A
C165   C177    1.405   .     A
C166   C176    1.404   .     A
C167   C175    1.404   .     A
C168   N326    1.429   .     S
C168   C200    1.417   .     A
C169   C174    1.404   .     A
C170   C173    1.404   .     A
C171   C172    1.405   .     A
C179   N327    1.428   .     S
C181   C197    1.404   .     A
C182   C196    1.403   .     A
C183   C195    1.405   .     A
C184   C194    1.405   .     A
C185   C193    1.404   .     A
C186   C192    1.404   .     A
C187   C191    1.404   .     A
C188   C189    1.404   .     A
C190   N328    1.431   .     S
C190   C1099   1.400   1_545 S
C198   C526    1.429   1_455 S
H201   O427    1.014   .     S
H202   O447    1.014   .     S
H204   N318    1.032   .     S
H208   N319    1.031   .     S
H212   N320    1.030   .     S
H213   O449    1.014   .     S
H217   O451    1.014   .     S
H218   O453    1.014   .     S
H219   O456    1.014   .     S
H220   O458    1.014   .     S
H221   O460    1.014   .     S
H222   O462    1.014   .     S
H223   O464    1.013   .     S
H224   O467    1.014   .     S
H225   O429    1.014   .     S
H226   O469    1.014   .     S
H227   O471    1.014   .     S
H228   O473    1.014   .     S
H229   O475    1.013   .     S
H230   O331    1.014   .     S
H231   O333    1.014   .     S
H232   O335    1.013   .     S
H233   O337    1.014   .     S
H234   O339    1.013   .     S
H235   O342    1.014   .     S
H236   O431    1.014   .     S
H237   O344    1.014   .     S
H238   O346    1.014   .     S
H239   O348    1.013   .     S
H240   O350    1.014   .     S
H241   O353    1.013   .     S
H242   O355    1.014   .     S
H243   O357    1.014   .     S
H244   O359    1.014   .     S
H245   O361    1.013   .     S
H246   O364    1.014   .     S
H247   O434    1.014   .     S
H248   O366    1.013   .     S
H249   O368    1.013   .     S
H250   O370    1.014   .     S
H251   O372    1.014   .     S
H252   O375    1.013   .     S
H253   O377    1.014   .     S
H254   O379    1.014   .     S
H255   O381    1.014   .     S
H256   O383    1.013   .     S
H257   N313    1.030   .     S
H258   O436    1.014   .     S
H262   N321    1.031   .     S
H266   N322    1.031   .     S
H269   O438    1.014   .     S
H271   N323    1.030   .     S
H272   C1083   1.110   .     S
H275   N324    1.030   .     S
H276   C592    1.110   1_455 S
H279   N325    1.031   .     S
H280   O440    1.014   .     S
H284   N326    1.031   .     S
H288   N327    1.030   .     S
H289   C1088   1.110   1_545 S
H291   O442    1.014   .     S
H293   N328    1.030   .     S
H297   N314    1.031   .     S
H301   N315    1.031   .     S
H302   O445    1.014   .     S
H306   N316    1.030   .     S
H310   N317    1.031   .     S
N313   C588    1.445   .     S
N323   C1083   1.445   .     S
N324   C592    1.445   1_455 S
N327   C1088   1.445   1_545 S
O329   Zn480   1.948   .     S
O329   Zn488   1.949   .     S
O329   Zn477   1.949   .     S
O329   Zn1468  1.947   1_545 S
O330   Zn479   1.953   .     S
O330   C1122   1.275   .     S
O341   Zn482   1.954   .     S
O341   C631    1.277   .     S
O352   Zn481   1.954   .     S
O352   C632    1.281   1_455 S
O363   C633    1.280   1_455 S
O363   Zn491   1.954   .     S
O374   Zn490   1.954   .     S
O384   Zn485   1.954   .     S
O384   C1127   1.278   1_545 S
O385   Zn477   1.954   .     S
O386   C633    1.277   1_455 A
O386   Zn487   1.953   .     S
O387   Zn486   1.953   .     S
O388   Zn489   1.954   .     S
O388   C1127   1.278   1_545 S
O389   Zn489   1.949   .     S
O389   Zn485   1.949   .     S
O389   Zn483   1.947   .     S
O389   Zn1463  1.948   1_545 S
O390   Zn488   1.954   .     S
O391   Zn480   1.930   .     S
O392   Zn479   1.930   .     S
O393   Zn482   1.938   .     S
O394   Zn481   1.938   .     S
O395   Zn484   1.931   .     S
O396   Zn483   1.931   .     S
O397   Zn478   1.938   .     S
O398   Zn492   1.938   .     S
O399   Zn479   1.939   .     S
O400   Zn974   1.949   1_455 S
O400   Zn486   1.948   .     S
O400   Zn478   1.949   .     S
O400   Zn490   1.947   .     S
O401   Zn480   1.939   .     S
O402   Zn492   1.930   .     S
O403   Zn478   1.930   .     S
O404   Zn483   1.939   .     S
O405   Zn484   1.939   .     S
O406   Zn481   1.930   .     S
O407   Zn482   1.930   .     S
O408   Zn979   1.930   .     S
O409   Zn486   1.930   .     S
O410   Zn1473  1.938   .     S
O411   Zn491   1.947   .     S
O411   Zn984   1.949   1_455 S
O411   Zn481   1.949   .     S
O411   Zn487   1.948   .     S
O412   Zn488   1.938   .     S
O413   Zn491   1.931   .     S
O414   Zn982   1.931   .     S
O415   Zn485   1.938   .     S
O416   Zn1461  1.938   .     S
O417   Zn978   1.939   .     S
O418   Zn487   1.939   .     S
O419   Zn477   1.930   .     S
O420   Zn1469  1.930   .     S
O421   Zn490   1.939   .     S
O422   Zn484   1.954   .     S
O423   Zn983   1.939   .     S
O424   Zn1472  1.930   .     S
O425   Zn489   1.930   .     S
O433   Zn483   1.954   .     S
O444   Zn478   1.954   .     S
O455   Zn492   1.954   .     S
O466   Zn480   1.953   .     S
O466   C1121   1.278   1_545 S
Zn477  O1400   1.938   1_545 S
Zn479  O1373   1.948   .     S
Zn482  O892    1.949   .     S
Zn484  O1313   1.947   .     S
Zn485  O1404   1.930   1_545 S
Zn486  O909    1.939   1_455 S
Zn487  O900    1.930   1_455 S
Zn488  O1408   1.930   1_545 S
Zn489  O1394   1.938   1_545 S
Zn490  O906    1.931   1_455 S
Zn491  O915    1.939   1_455 S
Zn492  O903    1.949   .     S
C493   C571    1.399   .     A
C493   N805    1.430   .     S
C493   C496    1.413   .     A
C494   C608    1.404   .     A
C494   N806    1.429   .     S
C494   C506    1.419   .     A
C495   C671    1.418   .     A
C495   C614    1.425   .     A
C495   C1514   1.429   1_545 S
C496   C526    1.424   .     A
C496   C615    1.420   .     A
C497   C604    1.417   .     A
C497   C617    1.420   .     A
C498   C618    1.420   .     A
C498   C616    1.417   .     A
C498   C1513   1.423   1_545 S
C499   C619    1.425   .     A
C499   C627    1.418   .     A
C499   C530    1.429   .     A
C500   C527    1.427   .     A
C500   C620    1.427   .     A
C500   C531    1.428   .     A
C501   C538    1.422   .     A
C501   C621    1.424   .     A
C501   C1516   1.428   1_545 S
C502   C533    1.422   .     A
C502   C622    1.420   .     A
C502   C549    1.417   .     A
C503   C560    1.413   .     A
C503   C623    1.420   .     A
C503   C42     1.424   1_655 S
C504   C624    1.417   .     A
C504   C682    1.413   .     A
C504   C1515   1.421   1_545 S
C505   N807    1.429   .     S
C505   C507    1.418   .     A
C505   C117    1.408   1_655 S
C506   C625    1.420   .     A
C506   C532    1.421   .     A
C507   C626    1.423   .     A
C507   C41     1.425   1_655 S
C508   C628    1.425   .     A
C508   C516    1.420   .     A
C508   C534    1.428   .     A
C509   C674    1.413   .     A
C509   C644    1.461   .     S
C509   C672    1.414   .     A
C510   C673    1.412   .     A
C510   C645    1.457   .     S
C510   C670    1.412   .     A
C511   C669    1.412   .     A
C511   C676    1.412   .     A
C511   C637    1.453   .     S
C512   C668    1.412   .     A
C512   C675    1.412   .     A
C512   C639    1.453   .     S
C513   C678    1.414   .     A
C513   C667    1.413   .     A
C513   C640    1.461   .     S
C514   C641    1.455   .     S
C514   C666    1.414   .     A
C514   C677    1.413   .     A
C515   C680    1.411   .     A
C515   C642    1.453   .     S
C515   C665    1.411   .     A
C516   N808    1.427   .     S
C516   C610    1.402   .     A
C517   C679    1.411   .     A
C517   C643    1.453   .     S
C517   C664    1.412   .     A
C518   C683    1.411   .     A
C518   C653    1.454   .     S
C518   C663    1.411   .     A
C519   C654    1.453   .     S
C519   C662    1.411   .     A
C519   C681    1.411   .     A
C520   C661    1.413   .     A
C520   C646    1.461   .     S
C520   C685    1.412   .     A
C521   C647    1.456   .     S
C521   C659    1.412   .     A
C521   C684    1.412   .     A
C522   C658    1.411   .     A
C522   C648    1.454   .     S
C522   C687    1.412   .     A
C523   C657    1.412   .     A
C523   C686    1.412   .     A
C523   C650    1.453   .     S
C524   C651    1.461   .     S
C524   C656    1.414   .     A
C524   C689    1.414   .     A
C525   C655    1.413   .     A
C525   C688    1.411   .     A
C525   C652    1.456   .     S
C526   C528    1.416   .     A
C526   C198    1.429   1_655 S
C527   C607    1.406   .     A
C527   N809    1.426   .     S
C528   C691    1.425   .     A
C528   C5      1.422   1_655 S
C529   C530    1.417   .     A
C529   C692    1.423   .     A
C529   C1482   1.423   .     S
C530   C1479   1.429   .     S
C531   C1488   1.421   .     S
C531   C532    1.420   1_556 S
C532   C1485   1.428   .     S
C532   C531    1.420   1_554 S
C533   C534    1.416   1_556 S
C534   C533    1.416   1_554 S
C535   O918    1.223   .     D
C535   C611    1.486   .     S
C535   O919    1.398   .     S
C536   O921    1.398   .     S
C536   O920    1.223   .     D
C536   C612    1.489   .     S
C537   O922    1.223   .     D
C537   C613    1.491   .     S
C537   O923    1.398   .     S
C538   N810    1.431   .     S
C538   C1592   1.407   1_545 S
C539   O926    1.398   .     S
C539   O924    1.223   .     D
C539   C614    1.487   .     S
C540   O928    1.398   .     S
C540   C615    1.491   .     S
C540   O927    1.223   .     D
C541   O929    1.223   .     D
C541   O930    1.398   .     S
C541   C617    1.491   .     S
C542   O931    1.223   .     D
C542   O932    1.398   .     S
C542   C618    1.491   .     S
C543   O933    1.223   .     D
C543   C619    1.487   .     S
C543   O934    1.398   .     S
C544   C620    1.484   .     S
C544   O937    1.398   .     S
C544   O935    1.223   .     D
C545   O939    1.398   .     S
C545   C621    1.481   .     S
C545   O938    1.223   .     D
C546   C622    1.491   .     S
C546   O941    1.398   .     S
C546   O940    1.223   .     D
C547   O942    1.223   .     D
C547   O943    1.398   .     S
C547   C623    1.491   .     S
C548   O944    1.223   .     D
C548   O945    1.398   .     S
C548   C624    1.493   .     S
C549   C609    1.406   .     A
C549   N811    1.428   .     S
C550   O948    1.398   .     S
C550   O946    1.223   .     D
C550   C625    1.492   .     S
C551   O950    1.398   .     S
C551   O949    1.223   .     D
C551   C626    1.489   .     S
C552   O951    1.223   .     D
C552   O952    1.398   .     S
C552   C628    1.486   .     S
C553   O954    1.398   .     S
C553   O953    1.223   .     D
C553   C655    1.493   .     S
C554   O955    1.223   .     D
C554   O956    1.398   .     S
C554   C656    1.490   .     S
C555   O957    1.222   .     D
C555   O959    1.398   .     S
C555   C657    1.489   .     S
C556   C658    1.487   .     S
C556   O960    1.222   .     D
C556   O961    1.398   .     S
C557   O962    1.222   .     D
C557   C659    1.485   .     S
C557   O963    1.398   .     S
C558   O964    1.222   .     D
C558   C661    1.482   .     S
C558   O965    1.398   .     S
C559   O966    1.222   .     D
C559   C662    1.488   .     S
C559   O967    1.398   .     S
C560   N812    1.430   .     S
C560   C118    1.399   1_655 S
C561   O823    1.398   .     S
C561   C663    1.487   .     S
C561   O968    1.222   .     D
C562   O824    1.222   .     D
C562   C664    1.490   .     S
C562   O825    1.399   .     S
C563   O826    1.222   .     D
C563   C665    1.487   .     S
C563   O827    1.398   .     S
C564   O828    1.223   .     D
C564   O829    1.398   .     S
C564   C666    1.492   .     S
C565   C667    1.488   .     S
C565   O830    1.222   .     D
C565   O831    1.399   .     S
C566   O832    1.222   .     D
C566   C668    1.490   .     S
C566   O834    1.398   .     S
C567   C669    1.488   .     S
C567   O836    1.398   .     S
C567   O835    1.222   .     D
C568   C670    1.485   .     S
C568   O837    1.222   .     D
C568   O838    1.398   .     S
C569   C672    1.482   .     S
C569   O840    1.398   .     S
C569   O839    1.222   .     D
C570   O841    1.223   .     D
C570   C673    1.493   .     S
C570   O842    1.398   .     S
C571   C139    1.455   1_655 S
C571   C146    1.402   1_655 S
C572   O843    1.222   .     D
C572   C674    1.488   .     S
C572   O845    1.399   .     S
C573   O846    1.222   .     D
C573   O847    1.398   .     S
C573   C675    1.489   .     S
C574   C676    1.488   .     S
C574   O848    1.222   .     D
C574   O849    1.398   .     S
C575   O851    1.398   .     S
C575   O850    1.223   .     D
C575   C677    1.492   .     S
C576   C678    1.482   .     S
C576   O853    1.398   .     S
C576   O852    1.222   .     D
C577   C679    1.488   .     S
C577   O854    1.222   .     D
C577   O856    1.398   .     S
C578   O858    1.398   .     S
C578   C680    1.487   .     S
C578   O857    1.222   .     D
C579   O859    1.222   .     D
C579   O860    1.398   .     S
C579   C681    1.488   .     S
C580   C683    1.488   .     S
C580   O862    1.398   .     S
C580   O861    1.222   .     D
C581   O864    1.398   .     S
C581   C684    1.493   .     S
C581   O863    1.223   .     D
C582   C632    1.465   .     S
C582   C649    1.408   .     A
C582   C112    1.405   1_655 S
C583   O867    1.398   .     S
C583   O865    1.222   .     D
C583   C685    1.482   .     S
C584   C686    1.489   .     S
C584   O869    1.398   .     S
C584   O868    1.222   .     D
C585   O871    1.398   .     S
C585   C687    1.488   .     S
C585   O870    1.222   .     D
C586   C688    1.485   .     S
C586   O872    1.222   .     D
C586   O873    1.398   .     S
C587   C689    1.482   .     S
C587   O875    1.398   .     S
C587   O874    1.222   .     D
C588   H751    1.110   .     S
C588   H752    1.109   .     S
C588   H753    1.111   .     S
C589   H757    1.111   .     S
C589   H755    1.110   .     S
C589   H756    1.111   .     S
C589   N813    1.447   .     S
C590   H760    1.110   .     S
C590   H762    1.111   .     S
C590   H759    1.110   .     S
C590   N814    1.447   .     S
C591   H766    1.111   .     S
C591   H765    1.109   .     S
C591   H1748   1.110   1_545 S
C591   N1799   1.445   1_545 S
C592   H769    1.109   .     S
C592   H770    1.112   .     S
C592   H276    1.110   1_655 S
C592   N324    1.445   1_655 S
C593   C629    1.462   .     S
C593   C660    1.405   .     A
C593   C1600   1.405   .     S
C594   H774    1.110   .     S
C594   H775    1.111   .     S
C594   N817    1.448   .     S
C594   H773    1.110   .     S
C595   H777    1.110   .     S
C595   N818    1.447   .     S
C595   H778    1.110   .     S
C595   H779    1.111   .     S
C596   H784    1.111   .     S
C596   H782    1.109   .     S
C596   H1765   1.110   .     S
C596   N1803   1.445   .     S
C597   H786    1.110   .     S
C597   H788    1.111   .     S
C597   H787    1.109   .     S
C597   N820    1.446   .     S
C598   H790    1.110   .     S
C598   H791    1.110   .     S
C598   N806    1.448   .     S
C598   H792    1.111   .     S
C599   H795    1.110   .     S
C599   N807    1.448   .     S
C599   H797    1.111   .     S
C599   H796    1.110   .     S
C600   H800    1.109   .     S
C600   N808    1.445   .     S
C600   H799    1.110   .     S
C600   H801    1.112   .     S
C601   H803    1.110   .     S
C601   N809    1.446   .     S
C601   H804    1.109   .     S
C601   H695    1.112   .     S
C602   N810    1.452   .     S
C602   H699    1.112   .     S
C602   H697    1.109   .     S
C602   H698    1.110   .     S
C603   N811    1.447   .     S
C603   H701    1.110   .     S
C603   H702    1.110   .     S
C603   H703    1.111   .     S
C604   N813    1.428   .     S
C605   C671    1.400   .     A
C605   C630    1.454   .     S
C605   C1611   1.400   1_545 S
C606   H708    1.111   .     S
C606   H706    1.110   .     S
C606   N812    1.445   .     S
C606   H707    1.109   .     S
C607   C635    1.462   .     S
C607   C1666   1.400   .     S
C608   C1522   1.407   .     S
C608   C1620   1.464   .     S
C610   C634    1.454   .     S
C611   C690    1.425   .     A
C611   C617    1.407   .     A
C612   C691    1.423   .     A
C612   C615    1.405   .     A
C613   C619    1.405   .     A
C613   C692    1.420   .     A
C614   C618    1.405   .     A
C616   N814    1.429   .     S
C616   C1577   1.405   1_545 S
C620   C625    1.410   1_556 S
C621   C624    1.407   1_554 S
C622   C628    1.407   1_556 S
C623   C626    1.405   1_554 S
C624   C621    1.407   1_556 S
C625   C620    1.410   1_554 S
C626   C623    1.405   1_556 S
C627   N815    1.428   .     S
C627   C1589   1.400   .     S
C628   C622    1.407   1_554 S
C629   O914    1.278   .     A
C629   O1942   1.278   .     S
C630   O925    1.275   .     A
C630   O1806   1.275   1_545 S
C631   O936    1.276   .     A
C632   O947    1.277   .     A
C632   O352    1.281   1_655 S
C633   O386    1.277   1_655 A
C633   C117    1.465   1_655 S
C633   O363    1.280   1_655 S
C634   O866    1.276   .     S
C634   O879    1.275   .     S
C635   O1860   1.278   .     S
C635   O1864   1.278   .     S
C636   O882    1.282   .     A
C636   O877    1.276   .     A
C636   C1592   1.464   1_545 S
C637   O911    1.279   .     A
C637   O883    1.279   .     A
C638   N816    1.427   .     S
C638   C690    1.420   .     A
C639   O912    1.280   .     A
C639   O884    1.279   .     A
C640   O909    1.283   .     A
C640   O885    1.277   .     A
C641   O910    1.279   .     A
C641   O886    1.279   .     A
C642   O916    1.279   .     A
C642   O887    1.279   .     A
C643   O917    1.279   .     A
C643   O888    1.279   .     A
C644   O889    1.283   .     A
C644   O913    1.277   .     A
C645   O915    1.276   .     A
C645   O890    1.281   .     A
C646   O902    1.280   .     A
C646   O891    1.281   .     A
C647   O893    1.281   .     A
C647   O904    1.277   .     A
C648   O900    1.279   .     A
C648   O894    1.280   .     A
C649   C691    1.418   .     A
C649   N817    1.429   .     S
C650   O895    1.279   .     A
C650   O901    1.279   .     A
C651   O896    1.277   .     A
C651   O907    1.282   .     A
C652   O897    1.276   .     A
C652   O908    1.281   .     A
C653   O905    1.279   .     A
C653   O898    1.279   .     A
C654   O906    1.279   .     A
C654   O899    1.279   .     A
C655   C672    1.405   .     A
C656   C670    1.404   .     A
C657   C669    1.405   .     A
C658   C668    1.404   .     A
C659   C667    1.404   .     A
C660   N818    1.429   .     S
C660   C692    1.417   .     A
C661   C666    1.404   .     A
C662   C665    1.404   .     A
C663   C664    1.405   .     A
C671   N819    1.428   .     S
C673   C689    1.404   .     A
C674   C688    1.403   .     A
C675   C687    1.405   .     A
C676   C686    1.405   .     A
C677   C685    1.404   .     A
C678   C684    1.404   .     A
C679   C683    1.404   .     A
C680   C681    1.404   .     A
C682   N820    1.431   .     S
C682   C1591   1.400   1_545 S
H693   O919    1.014   .     S
H694   O939    1.014   .     S
H696   N810    1.032   .     S
H700   N811    1.031   .     S
H704   N812    1.030   .     S
H705   O941    1.014   .     S
H709   O943    1.014   .     S
H710   O945    1.014   .     S
H711   O948    1.014   .     S
H712   O950    1.014   .     S
H713   O952    1.014   .     S
H714   O954    1.014   .     S
H715   O956    1.013   .     S
H716   O959    1.014   .     S
H717   O921    1.014   .     S
H718   O961    1.014   .     S
H719   O963    1.014   .     S
H720   O965    1.014   .     S
H721   O967    1.013   .     S
H722   O823    1.014   .     S
H723   O825    1.014   .     S
H724   O827    1.013   .     S
H725   O829    1.014   .     S
H726   O831    1.013   .     S
H727   O834    1.014   .     S
H728   O923    1.014   .     S
H729   O836    1.014   .     S
H730   O838    1.014   .     S
H731   O840    1.013   .     S
H732   O842    1.014   .     S
H733   O845    1.013   .     S
H734   O847    1.014   .     S
H735   O849    1.014   .     S
H736   O851    1.014   .     S
H737   O853    1.013   .     S
H738   O856    1.014   .     S
H739   O926    1.014   .     S
H740   O858    1.013   .     S
H741   O860    1.013   .     S
H742   O862    1.014   .     S
H743   O864    1.014   .     S
H744   O867    1.013   .     S
H745   O869    1.014   .     S
H746   O871    1.014   .     S
H747   O873    1.014   .     S
H748   O875    1.013   .     S
H749   N805    1.030   .     S
H750   O928    1.014   .     S
H754   N813    1.031   .     S
H758   N814    1.031   .     S
H761   O930    1.014   .     S
H763   N815    1.030   .     S
H764   C1575   1.110   .     S
H767   N816    1.030   .     S
H771   N817    1.031   .     S
H772   O932    1.014   .     S
H776   N818    1.031   .     S
H780   N819    1.030   .     S
H781   C1580   1.110   1_545 S
H783   O934    1.014   .     S
H785   N820    1.030   .     S
H789   N806    1.031   .     S
H793   N807    1.031   .     S
H794   O937    1.014   .     S
H798   N808    1.030   .     S
H802   N809    1.031   .     S
N805   C96     1.445   1_655 S
N815   C1575   1.445   .     S
N819   C1580   1.445   1_545 S
O821   Zn972   1.948   .     S
O821   Zn980   1.949   .     S
O821   Zn969   1.949   .     S
O821   Zn1960  1.947   1_545 S
O822   Zn971   1.953   .     S
O822   C1614   1.275   .     S
O833   Zn974   1.954   .     S
O833   C139    1.277   1_655 S
O844   Zn973   1.954   .     S
O855   Zn983   1.954   .     S
O866   Zn982   1.954   .     S
O876   Zn977   1.954   .     S
O876   C1619   1.278   1_545 S
O877   Zn969   1.954   .     S
O878   Zn979   1.953   .     S
O879   Zn978   1.953   .     S
O880   Zn981   1.954   .     S
O880   C1619   1.278   1_545 S
O881   Zn981   1.949   .     S
O881   Zn977   1.949   .     S
O881   Zn975   1.947   .     S
O881   Zn1955  1.948   1_545 S
O882   Zn980   1.954   .     S
O883   Zn972   1.930   .     S
O884   Zn971   1.930   .     S
O885   Zn974   1.938   .     S
O886   Zn973   1.938   .     S
O887   Zn976   1.931   .     S
O888   Zn975   1.931   .     S
O889   Zn970   1.938   .     S
O890   Zn984   1.938   .     S
O891   Zn971   1.939   .     S
O892   Zn978   1.948   .     S
O892   Zn970   1.949   .     S
O892   Zn982   1.947   .     S
O893   Zn972   1.939   .     S
O894   Zn984   1.930   .     S
O895   Zn970   1.930   .     S
O896   Zn975   1.939   .     S
O897   Zn976   1.939   .     S
O898   Zn973   1.930   .     S
O899   Zn974   1.930   .     S
O900   Zn487   1.930   1_655 S
O901   Zn978   1.930   .     S
O902   Zn1965  1.938   .     S
O903   Zn983   1.947   .     S
O903   Zn973   1.949   .     S
O903   Zn979   1.948   .     S
O904   Zn980   1.938   .     S
O905   Zn983   1.931   .     S
O906   Zn490   1.931   1_655 S
O907   Zn977   1.938   .     S
O908   Zn1953  1.938   .     S
O909   Zn486   1.939   1_655 S
O910   Zn979   1.939   .     S
O911   Zn969   1.930   .     S
O912   Zn1961  1.930   .     S
O913   Zn982   1.939   .     S
O914   Zn976   1.954   .     S
O915   Zn491   1.939   1_655 S
O916   Zn1964  1.930   .     S
O917   Zn981   1.930   .     S
O925   Zn975   1.954   .     S
O936   Zn970   1.954   .     S
O947   Zn984   1.954   .     S
O958   Zn972   1.953   .     S
O958   C1613   1.278   1_545 S
Zn969  O1892   1.938   1_545 S
Zn971  O1865   1.948   .     S
Zn974  O400    1.949   1_655 S
Zn976  O1805   1.947   .     S
Zn977  O1896   1.930   1_545 S
Zn980  O1900   1.930   1_545 S
Zn981  O1886   1.938   1_545 S
Zn984  O411    1.949   1_655 S
C985   C1063   1.399   .     A
C985   N1297   1.430   .     S
C985   C988    1.413   .     A
C986   C1100   1.404   .     A
C986   N1298   1.429   .     S
C986   C998    1.419   .     A
C987   C1163   1.418   .     A
C987   C1106   1.425   .     A
C988   C1018   1.424   .     A
C988   C1107   1.420   .     A
C989   C1096   1.417   .     A
C989   C1109   1.420   .     A
C989   C1512   1.422   1_455 S
C990   C1110   1.420   .     A
C990   C1108   1.417   .     A
C991   C1111   1.425   .     A
C991   C1119   1.418   .     A
C991   C1022   1.429   .     A
C992   C1019   1.427   .     A
C992   C1112   1.427   .     A
C992   C1023   1.428   .     A
C993   C1030   1.422   .     A
C993   C1113   1.424   .     A
C994   C1025   1.422   .     A
C994   C1114   1.420   .     A
C994   C1041   1.417   .     A
C995   C1052   1.413   .     A
C995   C1115   1.420   .     A
C995   C1518   1.424   .     S
C996   C1116   1.417   .     A
C996   C1174   1.413   .     A
C997   N1299   1.429   .     S
C997   C999    1.418   .     A
C997   C1593   1.408   .     S
C998   C1117   1.420   .     A
C998   C1024   1.421   .     A
C999   C1118   1.423   .     A
C999   C1517   1.425   .     S
C1000  C1120   1.425   .     A
C1000  C1008   1.420   .     A
C1000  C1026   1.428   .     A
C1001  C1166   1.413   .     A
C1001  C1136   1.461   .     S
C1001  C1164   1.414   .     A
C1002  C1165   1.412   .     A
C1002  C1137   1.457   .     S
C1002  C1162   1.412   .     A
C1003  C1161   1.412   .     A
C1003  C1168   1.412   .     A
C1003  C1129   1.453   .     S
C1004  C1160   1.412   .     A
C1004  C1167   1.412   .     A
C1004  C1131   1.453   .     S
C1005  C1170   1.414   .     A
C1005  C1159   1.413   .     A
C1005  C1132   1.461   .     S
C1006  C1133   1.455   .     S
C1006  C1158   1.414   .     A
C1006  C1169   1.413   .     A
C1007  C1172   1.411   .     A
C1007  C1134   1.453   .     S
C1007  C1157   1.411   .     A
C1008  N1300   1.427   .     S
C1008  C1102   1.402   .     A
C1009  C1171   1.411   .     A
C1009  C1135   1.453   .     S
C1009  C1156   1.412   .     A
C1010  C1175   1.411   .     A
C1010  C1145   1.454   .     S
C1010  C1155   1.411   .     A
C1011  C1146   1.453   .     S
C1011  C1154   1.411   .     A
C1011  C1173   1.411   .     A
C1012  C1153   1.413   .     A
C1012  C1138   1.461   .     S
C1012  C1177   1.412   .     A
C1013  C1139   1.456   .     S
C1013  C1151   1.412   .     A
C1013  C1176   1.412   .     A
C1014  C1150   1.411   .     A
C1014  C1140   1.454   .     S
C1014  C1179   1.412   .     A
C1015  C1149   1.412   .     A
C1015  C1178   1.412   .     A
C1015  C1142   1.453   .     S
C1016  C1143   1.461   .     S
C1016  C1148   1.414   .     A
C1016  C1181   1.414   .     A
C1017  C1147   1.413   .     A
C1017  C1180   1.411   .     A
C1017  C1144   1.456   .     S
C1018  C1020   1.416   .     A
C1018  C1674   1.429   .     S
C1019  C1099   1.406   .     A
C1019  N1301   1.426   .     S
C1020  C1183   1.425   .     A
C1020  C1481   1.422   .     S
C1021  C1022   1.417   .     A
C1021  C1184   1.423   .     A
C1021  C6      1.423   1_565 S
C1022  C3      1.429   1_565 S
C1023  C12     1.421   1_565 S
C1023  C1024   1.420   1_556 S
C1024  C9      1.428   1_565 S
C1024  C1023   1.420   1_554 S
C1025  C1491   1.425   1_455 S
C1025  C1026   1.416   1_556 S
C1026  C1487   1.424   1_455 S
C1026  C1025   1.416   1_554 S
C1027  O1410   1.223   .     D
C1027  C1103   1.486   .     S
C1027  O1411   1.398   .     S
C1028  O1413   1.398   .     S
C1028  O1412   1.223   .     D
C1028  C1104   1.489   .     S
C1029  O1414   1.223   .     D
C1029  C1105   1.491   .     S
C1029  O1415   1.398   .     S
C1030  N1302   1.431   .     S
C1031  O1418   1.398   .     S
C1031  O1416   1.223   .     D
C1031  C1106   1.487   .     S
C1032  O1420   1.398   .     S
C1032  C1107   1.491   .     S
C1032  O1419   1.223   .     D
C1033  O1421   1.223   .     D
C1033  O1422   1.398   .     S
C1033  C1109   1.491   .     S
C1034  O1423   1.223   .     D
C1034  O1424   1.398   .     S
C1034  C1110   1.491   .     S
C1035  O1425   1.223   .     D
C1035  C1111   1.487   .     S
C1035  O1426   1.398   .     S
C1036  C1112   1.484   .     S
C1036  O1429   1.398   .     S
C1036  O1427   1.223   .     D
C1037  O1431   1.398   .     S
C1037  C1113   1.481   .     S
C1037  O1430   1.223   .     D
C1038  C1114   1.491   .     S
C1038  O1433   1.398   .     S
C1038  O1432   1.223   .     D
C1039  O1434   1.223   .     D
C1039  O1435   1.398   .     S
C1039  C1115   1.491   .     S
C1040  O1436   1.223   .     D
C1040  O1437   1.398   .     S
C1040  C1116   1.493   .     S
C1041  C1101   1.406   .     A
C1041  N1303   1.428   .     S
C1042  O1440   1.398   .     S
C1042  O1438   1.223   .     D
C1042  C1117   1.492   .     S
C1043  O1442   1.398   .     S
C1043  O1441   1.223   .     D
C1043  C1118   1.489   .     S
C1044  O1443   1.223   .     D
C1044  O1444   1.398   .     S
C1044  C1120   1.486   .     S
C1045  O1446   1.398   .     S
C1045  O1445   1.223   .     D
C1045  C1147   1.493   .     S
C1046  O1447   1.223   .     D
C1046  O1448   1.398   .     S
C1046  C1148   1.490   .     S
C1047  O1449   1.222   .     D
C1047  O1451   1.398   .     S
C1047  C1149   1.489   .     S
C1048  C1150   1.487   .     S
C1048  O1452   1.222   .     D
C1048  O1453   1.398   .     S
C1049  O1454   1.222   .     D
C1049  C1151   1.485   .     S
C1049  O1455   1.398   .     S
C1050  O1456   1.222   .     D
C1050  C1153   1.482   .     S
C1050  O1457   1.398   .     S
C1051  O1458   1.222   .     D
C1051  C1154   1.488   .     S
C1051  O1459   1.398   .     S
C1052  N1304   1.430   .     S
C1052  C1594   1.399   .     S
C1053  O1315   1.398   .     S
C1053  C1155   1.487   .     S
C1053  O1460   1.222   .     D
C1054  O1316   1.222   .     D
C1054  C1156   1.490   .     S
C1054  O1317   1.399   .     S
C1055  O1318   1.222   .     D
C1055  C1157   1.487   .     S
C1055  O1319   1.398   .     S
C1056  O1320   1.223   .     D
C1056  O1321   1.398   .     S
C1056  C1158   1.492   .     S
C1057  C1159   1.488   .     S
C1057  O1322   1.222   .     D
C1057  O1323   1.399   .     S
C1058  O1324   1.222   .     D
C1058  C1160   1.490   .     S
C1058  O1326   1.398   .     S
C1059  C1161   1.488   .     S
C1059  O1328   1.398   .     S
C1059  O1327   1.222   .     D
C1060  C1162   1.485   .     S
C1060  O1329   1.222   .     D
C1060  O1330   1.398   .     S
C1061  C1164   1.482   .     S
C1061  O1332   1.398   .     S
C1061  O1331   1.222   .     D
C1062  O1333   1.223   .     D
C1062  C1165   1.493   .     S
C1062  O1334   1.398   .     S
C1063  C1615   1.455   .     S
C1063  C1622   1.402   .     S
C1064  O1335   1.222   .     D
C1064  C1166   1.488   .     S
C1064  O1337   1.399   .     S
C1065  O1338   1.222   .     D
C1065  O1339   1.398   .     S
C1065  C1167   1.489   .     S
C1066  C1168   1.488   .     S
C1066  O1340   1.222   .     D
C1066  O1341   1.398   .     S
C1067  O1343   1.398   .     S
C1067  O1342   1.223   .     D
C1067  C1169   1.492   .     S
C1068  C1170   1.482   .     S
C1068  O1345   1.398   .     S
C1068  O1344   1.222   .     D
C1069  C1171   1.488   .     S
C1069  O1346   1.222   .     D
C1069  O1348   1.398   .     S
C1070  O1350   1.398   .     S
C1070  C1172   1.487   .     S
C1070  O1349   1.222   .     D
C1071  O1351   1.222   .     D
C1071  O1352   1.398   .     S
C1071  C1173   1.488   .     S
C1072  C1175   1.488   .     S
C1072  O1354   1.398   .     S
C1072  O1353   1.222   .     D
C1073  O1356   1.398   .     S
C1073  C1176   1.493   .     S
C1073  O1355   1.223   .     D
C1074  C1124   1.465   .     S
C1074  C1141   1.408   .     A
C1074  C1588   1.405   .     S
C1075  O1359   1.398   .     S
C1075  O1357   1.222   .     D
C1075  C1177   1.482   .     S
C1076  C1178   1.489   .     S
C1076  O1361   1.398   .     S
C1076  O1360   1.222   .     D
C1077  O1363   1.398   .     S
C1077  C1179   1.488   .     S
C1077  O1362   1.222   .     D
C1078  C1180   1.485   .     S
C1078  O1364   1.222   .     D
C1078  O1365   1.398   .     S
C1079  C1181   1.482   .     S
C1079  O1367   1.398   .     S
C1079  O1366   1.222   .     D
C1080  H1243   1.110   .     S
C1080  H1244   1.109   .     S
C1080  H1245   1.111   .     S
C1080  N1789   1.445   1_455 S
C1081  H1249   1.111   .     S
C1081  H1247   1.110   .     S
C1081  H1248   1.111   .     S
C1081  N1305   1.447   .     S
C1082  H1252   1.110   .     S
C1082  H1254   1.111   .     S
C1082  H1251   1.110   .     S
C1082  N1306   1.447   .     S
C1083  H1258   1.111   .     S
C1083  H1257   1.109   .     S
C1084  H1261   1.109   .     S
C1084  H1262   1.112   .     S
C1084  H1752   1.110   .     S
C1084  N1800   1.445   .     S
C1085  C1121   1.462   .     S
C1085  C1152   1.405   .     A
C1085  C124    1.405   1_565 S
C1086  H1266   1.110   .     S
C1086  H1267   1.111   .     S
C1086  N1309   1.448   .     S
C1086  H1265   1.110   .     S
C1087  H1269   1.110   .     S
C1087  N1310   1.447   .     S
C1087  H1270   1.110   .     S
C1087  H1271   1.111   .     S
C1088  H1276   1.111   .     S
C1088  H1274   1.109   .     S
C1088  H289    1.110   1_565 S
C1088  N327    1.445   1_565 S
C1089  H1278   1.110   .     S
C1089  H1280   1.111   .     S
C1089  H1279   1.109   .     S
C1089  N1312   1.446   .     S
C1090  H1282   1.110   .     S
C1090  H1283   1.110   .     S
C1090  N1298   1.448   .     S
C1090  H1284   1.111   .     S
C1091  H1287   1.110   .     S
C1091  N1299   1.448   .     S
C1091  H1289   1.111   .     S
C1091  H1288   1.110   .     S
C1092  H1292   1.109   .     S
C1092  N1300   1.445   .     S
C1092  H1291   1.110   .     S
C1092  H1293   1.112   .     S
C1093  H1295   1.110   .     S
C1093  N1301   1.446   .     S
C1093  H1296   1.109   .     S
C1093  H1187   1.112   .     S
C1094  N1302   1.452   .     S
C1094  H1191   1.112   .     S
C1094  H1189   1.109   .     S
C1094  H1190   1.110   .     S
C1095  N1303   1.447   .     S
C1095  H1193   1.110   .     S
C1095  H1194   1.110   .     S
C1095  H1195   1.111   .     S
C1096  N1305   1.428   .     S
C1096  C1566   1.405   1_455 S
C1097  C1163   1.400   .     A
C1097  C1122   1.454   .     S
C1098  H1200   1.111   .     S
C1098  H1198   1.110   .     S
C1098  N1304   1.445   .     S
C1098  H1199   1.109   .     S
C1099  C1127   1.462   .     S
C1099  C190    1.400   1_565 S
C1100  C46     1.407   1_565 S
C1100  C144    1.464   1_565 S
C1101  C1489   1.408   1_455 S
C1101  C1617   1.465   1_455 S
C1102  C1126   1.454   .     S
C1102  C1544   1.399   1_455 S
C1103  C1182   1.425   .     A
C1103  C1109   1.407   .     A
C1104  C1183   1.423   .     A
C1104  C1107   1.405   .     A
C1105  C1111   1.405   .     A
C1105  C1184   1.420   .     A
C1106  C1110   1.405   .     A
C1108  N1306   1.429   .     S
C1112  C1117   1.410   1_556 S
C1113  C1116   1.407   1_554 S
C1114  C1120   1.407   1_556 S
C1115  C1118   1.405   1_554 S
C1116  C1113   1.407   1_556 S
C1117  C1112   1.410   1_554 S
C1118  C1115   1.405   1_556 S
C1119  N1307   1.428   .     S
C1119  C113    1.400   1_565 S
C1120  C1114   1.407   1_554 S
C1121  O1406   1.278   .     A
C1121  O466    1.278   1_565 S
C1122  O1417   1.275   .     A
C1123  O1428   1.276   .     A
C1123  C1555   1.455   1_455 S
C1123  O1817   1.277   1_455 S
C1124  O1439   1.277   .     A
C1124  O1828   1.281   .     S
C1125  O1862   1.277   .     A
C1125  C1593   1.465   .     S
C1125  O1839   1.280   .     S
C1126  O1358   1.276   .     S
C1126  O1371   1.275   .     S
C1127  O384    1.278   1_565 S
C1127  O388    1.278   1_565 S
C1128  O1374   1.282   .     A
C1128  O1369   1.276   .     A
C1129  O1403   1.279   .     A
C1129  O1375   1.279   .     A
C1130  N1308   1.427   .     S
C1130  C1182   1.420   .     A
C1130  C1555   1.402   1_455 S
C1131  O1404   1.280   .     A
C1131  O1376   1.279   .     A
C1132  O1401   1.283   .     A
C1132  O1377   1.277   .     A
C1133  O1402   1.279   .     A
C1133  O1378   1.279   .     A
C1134  O1408   1.279   .     A
C1134  O1379   1.279   .     A
C1135  O1409   1.279   .     A
C1135  O1380   1.279   .     A
C1136  O1381   1.283   .     A
C1136  O1405   1.277   .     A
C1137  O1407   1.276   .     A
C1137  O1382   1.281   .     A
C1138  O1394   1.280   .     A
C1138  O1383   1.281   .     A
C1139  O1385   1.281   .     A
C1139  O1396   1.277   .     A
C1140  O1392   1.279   .     A
C1140  O1386   1.280   .     A
C1141  C1183   1.418   .     A
C1141  N1309   1.429   .     S
C1142  O1387   1.279   .     A
C1142  O1393   1.279   .     A
C1143  O1388   1.277   .     A
C1143  O1399   1.282   .     A
C1144  O1389   1.276   .     A
C1144  O1400   1.281   .     A
C1145  O1397   1.279   .     A
C1145  O1390   1.279   .     A
C1146  O1398   1.279   .     A
C1146  O1391   1.279   .     A
C1147  C1164   1.405   .     A
C1148  C1162   1.404   .     A
C1149  C1161   1.405   .     A
C1150  C1160   1.404   .     A
C1151  C1159   1.404   .     A
C1152  N1310   1.429   .     S
C1152  C1184   1.417   .     A
C1153  C1158   1.404   .     A
C1154  C1157   1.404   .     A
C1155  C1156   1.405   .     A
C1163  N1311   1.428   .     S
C1165  C1181   1.404   .     A
C1166  C1180   1.403   .     A
C1167  C1179   1.405   .     A
C1168  C1178   1.405   .     A
C1169  C1177   1.404   .     A
C1170  C1176   1.404   .     A
C1171  C1175   1.404   .     A
C1172  C1173   1.404   .     A
C1174  N1312   1.431   .     S
C1182  C1510   1.429   1_455 S
H1185  O1411   1.014   .     S
H1186  O1431   1.014   .     S
H1188  N1302   1.032   .     S
H1192  N1303   1.031   .     S
H1196  N1304   1.030   .     S
H1197  O1433   1.014   .     S
H1201  O1435   1.014   .     S
H1202  O1437   1.014   .     S
H1203  O1440   1.014   .     S
H1204  O1442   1.014   .     S
H1205  O1444   1.014   .     S
H1206  O1446   1.014   .     S
H1207  O1448   1.013   .     S
H1208  O1451   1.014   .     S
H1209  O1413   1.014   .     S
H1210  O1453   1.014   .     S
H1211  O1455   1.014   .     S
H1212  O1457   1.014   .     S
H1213  O1459   1.013   .     S
H1214  O1315   1.014   .     S
H1215  O1317   1.014   .     S
H1216  O1319   1.013   .     S
H1217  O1321   1.014   .     S
H1218  O1323   1.013   .     S
H1219  O1326   1.014   .     S
H1220  O1415   1.014   .     S
H1221  O1328   1.014   .     S
H1222  O1330   1.014   .     S
H1223  O1332   1.013   .     S
H1224  O1334   1.014   .     S
H1225  O1337   1.013   .     S
H1226  O1339   1.014   .     S
H1227  O1341   1.014   .     S
H1228  O1343   1.014   .     S
H1229  O1345   1.013   .     S
H1230  O1348   1.014   .     S
H1231  O1418   1.014   .     S
H1232  O1350   1.013   .     S
H1233  O1352   1.013   .     S
H1234  O1354   1.014   .     S
H1235  O1356   1.014   .     S
H1236  O1359   1.013   .     S
H1237  O1361   1.014   .     S
H1238  O1363   1.014   .     S
H1239  O1365   1.014   .     S
H1240  O1367   1.013   .     S
H1241  N1297   1.030   .     S
H1242  O1420   1.014   .     S
H1246  N1305   1.031   .     S
H1250  N1306   1.031   .     S
H1253  O1422   1.014   .     S
H1255  N1307   1.030   .     S
H1256  C99     1.110   1_565 S
H1259  N1308   1.030   .     S
H1260  C1576   1.110   1_455 S
H1263  N1309   1.031   .     S
H1264  O1424   1.014   .     S
H1268  N1310   1.031   .     S
H1272  N1311   1.030   .     S
H1275  O1426   1.014   .     S
H1277  N1312   1.030   .     S
H1281  N1298   1.031   .     S
H1285  N1299   1.031   .     S
H1286  O1429   1.014   .     S
H1290  N1300   1.030   .     S
H1294  N1301   1.031   .     S
N1297  C1572   1.445   .     S
N1307  C99     1.445   1_565 S
N1308  C1576   1.445   1_455 S
O1313  Zn1464  1.948   .     S
O1313  Zn1472  1.949   .     S
O1313  Zn1461  1.949   .     S
O1314  Zn1463  1.953   .     S
O1314  C138    1.275   1_565 S
O1325  Zn1466  1.954   .     S
O1325  C1615   1.277   .     S
O1336  Zn1465  1.954   .     S
O1336  C1616   1.281   1_455 S
O1347  C1617   1.280   1_455 S
O1347  Zn1475  1.954   .     S
O1358  Zn1474  1.954   .     S
O1368  Zn1469  1.954   .     S
O1369  Zn1461  1.954   .     S
O1370  C1617   1.277   1_455 A
O1370  Zn1471  1.953   .     S
O1371  Zn1470  1.953   .     S
O1372  Zn1473  1.954   .     S
O1373  Zn1473  1.949   .     S
O1373  Zn1469  1.949   .     S
O1373  Zn1467  1.947   .     S
O1374  Zn1472  1.954   .     S
O1375  Zn1464  1.930   .     S
O1376  Zn1463  1.930   .     S
O1377  Zn1466  1.938   .     S
O1378  Zn1465  1.938   .     S
O1379  Zn1468  1.931   .     S
O1380  Zn1467  1.931   .     S
O1381  Zn1462  1.938   .     S
O1382  Zn1476  1.938   .     S
O1383  Zn1463  1.939   .     S
O1384  Zn1958  1.949   1_455 S
O1384  Zn1470  1.948   .     S
O1384  Zn1462  1.949   .     S
O1384  Zn1474  1.947   .     S
O1385  Zn1464  1.939   .     S
O1386  Zn1476  1.930   .     S
O1387  Zn1462  1.930   .     S
O1388  Zn1467  1.939   .     S
O1389  Zn1468  1.939   .     S
O1390  Zn1465  1.930   .     S
O1391  Zn1466  1.930   .     S
O1392  Zn1963  1.930   .     S
O1393  Zn1470  1.930   .     S
O1394  Zn489   1.938   1_565 S
O1395  Zn1475  1.947   .     S
O1395  Zn1968  1.949   1_455 S
O1395  Zn1465  1.949   .     S
O1395  Zn1471  1.948   .     S
O1396  Zn1472  1.938   .     S
O1397  Zn1475  1.931   .     S
O1398  Zn1966  1.931   .     S
O1399  Zn1469  1.938   .     S
O1400  Zn477   1.938   1_565 S
O1401  Zn1962  1.939   .     S
O1402  Zn1471  1.939   .     S
O1403  Zn1461  1.930   .     S
O1404  Zn485   1.930   1_565 S
O1405  Zn1474  1.939   .     S
O1406  Zn1468  1.954   .     S
O1407  Zn1967  1.939   .     S
O1408  Zn488   1.930   1_565 S
O1409  Zn1473  1.930   .     S
O1417  Zn1467  1.954   .     S
O1428  Zn1462  1.954   .     S
O1439  Zn1476  1.954   .     S
O1450  Zn1464  1.953   .     S
Zn1463 O389    1.948   1_565 S
Zn1466 O1876   1.949   .     S
Zn1468 O329    1.947   1_565 S
Zn1470 O1893   1.939   1_455 S
Zn1471 O1884   1.930   1_455 S
Zn1474 O1890   1.931   1_455 S
Zn1475 O1899   1.939   1_455 S
Zn1476 O1887   1.949   .     S
C1477  C1555   1.399   .     A
C1477  N1789   1.430   .     S
C1477  C1480   1.413   .     A
C1478  C1592   1.404   .     A
C1478  N1790   1.429   .     S
C1478  C1490   1.419   .     A
C1479  C1655   1.418   .     A
C1479  C1598   1.425   .     A
C1480  C1510   1.424   .     A
C1480  C1599   1.420   .     A
C1481  C1588   1.417   .     A
C1481  C1601   1.420   .     A
C1482  C1602   1.420   .     A
C1482  C1600   1.417   .     A
C1483  C1603   1.425   .     A
C1483  C1611   1.418   .     A
C1483  C1514   1.429   .     A
C1484  C1511   1.427   .     A
C1484  C1604   1.427   .     A
C1484  C1515   1.428   .     A
C1485  C1522   1.422   .     A
C1485  C1605   1.424   .     A
C1486  C1517   1.422   .     A
C1486  C1606   1.420   .     A
C1486  C1533   1.417   .     A
C1487  C1544   1.413   .     A
C1487  C1607   1.420   .     A
C1487  C1026   1.424   1_655 S
C1488  C1608   1.417   .     A
C1488  C1666   1.413   .     A
C1489  N1791   1.429   .     S
C1489  C1491   1.418   .     A
C1489  C1101   1.408   1_655 S
C1490  C1609   1.420   .     A
C1490  C1516   1.421   .     A
C1491  C1610   1.423   .     A
C1491  C1025   1.425   1_655 S
C1492  C1612   1.425   .     A
C1492  C1500   1.420   .     A
C1492  C1518   1.428   .     A
C1493  C1658   1.413   .     A
C1493  C1628   1.461   .     S
C1493  C1656   1.414   .     A
C1494  C1657   1.412   .     A
C1494  C1629   1.457   .     S
C1494  C1654   1.412   .     A
C1495  C1653   1.412   .     A
C1495  C1660   1.412   .     A
C1495  C1621   1.453   .     S
C1496  C1652   1.412   .     A
C1496  C1659   1.412   .     A
C1496  C1623   1.453   .     S
C1497  C1662   1.414   .     A
C1497  C1651   1.413   .     A
C1497  C1624   1.461   .     S
C1498  C1625   1.455   .     S
C1498  C1650   1.414   .     A
C1498  C1661   1.413   .     A
C1499  C1664   1.411   .     A
C1499  C1626   1.453   .     S
C1499  C1649   1.411   .     A
C1500  N1792   1.427   .     S
C1500  C1594   1.402   .     A
C1501  C1663   1.411   .     A
C1501  C1627   1.453   .     S
C1501  C1648   1.412   .     A
C1502  C1667   1.411   .     A
C1502  C1637   1.454   .     S
C1502  C1647   1.411   .     A
C1503  C1638   1.453   .     S
C1503  C1646   1.411   .     A
C1503  C1665   1.411   .     A
C1504  C1645   1.413   .     A
C1504  C1630   1.461   .     S
C1504  C1669   1.412   .     A
C1505  C1631   1.456   .     S
C1505  C1643   1.412   .     A
C1505  C1668   1.412   .     A
C1506  C1642   1.411   .     A
C1506  C1632   1.454   .     S
C1506  C1671   1.412   .     A
C1507  C1641   1.412   .     A
C1507  C1670   1.412   .     A
C1507  C1634   1.453   .     S
C1508  C1635   1.461   .     S
C1508  C1640   1.414   .     A
C1508  C1673   1.414   .     A
C1509  C1639   1.413   .     A
C1509  C1672   1.411   .     A
C1509  C1636   1.456   .     S
C1510  C1512   1.416   .     A
C1510  C1182   1.429   1_655 S
C1511  C1591   1.406   .     A
C1511  N1793   1.426   .     S
C1512  C1675   1.425   .     A
C1512  C989    1.422   1_655 S
C1513  C1514   1.417   .     A
C1513  C1676   1.423   .     A
C1513  C498    1.423   1_565 S
C1514  C495    1.429   1_565 S
C1515  C504    1.421   1_565 S
C1515  C1516   1.420   1_556 S
C1516  C501    1.428   1_565 S
C1516  C1515   1.420   1_554 S
C1517  C1518   1.416   1_556 S
C1518  C1517   1.416   1_554 S
C1519  O1902   1.223   .     D
C1519  C1595   1.486   .     S
C1519  O1903   1.398   .     S
C1520  O1905   1.398   .     S
C1520  O1904   1.223   .     D
C1520  C1596   1.489   .     S
C1521  O1906   1.223   .     D
C1521  C1597   1.491   .     S
C1521  O1907   1.398   .     S
C1522  N1794   1.431   .     S
C1523  O1910   1.398   .     S
C1523  O1908   1.223   .     D
C1523  C1598   1.487   .     S
C1524  O1912   1.398   .     S
C1524  C1599   1.491   .     S
C1524  O1911   1.223   .     D
C1525  O1913   1.223   .     D
C1525  O1914   1.398   .     S
C1525  C1601   1.491   .     S
C1526  O1915   1.223   .     D
C1526  O1916   1.398   .     S
C1526  C1602   1.491   .     S
C1527  O1917   1.223   .     D
C1527  C1603   1.487   .     S
C1527  O1918   1.398   .     S
C1528  C1604   1.484   .     S
C1528  O1921   1.398   .     S
C1528  O1919   1.223   .     D
C1529  O1923   1.398   .     S
C1529  C1605   1.481   .     S
C1529  O1922   1.223   .     D
C1530  C1606   1.491   .     S
C1530  O1925   1.398   .     S
C1530  O1924   1.223   .     D
C1531  O1926   1.223   .     D
C1531  O1927   1.398   .     S
C1531  C1607   1.491   .     S
C1532  O1928   1.223   .     D
C1532  O1929   1.398   .     S
C1532  C1608   1.493   .     S
C1533  C1593   1.406   .     A
C1533  N1795   1.428   .     S
C1534  O1932   1.398   .     S
C1534  O1930   1.223   .     D
C1534  C1609   1.492   .     S
C1535  O1934   1.398   .     S
C1535  O1933   1.223   .     D
C1535  C1610   1.489   .     S
C1536  O1935   1.223   .     D
C1536  O1936   1.398   .     S
C1536  C1612   1.486   .     S
C1537  O1938   1.398   .     S
C1537  O1937   1.223   .     D
C1537  C1639   1.493   .     S
C1538  O1939   1.223   .     D
C1538  O1940   1.398   .     S
C1538  C1640   1.490   .     S
C1539  O1941   1.222   .     D
C1539  O1943   1.398   .     S
C1539  C1641   1.489   .     S
C1540  C1642   1.487   .     S
C1540  O1944   1.222   .     D
C1540  O1945   1.398   .     S
C1541  O1946   1.222   .     D
C1541  C1643   1.485   .     S
C1541  O1947   1.398   .     S
C1542  O1948   1.222   .     D
C1542  C1645   1.482   .     S
C1542  O1949   1.398   .     S
C1543  O1950   1.222   .     D
C1543  C1646   1.488   .     S
C1543  O1951   1.398   .     S
C1544  N1796   1.430   .     S
C1544  C1102   1.399   1_655 S
C1545  O1807   1.398   .     S
C1545  C1647   1.487   .     S
C1545  O1952   1.222   .     D
C1546  O1808   1.222   .     D
C1546  C1648   1.490   .     S
C1546  O1809   1.399   .     S
C1547  O1810   1.222   .     D
C1547  C1649   1.487   .     S
C1547  O1811   1.398   .     S
C1548  O1812   1.223   .     D
C1548  O1813   1.398   .     S
C1548  C1650   1.492   .     S
C1549  C1651   1.488   .     S
C1549  O1814   1.222   .     D
C1549  O1815   1.399   .     S
C1550  O1816   1.222   .     D
C1550  C1652   1.490   .     S
C1550  O1818   1.398   .     S
C1551  C1653   1.488   .     S
C1551  O1820   1.398   .     S
C1551  O1819   1.222   .     D
C1552  C1654   1.485   .     S
C1552  O1821   1.222   .     D
C1552  O1822   1.398   .     S
C1553  C1656   1.482   .     S
C1553  O1824   1.398   .     S
C1553  O1823   1.222   .     D
C1554  O1825   1.223   .     D
C1554  C1657   1.493   .     S
C1554  O1826   1.398   .     S
C1555  C1123   1.455   1_655 S
C1555  C1130   1.402   1_655 S
C1556  O1827   1.222   .     D
C1556  C1658   1.488   .     S
C1556  O1829   1.399   .     S
C1557  O1830   1.222   .     D
C1557  O1831   1.398   .     S
C1557  C1659   1.489   .     S
C1558  C1660   1.488   .     S
C1558  O1832   1.222   .     D
C1558  O1833   1.398   .     S
C1559  O1835   1.398   .     S
C1559  O1834   1.223   .     D
C1559  C1661   1.492   .     S
C1560  C1662   1.482   .     S
C1560  O1837   1.398   .     S
C1560  O1836   1.222   .     D
C1561  C1663   1.488   .     S
C1561  O1838   1.222   .     D
C1561  O1840   1.398   .     S
C1562  O1842   1.398   .     S
C1562  C1664   1.487   .     S
C1562  O1841   1.222   .     D
C1563  O1843   1.222   .     D
C1563  O1844   1.398   .     S
C1563  C1665   1.488   .     S
C1564  C1667   1.488   .     S
C1564  O1846   1.398   .     S
C1564  O1845   1.222   .     D
C1565  O1848   1.398   .     S
C1565  C1668   1.493   .     S
C1565  O1847   1.223   .     D
C1566  C1616   1.465   .     S
C1566  C1633   1.408   .     A
C1566  C1096   1.405   1_655 S
C1567  O1851   1.398   .     S
C1567  O1849   1.222   .     D
C1567  C1669   1.482   .     S
C1568  C1670   1.489   .     S
C1568  O1853   1.398   .     S
C1568  O1852   1.222   .     D
C1569  O1855   1.398   .     S
C1569  C1671   1.488   .     S
C1569  O1854   1.222   .     D
C1570  C1672   1.485   .     S
C1570  O1856   1.222   .     D
C1570  O1857   1.398   .     S
C1571  C1673   1.482   .     S
C1571  O1859   1.398   .     S
C1571  O1858   1.222   .     D
C1572  H1735   1.110   .     S
C1572  H1736   1.109   .     S
C1572  H1737   1.111   .     S
C1573  H1741   1.111   .     S
C1573  H1739   1.110   .     S
C1573  H1740   1.111   .     S
C1573  N1797   1.447   .     S
C1574  H1744   1.110   .     S
C1574  H1746   1.111   .     S
C1574  H1743   1.110   .     S
C1574  N1798   1.447   .     S
C1575  H1750   1.111   .     S
C1575  H1749   1.109   .     S
C1576  H1753   1.109   .     S
C1576  H1754   1.112   .     S
C1576  H1260   1.110   1_655 S
C1576  N1308   1.445   1_655 S
C1577  C1613   1.462   .     S
C1577  C1644   1.405   .     A
C1577  C616    1.405   1_565 S
C1578  H1758   1.110   .     S
C1578  H1759   1.111   .     S
C1578  N1801   1.448   .     S
C1578  H1757   1.110   .     S
C1579  H1761   1.110   .     S
C1579  N1802   1.447   .     S
C1579  H1762   1.110   .     S
C1579  H1763   1.111   .     S
C1580  H1768   1.111   .     S
C1580  H1766   1.109   .     S
C1580  H781    1.110   1_565 S
C1580  N819    1.445   1_565 S
C1581  H1770   1.110   .     S
C1581  H1772   1.111   .     S
C1581  H1771   1.109   .     S
C1581  N1804   1.446   .     S
C1582  H1774   1.110   .     S
C1582  H1775   1.110   .     S
C1582  N1790   1.448   .     S
C1582  H1776   1.111   .     S
C1583  H1779   1.110   .     S
C1583  N1791   1.448   .     S
C1583  H1781   1.111   .     S
C1583  H1780   1.110   .     S
C1584  H1784   1.109   .     S
C1584  N1792   1.445   .     S
C1584  H1783   1.110   .     S
C1584  H1785   1.112   .     S
C1585  H1787   1.110   .     S
C1585  N1793   1.446   .     S
C1585  H1788   1.109   .     S
C1585  H1679   1.112   .     S
C1586  N1794   1.452   .     S
C1586  H1683   1.112   .     S
C1586  H1681   1.109   .     S
C1586  H1682   1.110   .     S
C1587  N1795   1.447   .     S
C1587  H1685   1.110   .     S
C1587  H1686   1.110   .     S
C1587  H1687   1.111   .     S
C1588  N1797   1.428   .     S
C1589  C1655   1.400   .     A
C1589  C1614   1.454   .     S
C1590  H1692   1.111   .     S
C1590  H1690   1.110   .     S
C1590  N1796   1.445   .     S
C1590  H1691   1.109   .     S
C1591  C1619   1.462   .     S
C1591  C682    1.400   1_565 S
C1592  C538    1.407   1_565 S
C1592  C636    1.464   1_565 S
C1594  C1618   1.454   .     S
C1595  C1674   1.425   .     A
C1595  C1601   1.407   .     A
C1596  C1675   1.423   .     A
C1596  C1599   1.405   .     A
C1597  C1603   1.405   .     A
C1597  C1676   1.420   .     A
C1598  C1602   1.405   .     A
C1600  N1798   1.429   .     S
C1604  C1609   1.410   1_556 S
C1605  C1608   1.407   1_554 S
C1606  C1612   1.407   1_556 S
C1607  C1610   1.405   1_554 S
C1608  C1605   1.407   1_556 S
C1609  C1604   1.410   1_554 S
C1610  C1607   1.405   1_556 S
C1611  N1799   1.428   .     S
C1611  C605    1.400   1_565 S
C1612  C1606   1.407   1_554 S
C1613  O1898   1.278   .     A
C1613  O958    1.278   1_565 S
C1614  O1909   1.275   .     A
C1615  O1920   1.276   .     A
C1616  O1931   1.277   .     A
C1616  O1336   1.281   1_655 S
C1617  O1370   1.277   1_655 A
C1617  C1101   1.465   1_655 S
C1617  O1347   1.280   1_655 S
C1618  O1850   1.276   .     S
C1618  O1863   1.275   .     S
C1619  O876    1.278   1_565 S
C1619  O880    1.278   1_565 S
C1620  O1866   1.282   .     A
C1620  O1861   1.276   .     A
C1621  O1895   1.279   .     A
C1621  O1867   1.279   .     A
C1622  N1800   1.427   .     S
C1622  C1674   1.420   .     A
C1623  O1896   1.280   .     A
C1623  O1868   1.279   .     A
C1624  O1893   1.283   .     A
C1624  O1869   1.277   .     A
C1625  O1894   1.279   .     A
C1625  O1870   1.279   .     A
C1626  O1900   1.279   .     A
C1626  O1871   1.279   .     A
C1627  O1901   1.279   .     A
C1627  O1872   1.279   .     A
C1628  O1873   1.283   .     A
C1628  O1897   1.277   .     A
C1629  O1899   1.276   .     A
C1629  O1874   1.281   .     A
C1630  O1886   1.280   .     A
C1630  O1875   1.281   .     A
C1631  O1877   1.281   .     A
C1631  O1888   1.277   .     A
C1632  O1884   1.279   .     A
C1632  O1878   1.280   .     A
C1633  C1675   1.418   .     A
C1633  N1801   1.429   .     S
C1634  O1879   1.279   .     A
C1634  O1885   1.279   .     A
C1635  O1880   1.277   .     A
C1635  O1891   1.282   .     A
C1636  O1881   1.276   .     A
C1636  O1892   1.281   .     A
C1637  O1889   1.279   .     A
C1637  O1882   1.279   .     A
C1638  O1890   1.279   .     A
C1638  O1883   1.279   .     A
C1639  C1656   1.405   .     A
C1640  C1654   1.404   .     A
C1641  C1653   1.405   .     A
C1642  C1652   1.404   .     A
C1643  C1651   1.404   .     A
C1644  N1802   1.429   .     S
C1644  C1676   1.417   .     A
C1645  C1650   1.404   .     A
C1646  C1649   1.404   .     A
C1647  C1648   1.405   .     A
C1655  N1803   1.428   .     S
C1657  C1673   1.404   .     A
C1658  C1672   1.403   .     A
C1659  C1671   1.405   .     A
C1660  C1670   1.405   .     A
C1661  C1669   1.404   .     A
C1662  C1668   1.404   .     A
C1663  C1667   1.404   .     A
C1664  C1665   1.404   .     A
C1666  N1804   1.431   .     S
H1677  O1903   1.014   .     S
H1678  O1923   1.014   .     S
H1680  N1794   1.032   .     S
H1684  N1795   1.031   .     S
H1688  N1796   1.030   .     S
H1689  O1925   1.014   .     S
H1693  O1927   1.014   .     S
H1694  O1929   1.014   .     S
H1695  O1932   1.014   .     S
H1696  O1934   1.014   .     S
H1697  O1936   1.014   .     S
H1698  O1938   1.014   .     S
H1699  O1940   1.013   .     S
H1700  O1943   1.014   .     S
H1701  O1905   1.014   .     S
H1702  O1945   1.014   .     S
H1703  O1947   1.014   .     S
H1704  O1949   1.014   .     S
H1705  O1951   1.013   .     S
H1706  O1807   1.014   .     S
H1707  O1809   1.014   .     S
H1708  O1811   1.013   .     S
H1709  O1813   1.014   .     S
H1710  O1815   1.013   .     S
H1711  O1818   1.014   .     S
H1712  O1907   1.014   .     S
H1713  O1820   1.014   .     S
H1714  O1822   1.014   .     S
H1715  O1824   1.013   .     S
H1716  O1826   1.014   .     S
H1717  O1829   1.013   .     S
H1718  O1831   1.014   .     S
H1719  O1833   1.014   .     S
H1720  O1835   1.014   .     S
H1721  O1837   1.013   .     S
H1722  O1840   1.014   .     S
H1723  O1910   1.014   .     S
H1724  O1842   1.013   .     S
H1725  O1844   1.013   .     S
H1726  O1846   1.014   .     S
H1727  O1848   1.014   .     S
H1728  O1851   1.013   .     S
H1729  O1853   1.014   .     S
H1730  O1855   1.014   .     S
H1731  O1857   1.014   .     S
H1732  O1859   1.013   .     S
H1733  N1789   1.030   .     S
H1734  O1912   1.014   .     S
H1738  N1797   1.031   .     S
H1742  N1798   1.031   .     S
H1745  O1914   1.014   .     S
H1747  N1799   1.030   .     S
H1748  C591    1.110   1_565 S
H1751  N1800   1.030   .     S
H1755  N1801   1.031   .     S
H1756  O1916   1.014   .     S
H1760  N1802   1.031   .     S
H1764  N1803   1.030   .     S
H1767  O1918   1.014   .     S
H1769  N1804   1.030   .     S
H1773  N1790   1.031   .     S
H1777  N1791   1.031   .     S
H1778  O1921   1.014   .     S
H1782  N1792   1.030   .     S
H1786  N1793   1.031   .     S
N1789  C1080   1.445   1_655 S
N1799  C591    1.445   1_565 S
O1805  Zn1956  1.948   .     S
O1805  Zn1964  1.949   .     S
O1805  Zn1953  1.949   .     S
O1806  Zn1955  1.953   .     S
O1806  C630    1.275   1_565 S
O1817  Zn1958  1.954   .     S
O1817  C1123   1.277   1_655 S
O1828  Zn1957  1.954   .     S
O1839  Zn1967  1.954   .     S
O1850  Zn1966  1.954   .     S
O1860  Zn1961  1.954   .     S
O1861  Zn1953  1.954   .     S
O1862  Zn1963  1.953   .     S
O1863  Zn1962  1.953   .     S
O1864  Zn1965  1.954   .     S
O1865  Zn1965  1.949   .     S
O1865  Zn1961  1.949   .     S
O1865  Zn1959  1.947   .     S
O1866  Zn1964  1.954   .     S
O1867  Zn1956  1.930   .     S
O1868  Zn1955  1.930   .     S
O1869  Zn1958  1.938   .     S
O1870  Zn1957  1.938   .     S
O1871  Zn1960  1.931   .     S
O1872  Zn1959  1.931   .     S
O1873  Zn1954  1.938   .     S
O1874  Zn1968  1.938   .     S
O1875  Zn1955  1.939   .     S
O1876  Zn1962  1.948   .     S
O1876  Zn1954  1.949   .     S
O1876  Zn1966  1.947   .     S
O1877  Zn1956  1.939   .     S
O1878  Zn1968  1.930   .     S
O1879  Zn1954  1.930   .     S
O1880  Zn1959  1.939   .     S
O1881  Zn1960  1.939   .     S
O1882  Zn1957  1.930   .     S
O1883  Zn1958  1.930   .     S
O1884  Zn1471  1.930   1_655 S
O1885  Zn1962  1.930   .     S
O1886  Zn981   1.938   1_565 S
O1887  Zn1967  1.947   .     S
O1887  Zn1957  1.949   .     S
O1887  Zn1963  1.948   .     S
O1888  Zn1964  1.938   .     S
O1889  Zn1967  1.931   .     S
O1890  Zn1474  1.931   1_655 S
O1891  Zn1961  1.938   .     S
O1892  Zn969   1.938   1_565 S
O1893  Zn1470  1.939   1_655 S
O1894  Zn1963  1.939   .     S
O1895  Zn1953  1.930   .     S
O1896  Zn977   1.930   1_565 S
O1897  Zn1966  1.939   .     S
O1898  Zn1960  1.954   .     S
O1899  Zn1475  1.939   1_655 S
O1900  Zn980   1.930   1_565 S
O1901  Zn1965  1.930   .     S
O1909  Zn1959  1.954   .     S
O1920  Zn1954  1.954   .     S
O1931  Zn1968  1.954   .     S
O1942  Zn1956  1.953   .     S
Zn1955 O881    1.948   1_565 S
Zn1958 O1384   1.949   1_655 S
Zn1960 O821    1.947   1_565 S
Zn1968 O1395   1.949   1_655 S
