data_str_m1_o2_o5_pcu_sym.49
_audit_creation_date              2020-01-03
_audit_creation_method            'Materials Studio'
_symmetry_space_group_name_H-M    'P1'
_symmetry_Int_Tables_number       1
_symmetry_cell_setting            triclinic
loop_
_symmetry_equiv_pos_as_xyz
  x,y,z
_cell_length_a                    24.4336
_cell_length_b                    24.4276
_cell_length_c                    22.4563
_cell_angle_alpha                 90.0073
_cell_angle_beta                  90.0432
_cell_angle_gamma                 89.9529
loop_
_atom_site_label
_atom_site_type_symbol
_atom_site_fract_x
_atom_site_fract_y
_atom_site_fract_z
_atom_site_U_iso_or_equiv
_atom_site_adp_type
_atom_site_occupancy
C1     C     0.22734   0.26935   0.24960   0.00000  Uiso   1.00
C2     C     0.22875   0.72889   0.25009   0.00000  Uiso   1.00
C3     C     0.20028   0.63578   0.27123   0.00000  Uiso   1.00
C4     C     0.33514   0.17152   0.69742   0.00000  Uiso   1.00
C5     C     0.63764   0.80109   0.27488   0.00000  Uiso   1.00
C6     C     0.18496   0.65098   0.70285   0.00000  Uiso   1.00
C7     C     0.79796   0.36718   0.25852   0.00000  Uiso   1.00
C8     C     0.33691   0.82762   0.30355   0.00000  Uiso   1.00
C9     C     0.63567   0.20034   0.72893   0.00000  Uiso   1.00
C10    C     0.18593   0.34891   0.29608   0.00000  Uiso   1.00
C11    C     0.79751   0.63137   0.75675   0.00000  Uiso   1.00
C12    C     0.65092   0.18513   0.29709   0.00000  Uiso   1.00
C13    C     0.72731   0.76910   0.75053   0.00000  Uiso   1.00
C14    C     0.36713   0.79791   0.74133   0.00000  Uiso   1.00
C15    C     0.82840   0.66325   0.30391   0.00000  Uiso   1.00
C16    C     0.20100   0.36571   0.72920   0.00000  Uiso   1.00
C17    C     0.14745   0.35181   0.24993   0.00000  Uiso   1.00
C18    C     0.85230   0.64677   0.75045   0.00000  Uiso   1.00
C19    C     0.35247   0.85254   0.25002   0.00000  Uiso   1.00
C20    C     0.64764   0.14769   0.75006   0.00000  Uiso   1.00
C21    C     0.85285   0.64765   0.25025   0.00000  Uiso   1.00
C22    C     0.14890   0.35338   0.75163   0.00000  Uiso   1.00
C23    C     0.64763   0.14770   0.24999   0.00000  Uiso   1.00
C24    C     0.27026   0.22689   0.24919   0.00000  Uiso   1.00
C25    C     0.35273   0.85271   0.74997   0.00000  Uiso   1.00
C26    C     0.85246   0.35254   0.75003   0.00000  Uiso   1.00
C27    C     0.14764   0.64769   0.25005   0.00000  Uiso   1.00
C28    C     0.64740   0.85162   0.75023   0.00000  Uiso   1.00
C29    C     0.35224   0.14688   0.25026   0.00000  Uiso   1.00
C30    C     0.14763   0.64770   0.74999   0.00000  Uiso   1.00
C31    C     0.85272   0.35272   0.24996   0.00000  Uiso   1.00
C32    C     0.35323   0.14809   0.75081   0.00000  Uiso   1.00
C33    C     0.64819   0.85285   0.25066   0.00000  Uiso   1.00
C34    C     0.18920   0.25705   0.10036   0.00000  Uiso   1.00
C35    C     0.22885   0.72894   0.74995   0.00000  Uiso   1.00
C36    C     0.20978   0.21574   0.05494   0.00000  Uiso   1.00
C37    C     0.84135   0.80610   0.67114   0.00000  Uiso   1.00
C38    C     0.85028   0.86695   0.66085   0.00000  Uiso   1.00
C39    C     0.30344   0.75559   0.10448   0.00000  Uiso   1.00
C40    C     0.27784   0.70757   0.07153   0.00000  Uiso   1.00
C41    C     0.82297   0.13903   0.74335   0.00000  Uiso   1.00
C42    C     0.88195   0.13088   0.76307   0.00000  Uiso   1.00
C43    C     0.75851   0.69593   0.10380   0.00000  Uiso   1.00
C44    C     0.71399   0.72101   0.06504   0.00000  Uiso   1.00
C45    C     0.14280   0.17859   0.75372   0.00000  Uiso   1.00
C46    C     0.77162   0.27167   0.24997   0.00000  Uiso   1.00
C47    C     0.13857   0.11958   0.77472   0.00000  Uiso   1.00
C48    C     0.74637   0.23186   0.11293   0.00000  Uiso   1.00
C49    C     0.79030   0.23503   0.06514   0.00000  Uiso   1.00
C50    C     0.17861   0.85195   0.70886   0.00000  Uiso   1.00
C51    C     0.12369   0.88007   0.71784   0.00000  Uiso   1.00
C52    C     0.75566   0.30382   0.89568   0.00000  Uiso   1.00
C53    C     0.70761   0.27834   0.92860   0.00000  Uiso   1.00
C54    C     0.13882   0.82308   0.25681   0.00000  Uiso   1.00
C55    C     0.13038   0.88200   0.23701   0.00000  Uiso   1.00
C56    C     0.75350   0.77928   0.88576   0.00000  Uiso   1.00
C57    C     0.27482   0.23169   0.75294   0.00000  Uiso   1.00
C58    C     0.80404   0.76592   0.92257   0.00000  Uiso   1.00
C59    C     0.18990   0.12085   0.30127   0.00000  Uiso   1.00
C60    C     0.12972   0.12517   0.31783   0.00000  Uiso   1.00
C61    C     0.23196   0.74645   0.88703   0.00000  Uiso   1.00
C62    C     0.23509   0.79028   0.93498   0.00000  Uiso   1.00
C63    C     0.85166   0.17854   0.29117   0.00000  Uiso   1.00
C64    C     0.87946   0.12344   0.28225   0.00000  Uiso   1.00
C65    C     0.31251   0.27187   0.87885   0.00000  Uiso   1.00
C66    C     0.29437   0.29378   0.93903   0.00000  Uiso   1.00
C67    C     0.82731   0.85669   0.24535   0.00000  Uiso   1.00
C68    C     0.73026   0.77250   0.25129   0.00000  Uiso   1.00
C69    C     0.87785   0.87988   0.21503   0.00000  Uiso   1.00
C70    C     0.67982   0.74530   0.60687   0.00000  Uiso   1.00
C71    C     0.69726   0.70007   0.56438   0.00000  Uiso   1.00
C72    C     0.34660   0.31219   0.18517   0.00000  Uiso   1.00
C73    C     0.35672   0.37351   0.18175   0.00000  Uiso   1.00
C74    C     0.80338   0.25571   0.60444   0.00000  Uiso   1.00
C75    C     0.77780   0.20771   0.57143   0.00000  Uiso   1.00
C76    C     0.32295   0.63892   0.24341   0.00000  Uiso   1.00
C77    C     0.38192   0.63069   0.26316   0.00000  Uiso   1.00
C78    C     0.25437   0.19454   0.60672   0.00000  Uiso   1.00
C79    C     0.00002   0.50000   0.47332   0.00000  Uiso   1.00
C80    C     0.20895   0.21932   0.56899   0.00000  Uiso   1.00
C81    C     0.64261   0.67741   0.25006   0.00000  Uiso   1.00
C82    C     0.63610   0.61876   0.27155   0.00000  Uiso   1.00
C83    C     0.24625   0.73197   0.61290   0.00000  Uiso   1.00
C84    C     0.29014   0.73519   0.56508   0.00000  Uiso   1.00
C85    C     0.67863   0.35193   0.20873   0.00000  Uiso   1.00
C86    C     0.62369   0.38001   0.21764   0.00000  Uiso   1.00
C87    C     0.25562   0.80380   0.39563   0.00000  Uiso   1.00
C88    C     0.20754   0.77830   0.42850   0.00000  Uiso   1.00
C89    C     0.63874   0.32306   0.75693   0.00000  Uiso   1.00
C90    C     0.99998   0.50000   0.52668   0.00000  Uiso   1.00
C91    C     0.63022   0.38197   0.73716   0.00000  Uiso   1.00
C92    C     0.24287   0.26791   0.38687   0.00000  Uiso   1.00
C93    C     0.29094   0.24880   0.42459   0.00000  Uiso   1.00
C94    C     0.69508   0.62543   0.81954   0.00000  Uiso   1.00
C95    C     0.63656   0.63140   0.84162   0.00000  Uiso   1.00
C96    C     0.73187   0.24655   0.38703   0.00000  Uiso   1.00
C97    C     0.73502   0.29045   0.43491   0.00000  Uiso   1.00
C98    C     0.35157   0.67840   0.79090   0.00000  Uiso   1.00
C99    C     0.37903   0.62316   0.78182   0.00000  Uiso   1.00
C100   C     0.79575   0.76486   0.38274   0.00000  Uiso   1.00
C101   C     0.49999   0.00000   0.47333   0.00000  Uiso   1.00
C102   C     0.77844   0.77368   0.44704   0.00000  Uiso   1.00
C103   C     0.31670   0.38654   0.73586   0.00000  Uiso   1.00
C104   C     0.37886   0.38445   0.73337   0.00000  Uiso   1.00
C105   C     0.77025   0.72664   0.75012   0.00000  Uiso   1.00
C106   C     0.49999  -0.00000   0.52667   0.00000  Uiso   1.00
C107   C     0.50002  -0.00000   0.97332   0.00000  Uiso   1.00
C108   C     0.49998  -0.00000   0.02668   0.00000  Uiso   1.00
C109   C    -0.00001   0.50000   0.97333   0.00000  Uiso   1.00
C110   C    -0.00001   0.50000   0.02668   0.00000  Uiso   1.00
C111   C    -0.00000   0.50000   0.09000   0.00000  Uiso   1.00
C112   C    -0.00000   0.50000   0.91000   0.00000  Uiso   1.00
C113   C     0.49999  -0.00000   0.09000   0.00000  Uiso   1.00
C114   C     0.50001   0.00000   0.91000   0.00000  Uiso   1.00
C115   C     0.50000  -0.00000   0.59000   0.00000  Uiso   1.00
C116   C     0.27139   0.77154   0.25007   0.00000  Uiso   1.00
C117   C     0.50000   0.00000   0.41000   0.00000  Uiso   1.00
C118   C     0.99999   0.50000   0.59000   0.00000  Uiso   1.00
C119   C     0.00001   0.50000   0.41000   0.00000  Uiso   1.00
C120   C     0.10524   0.60525   0.25001   0.00000  Uiso   1.00
C121   C     0.89480   0.39482   0.75000   0.00000  Uiso   1.00
C122   C     0.60532   0.89484   0.25012   0.00000  Uiso   1.00
C123   C     0.39485   0.10516   0.74997   0.00000  Uiso   1.00
C124   C     0.89490   0.39489   0.24999   0.00000  Uiso   1.00
C125   C     0.10523   0.60525   0.75001   0.00000  Uiso   1.00
C126   C     0.39485   0.10509   0.25000   0.00000  Uiso   1.00
C127   C     0.72873   0.22891   0.75012   0.00000  Uiso   1.00
C128   C     0.60524   0.89460   0.75007   0.00000  Uiso   1.00
C129   C     0.89489   0.60506   0.75001   0.00000  Uiso   1.00
C130   C     0.10522   0.39464   0.25004   0.00000  Uiso   1.00
C131   C     0.39490   0.89488   0.75000   0.00000  Uiso   1.00
C132   C     0.60523   0.10525   0.25001   0.00000  Uiso   1.00
C133   C     0.10541   0.39486   0.75021   0.00000  Uiso   1.00
C134   C     0.89487   0.60515   0.24998   0.00000  Uiso   1.00
C135   C     0.60524   0.10525   0.75001   0.00000  Uiso   1.00
C136   C     0.39481   0.89482   0.25000   0.00000  Uiso   1.00
C137   C     0.18979   0.27265   0.20216   0.00000  Uiso   1.00
C138   C     0.77295   0.72986   0.25112   0.00000  Uiso   1.00
C139   C     0.82537   0.74174   0.74162   0.00000  Uiso   1.00
C140   C     0.28822   0.79512   0.19598   0.00000  Uiso   1.00
C141   C     0.74126   0.17563   0.76988   0.00000  Uiso   1.00
C142   C     0.79549   0.71229   0.19663   0.00000  Uiso   1.00
C143   C     0.17954   0.26143   0.77556   0.00000  Uiso   1.00
C144   C     0.72459   0.19199   0.20162   0.00000  Uiso   1.00
C145   C     0.25710   0.82743   0.75655   0.00000  Uiso   1.00
C146   C     0.79503   0.28844   0.80416   0.00000  Uiso   1.00
C147   C     0.17548   0.74136   0.23030   0.00000  Uiso   1.00
C148   C     0.72822   0.81043   0.79434   0.00000  Uiso   1.00
C149   C     0.23204   0.27422   0.75392   0.00000  Uiso   1.00
C150   C     0.25571   0.17116   0.25196   0.00000  Uiso   1.00
C151   C     0.19198   0.72470   0.79833   0.00000  Uiso   1.00
C152   C     0.82737   0.25707   0.24344   0.00000  Uiso   1.00
C153   C     0.29483   0.20967   0.80670   0.00000  Uiso   1.00
C154   C     0.74127   0.82497   0.22783   0.00000  Uiso   1.00
C155   C     0.68632   0.76883   0.70647   0.00000  Uiso   1.00
C156   C     0.32582   0.24233   0.24749   0.00000  Uiso   1.00
C157   C     0.78818   0.29515   0.69600   0.00000  Uiso   1.00
C158   C     0.24127   0.67562   0.26987   0.00000  Uiso   1.00
C159   C     0.29424   0.21196   0.69797   0.00000  Uiso   1.00
C160   C     0.72886   0.22894   0.24997   0.00000  Uiso   1.00
C161   C     0.67780   0.76043   0.27378   0.00000  Uiso   1.00
C162   C     0.22455   0.69202   0.70158   0.00000  Uiso   1.00
C163   C     0.75709   0.32744   0.25649   0.00000  Uiso   1.00
C164   C     0.29505   0.78842   0.30413   0.00000  Uiso   1.00
C165   C     0.67544   0.24138   0.73035   0.00000  Uiso   1.00
C166   C     0.22481   0.30710   0.29704   0.00000  Uiso   1.00
C167   C     0.75624   0.67136   0.75935   0.00000  Uiso   1.00
C168   C     0.69195   0.22474   0.29832   0.00000  Uiso   1.00
C169   C     0.32736   0.75707   0.74336   0.00000  Uiso   1.00
C170   C     0.78991   0.70543   0.30507   0.00000  Uiso   1.00
C171   C     0.27162   0.77166   0.74996   0.00000  Uiso   1.00
C172   C     0.24345   0.32695   0.73203   0.00000  Uiso   1.00
C173   C     0.14888   0.31311   0.20381   0.00000  Uiso   1.00
C174   C     0.86627   0.70189   0.74413   0.00000  Uiso   1.00
C175   C     0.32746   0.83695   0.19652   0.00000  Uiso   1.00
C176   C     0.70028   0.13579   0.77123   0.00000  Uiso   1.00
C177   C     0.83713   0.67273   0.19691   0.00000  Uiso   1.00
C178   C     0.13874   0.30153   0.77581   0.00000  Uiso   1.00
C179   C     0.68500   0.15095   0.20288   0.00000  Uiso   1.00
C180   C     0.29797   0.86716   0.75859   0.00000  Uiso   1.00
C181   C     0.83691   0.32763   0.80356   0.00000  Uiso   1.00
C182   C     0.77136   0.27157   0.75010   0.00000  Uiso   1.00
C183   C     0.13569   0.70033   0.22889   0.00000  Uiso   1.00
C184   C     0.68914   0.85206   0.79305   0.00000  Uiso   1.00
C185   C     0.29715   0.13134   0.24980   0.00000  Uiso   1.00
C186   C     0.15095   0.68510   0.79710   0.00000  Uiso   1.00
C187   C     0.86713   0.29792   0.24140   0.00000  Uiso   1.00
C188   C     0.33236   0.16656   0.80520   0.00000  Uiso   1.00
C189   C     0.69980   0.86424   0.22651   0.00000  Uiso   1.00
C190   C     0.64563   0.80950   0.70779   0.00000  Uiso   1.00
C191   C     0.36647   0.20226   0.25032   0.00000  Uiso   1.00
C192   C     0.82743   0.33697   0.69654   0.00000  Uiso   1.00
H1     H     0.11812   0.31450   0.16919   0.00000  Uiso   1.00
H2     H     0.09516   0.71012   0.21243   0.00000  Uiso   1.00
H3     H     0.91982   0.12922   0.26042   0.00000  Uiso   1.00
H4     H     0.88577   0.10322   0.32601   0.00000  Uiso   1.00
H5     H     0.85353   0.09669   0.25389   0.00000  Uiso   1.00
H6     H     0.31153   0.30629   0.84636   0.00000  Uiso   1.00
H7     H     0.35536   0.25669   0.88333   0.00000  Uiso   1.00
H8     H     0.29804   0.26118   0.97322   0.00000  Uiso   1.00
H9     H     0.32075   0.32875   0.95221   0.00000  Uiso   1.00
H10    H     0.25122   0.30796   0.93661   0.00000  Uiso   1.00
H11    H     0.84071   0.82267   0.27480   0.00000  Uiso   1.00
H12    H     0.80846   0.88988   0.27265   0.00000  Uiso   1.00
H13    H     0.69109   0.88416   0.82628   0.00000  Uiso   1.00
H14    H     0.86610   0.91435   0.18539   0.00000  Uiso   1.00
H15    H     0.90707   0.89510   0.24911   0.00000  Uiso   1.00
H16    H     0.89819   0.84756   0.18818   0.00000  Uiso   1.00
H17    H     0.70627   0.78171   0.59854   0.00000  Uiso   1.00
H18    H     0.63646   0.75563   0.59692   0.00000  Uiso   1.00
H19    H     0.67260   0.66264   0.57253   0.00000  Uiso   1.00
H20    H     0.74126   0.69038   0.57108   0.00000  Uiso   1.00
H21    H     0.69073   0.71340   0.51768   0.00000  Uiso   1.00
H22    H     0.30897   0.30294   0.15889   0.00000  Uiso   1.00
H23    H     0.38218   0.29064   0.16484   0.00000  Uiso   1.00
H24    H     0.28659   0.08830   0.24896   0.00000  Uiso   1.00
H25    H     0.36166   0.38606   0.13453   0.00000  Uiso   1.00
H26    H     0.32148   0.39600   0.20123   0.00000  Uiso   1.00
H27    H     0.39450   0.38422   0.20668   0.00000  Uiso   1.00
H28    H     0.84080   0.24015   0.62757   0.00000  Uiso   1.00
H29    H     0.81594   0.28731   0.57161   0.00000  Uiso   1.00
H30    H     0.76761   0.17457   0.60341   0.00000  Uiso   1.00
H31    H     0.80696   0.19161   0.53780   0.00000  Uiso   1.00
H32    H     0.73968   0.22090   0.54862   0.00000  Uiso   1.00
H33    H     0.32321   0.66567   0.20322   0.00000  Uiso   1.00
H34    H     0.30541   0.59828   0.23155   0.00000  Uiso   1.00
H35    H     0.12216   0.68323   0.83371   0.00000  Uiso   1.00
H36    H     0.38339   0.60350   0.30277   0.00000  Uiso   1.00
H37    H     0.40584   0.61163   0.22659   0.00000  Uiso   1.00
H38    H     0.40059   0.67079   0.27463   0.00000  Uiso   1.00
H39    H     0.23690   0.15847   0.63059   0.00000  Uiso   1.00
H40    H     0.28774   0.18047   0.57676   0.00000  Uiso   1.00
H41    H     0.22435   0.25586   0.54484   0.00000  Uiso   1.00
H42    H     0.17428   0.23181   0.59796   0.00000  Uiso   1.00
H43    H     0.19415   0.18875   0.53611   0.00000  Uiso   1.00
H44    H     0.66917   0.67681   0.20970   0.00000  Uiso   1.00
H45    H     0.60148   0.69361   0.23789   0.00000  Uiso   1.00
H46    H     0.90957   0.28651   0.23481   0.00000  Uiso   1.00
H47    H     0.61759   0.59341   0.23577   0.00000  Uiso   1.00
H48    H     0.67673   0.60144   0.28339   0.00000  Uiso   1.00
H49    H     0.60910   0.61758   0.31130   0.00000  Uiso   1.00
H50    H     0.24283   0.77330   0.63320   0.00000  Uiso   1.00
H51    H     0.20661   0.72073   0.59169   0.00000  Uiso   1.00
H52    H     0.33060   0.74339   0.58584   0.00000  Uiso   1.00
H53    H     0.28062   0.76902   0.53380   0.00000  Uiso   1.00
H54    H     0.29212   0.69603   0.54003   0.00000  Uiso   1.00
H55    H     0.67100   0.31202   0.18646   0.00000  Uiso   1.00
H56    H     0.70417   0.37843   0.17935   0.00000  Uiso   1.00
H57    H     0.34678   0.14904   0.84668   0.00000  Uiso   1.00
H58    H     0.62968   0.42036   0.23950   0.00000  Uiso   1.00
H59    H     0.60349   0.38642   0.17387   0.00000  Uiso   1.00
H60    H     0.59682   0.35422   0.24597   0.00000  Uiso   1.00
H61    H     0.24015   0.84123   0.37245   0.00000  Uiso   1.00
H62    H     0.28717   0.81636   0.42856   0.00000  Uiso   1.00
H63    H     0.17445   0.76812   0.39642   0.00000  Uiso   1.00
H64    H     0.19142   0.80752   0.46207   0.00000  Uiso   1.00
H65    H     0.22064   0.74017   0.45135   0.00000  Uiso   1.00
H66    H     0.66565   0.32347   0.79701   0.00000  Uiso   1.00
H67    H     0.59822   0.30538   0.76896   0.00000  Uiso   1.00
H68    H     0.70841   0.90394   0.20719   0.00000  Uiso   1.00
H69    H     0.60286   0.38328   0.69766   0.00000  Uiso   1.00
H70    H     0.61122   0.40589   0.77379   0.00000  Uiso   1.00
H71    H     0.67018   0.40078   0.72551   0.00000  Uiso   1.00
H72    H     0.22331   0.23074   0.36737   0.00000  Uiso   1.00
H73    H     0.21263   0.28889   0.41602   0.00000  Uiso   1.00
H74    H     0.30937   0.28410   0.44844   0.00000  Uiso   1.00
H75    H     0.32244   0.22953   0.39571   0.00000  Uiso   1.00
H76    H     0.27690   0.21812   0.45763   0.00000  Uiso   1.00
H77    H     0.72294   0.63844   0.85633   0.00000  Uiso   1.00
H78    H     0.70251   0.58158   0.80905   0.00000  Uiso   1.00
H79    H     0.61248   0.80819   0.67588   0.00000  Uiso   1.00
H80    H     0.63055   0.60602   0.88210   0.00000  Uiso   1.00
H81    H     0.62807   0.67490   0.85276   0.00000  Uiso   1.00
H82    H     0.60744   0.61770   0.80666   0.00000  Uiso   1.00
H83    H     0.77321   0.24314   0.36682   0.00000  Uiso   1.00
H84    H     0.72063   0.20689   0.40820   0.00000  Uiso   1.00
H85    H     0.74325   0.33092   0.41420   0.00000  Uiso   1.00
H86    H     0.76880   0.28092   0.46627   0.00000  Uiso   1.00
H87    H     0.69584   0.29243   0.45985   0.00000  Uiso   1.00
H88    H     0.31163   0.67116   0.81319   0.00000  Uiso   1.00
H89    H     0.37837   0.70365   0.82030   0.00000  Uiso   1.00
H90    H     0.40911   0.21442   0.25039   0.00000  Uiso   1.00
H91    H     0.41939   0.62874   0.75992   0.00000  Uiso   1.00
H92    H     0.38531   0.60284   0.82554   0.00000  Uiso   1.00
H93    H     0.35290   0.59659   0.75347   0.00000  Uiso   1.00
H94    H     0.78585   0.80273   0.35753   0.00000  Uiso   1.00
H95    H     0.84088   0.75781   0.38215   0.00000  Uiso   1.00
H96    H     0.73384   0.78227   0.44916   0.00000  Uiso   1.00
H97    H     0.80096   0.80904   0.46615   0.00000  Uiso   1.00
H98    H     0.78784   0.73661   0.47378   0.00000  Uiso   1.00
H99    H     0.30458   0.39154   0.78347   0.00000  Uiso   1.00
H100   H     0.30269   0.42274   0.71000   0.00000  Uiso   1.00
H101   H     0.83924   0.35629   0.65508   0.00000  Uiso   1.00
H102   H     0.39620   0.42251   0.75274   0.00000  Uiso   1.00
H103   H     0.39407   0.34876   0.75920   0.00000  Uiso   1.00
H104   H     0.39271   0.38065   0.68645   0.00000  Uiso   1.00
H105   H     0.90871   0.71383   0.73901   0.00000  Uiso   1.00
H106   H     0.21010   0.59525   0.28768   0.00000  Uiso   1.00
H107   H     0.35201   0.15765   0.65545   0.00000  Uiso   1.00
H108   H     0.59780   0.79155   0.29327   0.00000  Uiso   1.00
H109   H     0.18306   0.62213   0.66625   0.00000  Uiso   1.00
H110   H     0.78659   0.40965   0.26510   0.00000  Uiso   1.00
H111   H     0.35629   0.83947   0.34500   0.00000  Uiso   1.00
H112   H     0.59513   0.21013   0.71249   0.00000  Uiso   1.00
H113   H     0.18518   0.37827   0.33223   0.00000  Uiso   1.00
H114   H     0.78717   0.58844   0.76084   0.00000  Uiso   1.00
H115   H     0.62210   0.18329   0.33367   0.00000  Uiso   1.00
H116   H     0.33927   0.85627   0.15506   0.00000  Uiso   1.00
H117   H     0.40956   0.78651   0.73469   0.00000  Uiso   1.00
H118   H     0.84035   0.64383   0.34532   0.00000  Uiso   1.00
H119   H     0.20877   0.40557   0.70996   0.00000  Uiso   1.00
H120   H     0.21516   0.29448   0.09711   0.00000  Uiso   1.00
H121   H     0.14617   0.26724   0.08871   0.00000  Uiso   1.00
H122   H     0.25354   0.20620   0.06350   0.00000  Uiso   1.00
H123   H     0.20543   0.23278   0.00935   0.00000  Uiso   1.00
H124   H     0.18550   0.17741   0.05787   0.00000  Uiso   1.00
H125   H     0.80223   0.79436   0.64896   0.00000  Uiso   1.00
H126   H     0.87580   0.78322   0.65025   0.00000  Uiso   1.00
H127   H     0.71012   0.09526   0.78765   0.00000  Uiso   1.00
H128   H     0.85188   0.87549   0.61231   0.00000  Uiso   1.00
H129   H     0.81608   0.89068   0.68079   0.00000  Uiso   1.00
H130   H     0.88944   0.88005   0.68154   0.00000  Uiso   1.00
H131   H     0.34084   0.74004   0.12765   0.00000  Uiso   1.00
H132   H     0.31604   0.78714   0.07160   0.00000  Uiso   1.00
H133   H     0.26761   0.67448   0.10356   0.00000  Uiso   1.00
H134   H     0.30701   0.69139   0.03795   0.00000  Uiso   1.00
H135   H     0.23974   0.72075   0.04867   0.00000  Uiso   1.00
H136   H     0.82318   0.16583   0.70320   0.00000  Uiso   1.00
H137   H     0.80548   0.09838   0.73145   0.00000  Uiso   1.00
H138   H     0.85621   0.66064   0.15542   0.00000  Uiso   1.00
H139   H     0.88348   0.10365   0.80264   0.00000  Uiso   1.00
H140   H     0.90589   0.11189   0.72647   0.00000  Uiso   1.00
H141   H     0.90056   0.17099   0.77459   0.00000  Uiso   1.00
H142   H     0.74054   0.65949   0.12657   0.00000  Uiso   1.00
H143   H     0.79271   0.68234   0.07471   0.00000  Uiso   1.00
H144   H     0.72959   0.75833   0.04254   0.00000  Uiso   1.00
H145   H     0.67825   0.73236   0.09301   0.00000  Uiso   1.00
H146   H     0.70068   0.69105   0.03077   0.00000  Uiso   1.00
H147   H     0.16664   0.17890   0.71140   0.00000  Uiso   1.00
H148   H     0.10076   0.19431   0.74504   0.00000  Uiso   1.00
H149   H     0.09876   0.29150   0.79354   0.00000  Uiso   1.00
H150   H     0.11428   0.11748   0.81644   0.00000  Uiso   1.00
H151   H     0.11812   0.09441   0.74006   0.00000  Uiso   1.00
H152   H     0.18012   0.10274   0.78308   0.00000  Uiso   1.00
H153   H     0.74293   0.27321   0.13318   0.00000  Uiso   1.00
H154   H     0.70674   0.22061   0.09169   0.00000  Uiso   1.00
H155   H     0.83074   0.24324   0.08592   0.00000  Uiso   1.00
H156   H     0.78080   0.26884   0.03381   0.00000  Uiso   1.00
H157   H     0.79229   0.19586   0.04013   0.00000  Uiso   1.00
H158   H     0.17095   0.81206   0.68659   0.00000  Uiso   1.00
H159   H     0.20414   0.87845   0.67948   0.00000  Uiso   1.00
H160   H     0.68313   0.12208   0.16631   0.00000  Uiso   1.00
H161   H     0.12973   0.92040   0.73971   0.00000  Uiso   1.00
H162   H     0.10347   0.88650   0.67409   0.00000  Uiso   1.00
H163   H     0.09683   0.85427   0.74618   0.00000  Uiso   1.00
H164   H     0.74018   0.34125   0.87252   0.00000  Uiso   1.00
H165   H     0.78724   0.31638   0.92858   0.00000  Uiso   1.00
H166   H     0.67448   0.26819   0.89656   0.00000  Uiso   1.00
H167   H     0.69153   0.30756   0.96220   0.00000  Uiso   1.00
H168   H     0.72071   0.24020   0.95143   0.00000  Uiso   1.00
H169   H     0.16571   0.82348   0.29690   0.00000  Uiso   1.00
H170   H     0.09827   0.80546   0.26883   0.00000  Uiso   1.00
H171   H     0.28661   0.90962   0.76522   0.00000  Uiso   1.00
H172   H     0.10303   0.88333   0.19750   0.00000  Uiso   1.00
H173   H     0.11140   0.90595   0.27362   0.00000  Uiso   1.00
H174   H     0.17037   0.90075   0.22537   0.00000  Uiso   1.00
H175   H     0.73463   0.73971   0.87194   0.00000  Uiso   1.00
H176   H     0.72386   0.80210   0.91402   0.00000  Uiso   1.00
H177   H     0.82232   0.80415   0.94047   0.00000  Uiso   1.00
H178   H     0.83473   0.74455   0.89442   0.00000  Uiso   1.00
H179   H     0.79283   0.73874   0.96021   0.00000  Uiso   1.00
H180   H     0.21446   0.13078   0.34179   0.00000  Uiso   1.00
H181   H     0.19841   0.07798   0.28744   0.00000  Uiso   1.00
H182   H     0.85630   0.33947   0.84501   0.00000  Uiso   1.00
H183   H     0.12042   0.09663   0.35495   0.00000  Uiso   1.00
H184   H     0.12008   0.16762   0.33217   0.00000  Uiso   1.00
H185   H     0.10378   0.11442   0.27892   0.00000  Uiso   1.00
H186   H     0.27330   0.74311   0.86679   0.00000  Uiso   1.00
H187   H     0.22077   0.70675   0.90812   0.00000  Uiso   1.00
H188   H     0.24328   0.83079   0.91435   0.00000  Uiso   1.00
H189   H     0.26888   0.78073   0.96632   0.00000  Uiso   1.00
H190   H     0.19591   0.79219   0.95994   0.00000  Uiso   1.00
H191   H     0.81173   0.17111   0.31340   0.00000  Uiso   1.00
H192   H     0.87828   0.20397   0.32058   0.00000  Uiso   1.00
O1     O     0.00000   0.50000   0.25000   0.00000  Uiso   1.00
O2     O     0.00000   0.45454   0.88202   0.00000  Uiso   1.00
O3     O     0.54546  -0.00000   0.11798   0.00000  Uiso   1.00
O4     O     0.45454  -0.00000   0.88202   0.00000  Uiso   1.00
O5     O     0.50000   0.95454   0.61798   0.00000  Uiso   1.00
O6     O     0.50000   0.04546   0.38202   0.00000  Uiso   1.00
O7     O     0.95454   0.50000   0.61798   0.00000  Uiso   1.00
O8     O     0.04546   0.50000   0.38202   0.00000  Uiso   1.00
O9     O     0.50000   0.04546   0.61798   0.00000  Uiso   1.00
O10    O     0.50000   0.95454   0.38202   0.00000  Uiso   1.00
O11    O     0.04546   0.50000   0.61798   0.00000  Uiso   1.00
O12    O     0.00000   0.50000   0.75000   0.00000  Uiso   1.00
O13    O     0.95454   0.50000   0.38202   0.00000  Uiso   1.00
O14    O     0.06399   0.60947   0.21539   0.00000  Uiso   1.00
O15    O     0.93601   0.39053   0.78461   0.00000  Uiso   1.00
O16    O     0.60947   0.93601   0.21539   0.00000  Uiso   1.00
O17    O     0.39053   0.06399   0.78461   0.00000  Uiso   1.00
O18    O     0.93601   0.39053   0.21539   0.00000  Uiso   1.00
O19    O     0.06399   0.60947   0.78461   0.00000  Uiso   1.00
O20    O     0.39053   0.06399   0.21539   0.00000  Uiso   1.00
O21    O     0.60947   0.93601   0.78461   0.00000  Uiso   1.00
O22    O     0.93601   0.60947   0.78461   0.00000  Uiso   1.00
O23    O     0.50000  -0.00000   0.25000   0.00000  Uiso   1.00
O24    O     0.06399   0.39053   0.21539   0.00000  Uiso   1.00
O25    O     0.39053   0.93601   0.78461   0.00000  Uiso   1.00
O26    O     0.60947   0.06399   0.21539   0.00000  Uiso   1.00
O27    O     0.06399   0.39053   0.78461   0.00000  Uiso   1.00
O28    O     0.93601   0.60947   0.21539   0.00000  Uiso   1.00
O29    O     0.60947   0.06399   0.78461   0.00000  Uiso   1.00
O30    O     0.39053   0.93601   0.21539   0.00000  Uiso   1.00
O31    O     0.56399   0.10947   0.71539   0.00000  Uiso   1.00
O32    O     0.43601   0.89053   0.28461   0.00000  Uiso   1.00
O33    O     0.10947   0.43601   0.71539   0.00000  Uiso   1.00
O34    O     0.50000  -0.00000   0.75000   0.00000  Uiso   1.00
O35    O     0.89053   0.56399   0.28461   0.00000  Uiso   1.00
O36    O     0.43601   0.89053   0.71539   0.00000  Uiso   1.00
O37    O     0.56399   0.10947   0.28461   0.00000  Uiso   1.00
O38    O     0.89053   0.56399   0.71539   0.00000  Uiso   1.00
O39    O     0.10947   0.43601   0.28461   0.00000  Uiso   1.00
O40    O     0.43601   0.10947   0.28461   0.00000  Uiso   1.00
O41    O     0.56399   0.89053   0.71539   0.00000  Uiso   1.00
O42    O     0.89053   0.43601   0.28461   0.00000  Uiso   1.00
O43    O     0.10947   0.56399   0.71539   0.00000  Uiso   1.00
O44    O     0.56399   0.89053   0.28461   0.00000  Uiso   1.00
O45    O     0.00000   0.45454   0.11798   0.00000  Uiso   1.00
O46    O     0.43601   0.10947   0.71539   0.00000  Uiso   1.00
O47    O     0.10947   0.56399   0.28461   0.00000  Uiso   1.00
O48    O     0.89053   0.43601   0.71539   0.00000  Uiso   1.00
O49    O     0.19171   0.23318   0.15759   0.00000  Uiso   1.00
O50    O     0.83955   0.79589   0.73297   0.00000  Uiso   1.00
O51    O     0.26395   0.77833   0.14331   0.00000  Uiso   1.00
O52    O     0.79312   0.16308   0.79035   0.00000  Uiso   1.00
O53    O     0.77769   0.73613   0.14400   0.00000  Uiso   1.00
O54    O     0.16868   0.21002   0.79832   0.00000  Uiso   1.00
O55    O     0.76192   0.19221   0.15534   0.00000  Uiso   1.00
O56    O    -0.00000   0.54546   0.88202   0.00000  Uiso   1.00
O57    O     0.20339   0.84354   0.76489   0.00000  Uiso   1.00
O58    O     0.77829   0.26425   0.85685   0.00000  Uiso   1.00
O59    O     0.16287   0.79321   0.20983   0.00000  Uiso   1.00
O60    O     0.76920   0.81192   0.83676   0.00000  Uiso   1.00
O61    O     0.20072   0.15695   0.25351   0.00000  Uiso   1.00
O62    O     0.19230   0.76205   0.84464   0.00000  Uiso   1.00
O63    O     0.84342   0.20332   0.23514   0.00000  Uiso   1.00
O64    O     0.27693   0.22938   0.86098   0.00000  Uiso   1.00
O65    O     0.79096   0.83700   0.20148   0.00000  Uiso   1.00
O66    O     0.68482   0.72591   0.66588   0.00000  Uiso   1.00
O67    O     0.45454  -0.00000   0.11798   0.00000  Uiso   1.00
O68    O     0.34054   0.29689   0.24541   0.00000  Uiso   1.00
O69    O     0.76389   0.27835   0.64334   0.00000  Uiso   1.00
O70    O     0.29313   0.66306   0.29036   0.00000  Uiso   1.00
O71    O     0.27470   0.23516   0.64571   0.00000  Uiso   1.00
O72    O     0.66599   0.70907   0.29608   0.00000  Uiso   1.00
O73    O     0.26183   0.69227   0.65526   0.00000  Uiso   1.00
O74    O     0.70337   0.34355   0.26477   0.00000  Uiso   1.00
O75    O     0.27830   0.76423   0.35683   0.00000  Uiso   1.00
O76    O     0.66282   0.29324   0.70992   0.00000  Uiso   1.00
O77    O     0.26215   0.30481   0.34323   0.00000  Uiso   1.00
O78    O     0.54546  -0.00000   0.88202   0.00000  Uiso   1.00
O79    O     0.70168   0.65749   0.76763   0.00000  Uiso   1.00
O80    O     0.69223   0.26211   0.34460   0.00000  Uiso   1.00
O81    O     0.34340   0.70332   0.73493   0.00000  Uiso   1.00
O82    O     0.76669   0.71997   0.35896   0.00000  Uiso   1.00
O83    O     0.29544   0.33813   0.71027   0.00000  Uiso   1.00
O84    O     0.00000   0.54546   0.11798   0.00000  Uiso   1.00
Zn1    Zn    0.06497   0.50000   0.29947   0.00000  Uiso   1.00
Zn2    Zn    0.43503  -0.00000   0.20053   0.00000  Uiso   1.00
Zn3    Zn    0.00000   0.43503   0.79947   0.00000  Uiso   1.00
Zn4    Zn    0.00000   0.56497   0.20053   0.00000  Uiso   1.00
Zn5    Zn    0.43503  -0.00000   0.79947   0.00000  Uiso   1.00
Zn6    Zn    0.56497  -0.00000   0.20053   0.00000  Uiso   1.00
Zn7    Zn    0.00000   0.56497   0.79947   0.00000  Uiso   1.00
Zn8    Zn   -0.00000   0.43503   0.20053   0.00000  Uiso   1.00
Zn9    Zn    0.93503   0.50000   0.70053   0.00000  Uiso   1.00
Zn10   Zn    0.50000   0.93503   0.29947   0.00000  Uiso   1.00
Zn11   Zn    0.50000   0.06497   0.70053   0.00000  Uiso   1.00
Zn12   Zn    0.93503   0.50000   0.29947   0.00000  Uiso   1.00
Zn13   Zn    0.06497   0.50000   0.70053   0.00000  Uiso   1.00
Zn14   Zn    0.50000   0.06497   0.29947   0.00000  Uiso   1.00
Zn15   Zn    0.50000   0.93503   0.70053   0.00000  Uiso   1.00
Zn16   Zn    0.56497  -0.00000   0.79947   0.00000  Uiso   1.00
loop_
_geom_bond_atom_site_label_1
_geom_bond_atom_site_label_2
_geom_bond_distance
_geom_bond_site_symmetry_2
_ccdc_geom_bond_type
C1     C137    1.408   .     A
C1     C166    1.410   .     A
C1     C24     1.474   .     S
C2     C116    1.474   .     S
C2     C147    1.408   .     A
C2     C158    1.408   .     A
C3     C158    1.397   .     A
C3     C27     1.401   .     A
C3     H106    1.083   .     S
C4     C32     1.400   .     A
C4     C159    1.405   .     A
C4     H107    1.083   .     S
C5     C161    1.396   .     A
C5     H108    1.083   .     S
C5     C33     1.400   .     A
C6     H109    1.083   .     S
C6     C30     1.400   .     A
C6     C162    1.394   .     A
C7     C163    1.394   .     A
C7     C31     1.397   .     A
C7     H110    1.084   .     S
C8     C19     1.400   .     A
C8     C164    1.402   .     A
C8     H111    1.083   .     S
C9     H112    1.083   .     S
C9     C20     1.401   .     A
C9     C165    1.397   .     A
C10    C166    1.394   .     A
C10    H113    1.083   .     S
C10    C17     1.401   .     A
C11    H114    1.083   .     S
C11    C167    1.405   .     A
C11    C18     1.398   .     A
C12    C23     1.400   .     A
C12    H115    1.083   .     S
C12    C168    1.394   .     A
C13    C105    1.475   .     S
C13    C155    1.407   .     A
C13    C148    1.410   .     A
C14    C169    1.394   .     A
C14    H117    1.084   .     S
C14    C25     1.397   .     A
C15    C170    1.395   .     A
C15    H118    1.084   .     S
C15    C21     1.398   .     A
C16    C22     1.402   .     A
C16    C172    1.405   .     A
C16    H119    1.082   .     S
C17    C173    1.403   .     A
C17    C130    1.469   .     S
C18    C174    1.397   .     A
C18    C129    1.456   .     S
C19    C175    1.400   .     A
C19    C136    1.463   .     S
C20    C176    1.401   .     A
C20    C135    1.466   .     S
C21    C177    1.399   .     A
C21    C134    1.459   .     S
C22    C133    1.468   .     S
C22    C178    1.401   .     A
C23    C179    1.400   .     A
C23    C132    1.466   .     S
C24    C156    1.410   .     A
C24    C150    1.409   .     A
C25    C180    1.397   .     A
C25    C131    1.458   .     S
C26    C121    1.463   .     S
C26    C192    1.400   .     A
C26    C181    1.400   .     A
C27    C120    1.466   .     S
C27    C183    1.401   .     A
C28    C190    1.403   .     A
C28    C184    1.401   .     A
C28    C128    1.470   .     S
C29    C191    1.397   .     A
C29    C185    1.399   .     A
C29    C126    1.458   .     S
C30    C125    1.466   .     S
C30    C186    1.400   .     A
C31    C187    1.397   .     A
C31    C124    1.458   .     S
C32    C123    1.460   .     S
C32    C188    1.399   .     A
C33    C189    1.401   .     A
C33    C122    1.466   .     S
C34    H121    1.111   .     S
C34    H120    1.116   .     S
C34    C36     1.520   .     S
C34    O49     1.413   .     S
C35    C171    1.477   .     S
C35    C151    1.416   .     A
C35    C162    1.416   .     A
C36    H124    1.111   .     S
C36    H123    1.110   .     S
C36    H122    1.111   .     S
C37    C38     1.520   .     S
C37    H126    1.114   .     S
C37    H125    1.115   .     S
C37    O50     1.411   .     S
C38    H129    1.111   .     S
C38    H130    1.111   .     S
C38    H128    1.111   .     S
C39    O51     1.414   .     S
C39    H132    1.111   .     S
C39    C40     1.522   .     S
C39    H131    1.117   .     S
C40    H133    1.111   .     S
C40    H135    1.110   .     S
C40    H134    1.110   .     S
C41    H137    1.114   .     S
C41    C42     1.520   .     S
C41    H136    1.114   .     S
C41    O52     1.411   .     S
C42    H139    1.111   .     S
C42    H140    1.110   .     S
C42    H141    1.111   .     S
C43    C44     1.521   .     S
C43    H143    1.112   .     S
C43    O53     1.414   .     S
C43    H142    1.117   .     S
C44    H145    1.111   .     S
C44    H144    1.110   .     S
C44    H146    1.111   .     S
C45    C47     1.520   .     S
C45    H148    1.114   .     S
C45    H147    1.115   .     S
C45    O54     1.411   .     S
C46    C160    1.477   .     S
C46    C163    1.415   .     A
C46    C152    1.415   .     A
C47    H151    1.110   .     S
C47    H150    1.111   .     S
C47    H152    1.111   .     S
C48    H153    1.111   .     S
C48    C49     1.520   .     S
C48    O55     1.410   .     S
C48    H154    1.114   .     S
C49    H156    1.109   .     S
C49    H155    1.111   .     S
C49    H157    1.111   .     S
C50    H159    1.116   .     S
C50    O57     1.411   .     S
C50    C51     1.520   .     S
C50    H158    1.111   .     S
C51    H163    1.111   .     S
C51    H161    1.111   .     S
C51    H162    1.110   .     S
C52    C53     1.522   .     S
C52    H165    1.111   .     S
C52    O58     1.414   .     S
C52    H164    1.118   .     S
C53    H167    1.110   .     S
C53    H166    1.111   .     S
C53    H168    1.110   .     S
C54    H170    1.114   .     S
C54    C55     1.520   .     S
C54    O59     1.411   .     S
C54    H169    1.114   .     S
C55    H172    1.111   .     S
C55    H174    1.111   .     S
C55    H173    1.110   .     S
C56    H175    1.115   .     S
C56    O60     1.412   .     S
C56    C58     1.521   .     S
C56    H176    1.113   .     S
C57    C159    1.408   .     A
C57    C153    1.409   .     A
C57    C149    1.473   .     S
C58    H179    1.109   .     S
C58    H177    1.111   .     S
C58    H178    1.111   .     S
C59    C60     1.521   .     S
C59    H181    1.112   .     S
C59    O61     1.414   .     S
C59    H180    1.116   .     S
C60    H184    1.111   .     S
C60    H185    1.111   .     S
C60    H183    1.111   .     S
C61    O62     1.410   .     S
C61    H186    1.111   .     S
C61    C62     1.520   .     S
C61    H187    1.114   .     S
C62    H189    1.109   .     S
C62    H188    1.111   .     S
C62    H190    1.111   .     S
C63    H192    1.116   .     S
C63    O63     1.411   .     S
C63    C64     1.520   .     S
C63    H191    1.111   .     S
C64    H3      1.111   .     S
C64    H4      1.111   .     S
C64    H5      1.111   .     S
C65    H7      1.115   .     S
C65    H6      1.113   .     S
C65    O64     1.412   .     S
C65    C66     1.520   .     S
C66    H9      1.110   .     S
C66    H8      1.110   .     S
C66    H10     1.111   .     S
C67    H11     1.111   .     S
C67    O65     1.411   .     S
C67    H12     1.116   .     S
C67    C69     1.520   .     S
C68    C138    1.474   .     S
C68    C161    1.410   .     A
C68    C154    1.412   .     A
C69    H14     1.111   .     S
C69    H16     1.111   .     S
C69    H15     1.111   .     S
C70    O66     1.413   .     S
C70    H18     1.111   .     S
C70    C71     1.521   .     S
C70    H17     1.116   .     S
C71    H19     1.111   .     S
C71    H21     1.110   .     S
C71    H20     1.111   .     S
C72    C73     1.520   .     S
C72    H23     1.114   .     S
C72    H22     1.115   .     S
C72    O68     1.411   .     S
C73    H27     1.111   .     S
C73    H26     1.111   .     S
C73    H25     1.110   .     S
C74    O69     1.414   .     S
C74    H28     1.117   .     S
C74    H29     1.111   .     S
C74    C75     1.522   .     S
C75    H32     1.110   .     S
C75    H30     1.111   .     S
C75    H31     1.110   .     S
C76    O70     1.411   .     S
C76    H33     1.114   .     S
C76    H34     1.114   .     S
C76    C77     1.520   .     S
C77    H37     1.110   .     S
C77    H36     1.111   .     S
C77    H38     1.111   .     S
C78    O71     1.414   .     S
C78    H39     1.117   .     S
C78    H40     1.112   .     S
C78    C80     1.521   .     S
C79    C119    1.422   .     S
C79    C90     1.198   1_455 S
C80    H42     1.111   .     S
C80    H41     1.111   .     S
C80    H43     1.110   .     S
C81    C82     1.520   .     S
C81    H45     1.114   .     S
C81    O72     1.411   .     S
C81    H44     1.115   .     S
C82    H47     1.111   .     S
C82    H49     1.111   .     S
C82    H48     1.111   .     S
C83    H50     1.111   .     S
C83    C84     1.520   .     S
C83    O73     1.410   .     S
C83    H51     1.114   .     S
C84    H52     1.111   .     S
C84    H54     1.111   .     S
C84    H53     1.109   .     S
C85    C86     1.520   .     S
C85    H56     1.116   .     S
C85    H55     1.111   .     S
C85    O74     1.411   .     S
C86    H59     1.110   .     S
C86    H60     1.111   .     S
C86    H58     1.111   .     S
C87    O75     1.414   .     S
C87    H62     1.111   .     S
C87    C88     1.522   .     S
C87    H61     1.118   .     S
C88    H65     1.110   .     S
C88    H63     1.111   .     S
C88    H64     1.110   .     S
C89    H67     1.114   .     S
C89    O76     1.411   .     S
C89    C91     1.520   .     S
C89    H66     1.114   .     S
C90    C118    1.422   .     S
C90    C79     1.198   1_655 S
C91    H71     1.111   .     S
C91    H69     1.111   .     S
C91    H70     1.111   .     S
C92    H73     1.112   .     S
C92    O77     1.413   .     S
C92    C93     1.521   .     S
C92    H72     1.116   .     S
C93    H74     1.111   .     S
C93    H76     1.110   .     S
C93    H75     1.111   .     S
C94    O79     1.414   .     S
C94    H77     1.116   .     S
C94    H78     1.112   .     S
C94    C95     1.521   .     S
C95    H80     1.110   .     S
C95    H82     1.111   .     S
C95    H81     1.111   .     S
C96    H83     1.111   .     S
C96    H84     1.114   .     S
C96    O80     1.410   .     S
C96    C97     1.520   .     S
C97    H85     1.111   .     S
C97    H87     1.111   .     S
C97    H86     1.109   .     S
C98    C99     1.520   .     S
C98    H88     1.111   .     S
C98    H89     1.116   .     S
C98    O81     1.411   .     S
C99    H92     1.111   .     S
C99    H93     1.111   .     S
C99    H91     1.111   .     S
C100   H95     1.116   .     S
C100   O82     1.412   .     S
C100   H94     1.111   .     S
C100   C102    1.520   .     S
C101   C117    1.422   .     S
C101   C106    1.198   .     S
C102   H96     1.111   .     S
C102   H97     1.111   .     S
C102   H98     1.110   .     S
C103   H99     1.116   .     S
C103   H100    1.112   .     S
C103   O83     1.414   .     S
C103   C104    1.521   .     S
C104   H103    1.111   .     S
C104   H102    1.111   .     S
C104   H104    1.111   .     S
C105   C139    1.410   .     A
C105   C167    1.409   .     A
C106   C115    1.422   .     S
C107   C114    1.422   .     S
C107   C108    1.198   1_556 S
C108   C113    1.422   .     S
C108   C107    1.198   1_554 S
C109   C112    1.422   .     S
C109   C110    1.198   1_556 S
C110   C111    1.422   .     S
C110   C109    1.198   1_554 S
C111   O45     1.276   .     S
C111   O84     1.276   .     S
C112   O56     1.276   .     A
C112   O2      1.276   .     S
C113   O67     1.276   .     A
C113   O3      1.276   .     A
C114   O4      1.276   .     A
C114   O78     1.276   .     A
C115   O5      1.276   1_545 A
C115   O9      1.276   .     S
C116   C164    1.406   .     A
C116   C140    1.406   .     A
C117   O6      1.276   .     A
C117   O10     1.276   1_545 S
C118   O7      1.276   .     A
C118   O11     1.276   1_655 S
C119   O8      1.276   .     A
C119   O13     1.276   1_455 S
C120   O14     1.277   .     A
C120   O47     1.277   .     A
C121   O15     1.276   .     A
C121   O48     1.276   .     A
C122   O16     1.277   .     A
C122   O44     1.277   .     A
C123   O17     1.276   .     A
C123   O46     1.275   .     A
C124   O42     1.275   .     A
C124   O18     1.275   .     A
C125   O43     1.277   .     A
C125   O19     1.277   .     A
C126   O40     1.275   .     A
C126   O20     1.274   .     A
C127   C165    1.408   .     A
C127   C141    1.408   .     A
C127   C182    1.474   .     S
C128   O21     1.279   .     A
C128   O41     1.277   .     A
C129   O22     1.274   .     A
C129   O38     1.274   .     A
C130   O39     1.278   .     A
C130   O24     1.277   .     A
C131   O25     1.275   .     A
C131   O36     1.275   .     A
C132   O26     1.277   .     A
C132   O37     1.277   .     A
C133   O33     1.277   .     A
C133   O27     1.278   .     A
C134   O28     1.275   .     A
C134   O35     1.276   .     A
C135   O31     1.277   .     A
C135   O29     1.277   .     A
C136   O32     1.276   .     A
C136   O30     1.276   .     A
C137   C173    1.406   .     A
C137   O49     1.390   .     S
C138   C142    1.409   .     A
C138   C170    1.412   .     A
C139   O50     1.382   .     S
C139   C174    1.396   .     A
C140   O51     1.385   .     S
C140   C175    1.402   .     A
C141   C176    1.397   .     A
C141   O52     1.382   .     S
C142   C177    1.403   .     A
C142   O53     1.387   .     S
C143   C178    1.397   .     A
C143   C149    1.407   .     A
C143   O54     1.382   .     S
C144   O55     1.383   .     S
C144   C160    1.416   .     A
C144   C179    1.394   .     A
C145   C180    1.394   .     A
C145   C171    1.415   .     A
C145   O57     1.383   .     S
C146   C181    1.402   .     A
C146   O58     1.385   .     S
C146   C182    1.406   .     A
C147   C183    1.397   .     A
C147   O59     1.382   .     S
C148   O60     1.382   .     S
C148   C184    1.395   .     A
C149   C172    1.407   .     A
C150   C185    1.404   .     A
C150   O61     1.389   .     S
C151   O62     1.383   .     S
C151   C186    1.394   .     A
C152   C187    1.394   .     A
C152   O63     1.383   .     S
C153   C188    1.396   .     A
C153   O64     1.382   .     S
C154   C189    1.395   .     A
C154   O65     1.383   .     S
C155   C190    1.405   .     A
C155   O66     1.390   .     S
C156   C191    1.395   .     A
C156   O68     1.382   .     S
C157   C182    1.406   .     A
C157   O69     1.385   .     S
C157   C192    1.402   .     A
C158   O70     1.382   .     S
C159   O71     1.388   .     S
C160   C168    1.416   .     A
C161   O72     1.382   .     S
C162   O73     1.383   .     S
C163   O74     1.383   .     S
C164   O75     1.385   .     S
C165   O76     1.382   .     S
C166   O77     1.382   .     S
C167   O79     1.388   .     S
C168   O80     1.383   .     S
C169   C171    1.415   .     A
C169   O81     1.383   .     S
C170   O82     1.383   .     S
C172   O83     1.389   .     S
C173   H1      1.081   .     S
C174   H105    1.084   .     S
C175   H116    1.083   .     S
C176   H127    1.083   .     S
C177   H138    1.083   .     S
C178   H149    1.083   .     S
C179   H160    1.083   .     S
C180   H171    1.084   .     S
C181   H182    1.083   .     S
C183   H2      1.083   .     S
C184   H13     1.083   .     S
C185   H24     1.083   .     S
C186   H35     1.083   .     S
C187   H46     1.084   .     S
C188   H57     1.084   .     S
C189   H68     1.083   .     S
C190   H79     1.082   .     S
C191   H90     1.084   .     S
C192   H101    1.083   .     S
O1     Zn1     1.937   .     S
O1     Zn4     1.937   .     S
O1     Zn8     1.937   .     S
O1     Zn12    1.938   1_455 S
O2     Zn3     1.914   .     S
O3     Zn6     1.914   .     S
O4     Zn5     1.914   .     S
O5     C115    1.276   1_565 A
O5     Zn15    1.914   .     S
O6     Zn14    1.914   .     S
O7     Zn9     1.914   .     S
O8     Zn1     1.914   .     S
O9     Zn11    1.914   .     S
O10    Zn10    1.914   .     S
O10    C117    1.276   1_565 S
O11    Zn13    1.914   .     S
O11    C118    1.276   1_455 S
O12    Zn3     1.937   .     S
O12    Zn7     1.937   .     S
O12    Zn13    1.938   .     S
O12    Zn9     1.937   1_455 S
O13    Zn12    1.914   .     S
O13    C119    1.276   1_655 S
O14    Zn4     1.934   .     S
O15    Zn3     1.934   1_655 S
O16    Zn6     1.932   1_565 S
O17    Zn5     1.932   .     S
O18    Zn8     1.934   1_655 S
O19    Zn7     1.934   .     S
O20    Zn2     1.932   .     S
O21    Zn16    1.932   1_565 S
O22    Zn7     1.932   1_655 S
O23    Zn2     1.937   .     S
O23    Zn6     1.938   .     S
O23    Zn10    1.937   1_545 S
O23    Zn14    1.937   .     S
O24    Zn8     1.932   .     S
O25    Zn5     1.934   1_565 S
O26    Zn6     1.934   .     S
O27    Zn3     1.933   .     S
O28    Zn4     1.933   1_655 S
O29    Zn16    1.934   .     S
O30    Zn2     1.934   1_565 S
O31    Zn11    1.934   .     S
O32    Zn10    1.934   .     S
O33    Zn13    1.932   .     S
O34    Zn15    1.937   1_545 S
O34    Zn16    1.937   .     S
O34    Zn5     1.938   .     S
O34    Zn11    1.937   .     S
O35    Zn12    1.932   .     S
O36    Zn15    1.934   .     S
O37    Zn14    1.934   .     S
O38    Zn9     1.932   .     S
O39    Zn1     1.932   .     S
O40    Zn14    1.932   .     S
O41    Zn15    1.932   .     S
O42    Zn12    1.934   .     S
O43    Zn13    1.934   .     S
O44    Zn10    1.933   .     S
O45    Zn8     1.914   .     S
O46    Zn11    1.933   .     S
O47    Zn1     1.934   .     S
O48    Zn9     1.934   .     S
O56    Zn7     1.914   .     S
O67    Zn2     1.914   .     S
O78    Zn16    1.914   .     S
O84    Zn4     1.914   .     S
Zn2    O30     1.934   1_545 S
Zn3    O15     1.934   1_455 S
Zn4    O28     1.933   1_455 S
Zn5    O25     1.934   1_545 S
Zn6    O16     1.932   1_545 S
Zn7    O22     1.932   1_455 S
Zn8    O18     1.934   1_455 S
Zn9    O12     1.937   1_655 S
Zn10   O23     1.937   1_565 S
Zn12   O1      1.938   1_655 S
Zn15   O34     1.937   1_565 S
Zn16   O21     1.932   1_545 S
