data_str_m1_o2_o5_pcu_sym.45
_audit_creation_date              2020-01-03
_audit_creation_method            'Materials Studio'
_symmetry_space_group_name_H-M    'P1'
_symmetry_Int_Tables_number       1
_symmetry_cell_setting            triclinic
loop_
_symmetry_equiv_pos_as_xyz
  x,y,z
_cell_length_a                    24.5340
_cell_length_b                    24.5341
_cell_length_c                    22.4109
_cell_angle_alpha                 90.0084
_cell_angle_beta                  89.9916
_cell_angle_gamma                 90.0153
loop_
_atom_site_label
_atom_site_type_symbol
_atom_site_fract_x
_atom_site_fract_y
_atom_site_fract_z
_atom_site_U_iso_or_equiv
_atom_site_adp_type
_atom_site_occupancy
C1     C     0.22953   0.27043   0.24997   0.00000  Uiso   1.00
C2     C     0.22794   0.72792   0.24994   0.00000  Uiso   1.00
C3     C     0.20243   0.63207   0.24967   0.00000  Uiso   1.00
C4     C     0.35210   0.18992   0.70613   0.00000  Uiso   1.00
C5     C     0.63207   0.79754   0.24999   0.00000  Uiso   1.00
C6     C     0.19003   0.64783   0.70623   0.00000  Uiso   1.00
C7     C     0.79744   0.36698   0.25863   0.00000  Uiso   1.00
C8     C     0.35221   0.80990   0.29365   0.00000  Uiso   1.00
C9     C     0.63662   0.20053   0.72711   0.00000  Uiso   1.00
C10    C     0.18997   0.35211   0.29378   0.00000  Uiso   1.00
C11    C     0.79757   0.63213   0.75019   0.00000  Uiso   1.00
C12    C     0.65398   0.18302   0.29970   0.00000  Uiso   1.00
C13    C     0.72963   0.77053   0.74995   0.00000  Uiso   1.00
C14    C     0.36791   0.79757   0.75017   0.00000  Uiso   1.00
C15    C     0.81004   0.64790   0.29384   0.00000  Uiso   1.00
C16    C     0.20247   0.36796   0.74993   0.00000  Uiso   1.00
C17    C     0.14825   0.35173   0.24999   0.00000  Uiso   1.00
C18    C     0.85288   0.64717   0.75000   0.00000  Uiso   1.00
C19    C     0.35174   0.85173   0.24998   0.00000  Uiso   1.00
C20    C     0.64803   0.14802   0.75000   0.00000  Uiso   1.00
C21    C     0.85173   0.64824   0.25000   0.00000  Uiso   1.00
C22    C     0.14717   0.35287   0.75000   0.00000  Uiso   1.00
C23    C     0.64796   0.14797   0.24999   0.00000  Uiso   1.00
C24    C     0.27204   0.22792   0.24995   0.00000  Uiso   1.00
C25    C     0.35286   0.85286   0.74999   0.00000  Uiso   1.00
C26    C     0.85255   0.35255   0.75000   0.00000  Uiso   1.00
C27    C     0.14714   0.64713   0.24999   0.00000  Uiso   1.00
C28    C     0.64828   0.85176   0.74998   0.00000  Uiso   1.00
C29    C     0.35285   0.14714   0.25000   0.00000  Uiso   1.00
C30    C     0.14826   0.64827   0.74998   0.00000  Uiso   1.00
C31    C     0.85249   0.35250   0.24999   0.00000  Uiso   1.00
C32    C     0.35176   0.14828   0.75001   0.00000  Uiso   1.00
C33    C     0.64714   0.85284   0.24999   0.00000  Uiso   1.00
C34    C     0.22323   0.23975   0.11610   0.00000  Uiso   1.00
C35    C     0.22954   0.72957   0.74995   0.00000  Uiso   1.00
C36    C     0.22458   0.19048   0.07503   0.00000  Uiso   1.00
C37    C     0.84185   0.81782   0.68898   0.00000  Uiso   1.00
C38    C     0.87436   0.87053   0.68648   0.00000  Uiso   1.00
C39    C     0.23953   0.77699   0.11617   0.00000  Uiso   1.00
C40    C     0.19031   0.77592   0.07504   0.00000  Uiso   1.00
C41    C     0.82927   0.15245   0.75136   0.00000  Uiso   1.00
C42    C     0.87387   0.11640   0.77702   0.00000  Uiso   1.00
C43    C     0.77662   0.76015   0.11610   0.00000  Uiso   1.00
C44    C     0.77452   0.80980   0.07563   0.00000  Uiso   1.00
C45    C     0.15829   0.18199   0.68956   0.00000  Uiso   1.00
C46    C     0.77156   0.27158   0.24998   0.00000  Uiso   1.00
C47    C     0.12589   0.12920   0.68736   0.00000  Uiso   1.00
C48    C     0.73923   0.24122   0.11297   0.00000  Uiso   1.00
C49    C     0.77021   0.23757   0.05442   0.00000  Uiso   1.00
C50    C     0.18226   0.84165   0.68883   0.00000  Uiso   1.00
C51    C     0.12948   0.87403   0.68627   0.00000  Uiso   1.00
C52    C     0.73913   0.29450   0.88625   0.00000  Uiso   1.00
C53    C     0.69265   0.25693   0.90451   0.00000  Uiso   1.00
C54    C     0.15841   0.81775   0.31117   0.00000  Uiso   1.00
C55    C     0.12596   0.87047   0.31379   0.00000  Uiso   1.00
C56    C     0.76044   0.77699   0.88377   0.00000  Uiso   1.00
C57    C     0.27053   0.22962   0.75003   0.00000  Uiso   1.00
C58    C     0.80976   0.77571   0.92477   0.00000  Uiso   1.00
C59    C     0.18206   0.15820   0.31070   0.00000  Uiso   1.00
C60    C     0.12935   0.12569   0.31306   0.00000  Uiso   1.00
C61    C     0.22309   0.76059   0.88373   0.00000  Uiso   1.00
C62    C     0.22501   0.81031   0.92412   0.00000  Uiso   1.00
C63    C     0.84627   0.17618   0.28929   0.00000  Uiso   1.00
C64    C     0.87630   0.12261   0.28028   0.00000  Uiso   1.00
C65    C     0.23993   0.22356   0.88394   0.00000  Uiso   1.00
C66    C     0.19023   0.22584   0.92433   0.00000  Uiso   1.00
C67    C     0.81797   0.84182   0.31054   0.00000  Uiso   1.00
C68    C     0.72792   0.77203   0.25000   0.00000  Uiso   1.00
C69    C     0.87063   0.87442   0.31282   0.00000  Uiso   1.00
C70    C     0.72322   0.73972   0.61613   0.00000  Uiso   1.00
C71    C     0.72462   0.69038   0.57515   0.00000  Uiso   1.00
C72    C     0.34174   0.31784   0.18911   0.00000  Uiso   1.00
C73    C     0.37415   0.37061   0.18669   0.00000  Uiso   1.00
C74    C     0.79455   0.23914   0.61372   0.00000  Uiso   1.00
C75    C     0.75704   0.19260   0.59552   0.00000  Uiso   1.00
C76    C     0.31768   0.65839   0.18859   0.00000  Uiso   1.00
C77    C     0.37048   0.62606   0.18591   0.00000  Uiso   1.00
C78    C     0.27665   0.26014   0.61610   0.00000  Uiso   1.00
C79    C    -0.00000   0.49999   0.47330   0.00000  Uiso   1.00
C80    C     0.27488   0.30959   0.57532   0.00000  Uiso   1.00
C81    C     0.65811   0.68198   0.18948   0.00000  Uiso   1.00
C82    C     0.62548   0.62934   0.18721   0.00000  Uiso   1.00
C83    C     0.26039   0.72310   0.61613   0.00000  Uiso   1.00
C84    C     0.30969   0.72436   0.57509   0.00000  Uiso   1.00
C85    C     0.67617   0.34630   0.21069   0.00000  Uiso   1.00
C86    C     0.62261   0.37635   0.21969   0.00000  Uiso   1.00
C87    C     0.27702   0.73931   0.38367   0.00000  Uiso   1.00
C88    C     0.27532   0.68966   0.42417   0.00000  Uiso   1.00
C89    C     0.65251   0.32927   0.74864   0.00000  Uiso   1.00
C90    C     0.00000   0.49999   0.52670   0.00000  Uiso   1.00
C91    C     0.61636   0.37382   0.72303   0.00000  Uiso   1.00
C92    C     0.26027   0.27673   0.38381   0.00000  Uiso   1.00
C93    C     0.30977   0.27499   0.42452   0.00000  Uiso   1.00
C94    C     0.68219   0.65847   0.81098   0.00000  Uiso   1.00
C95    C     0.62932   0.62622   0.81345   0.00000  Uiso   1.00
C96    C     0.74122   0.23923   0.38699   0.00000  Uiso   1.00
C97    C     0.73750   0.27012   0.44559   0.00000  Uiso   1.00
C98    C     0.34165   0.68216   0.81092   0.00000  Uiso   1.00
C99    C     0.37414   0.62946   0.81340   0.00000  Uiso   1.00
C100   C     0.73975   0.72334   0.38388   0.00000  Uiso   1.00
C101   C     0.50000   0.00000   0.47329   0.00000  Uiso   1.00
C102   C     0.69010   0.72540   0.42437   0.00000  Uiso   1.00
C103   C     0.31808   0.34204   0.81035   0.00000  Uiso   1.00
C104   C     0.37066   0.37476   0.81253   0.00000  Uiso   1.00
C105   C     0.77213   0.72800   0.74997   0.00000  Uiso   1.00
C106   C     0.50000  -0.00000   0.52670   0.00000  Uiso   1.00
C107   C     0.50000   0.00000   0.97330   0.00000  Uiso   1.00
C108   C     0.50000   0.00000   0.02670   0.00000  Uiso   1.00
C109   C    -0.00001   0.50000   0.97329   0.00000  Uiso   1.00
C110   C    -0.00001   0.50000   0.02670   0.00000  Uiso   1.00
C111   C    -0.00000   0.50000   0.09007   0.00000  Uiso   1.00
C112   C    -0.00001   0.50000   0.90993   0.00000  Uiso   1.00
C113   C     0.50000   0.00000   0.09007   0.00000  Uiso   1.00
C114   C     0.50000   0.00000   0.90993   0.00000  Uiso   1.00
C115   C     0.50000  -0.00000   0.59007   0.00000  Uiso   1.00
C116   C     0.27046   0.77042   0.24994   0.00000  Uiso   1.00
C117   C     0.50000   0.00000   0.40993   0.00000  Uiso   1.00
C118   C     0.00000   0.50000   0.59007   0.00000  Uiso   1.00
C119   C    -0.00000   0.50000   0.40993   0.00000  Uiso   1.00
C120   C     0.10500   0.60500   0.25000   0.00000  Uiso   1.00
C121   C     0.89489   0.39489   0.75000   0.00000  Uiso   1.00
C122   C     0.60501   0.89499   0.25000   0.00000  Uiso   1.00
C123   C     0.39459   0.10541   0.75000   0.00000  Uiso   1.00
C124   C     0.89487   0.39487   0.25000   0.00000  Uiso   1.00
C125   C     0.10541   0.60541   0.75000   0.00000  Uiso   1.00
C126   C     0.39499   0.10501   0.25000   0.00000  Uiso   1.00
C127   C     0.72927   0.22925   0.75000   0.00000  Uiso   1.00
C128   C     0.60541   0.89459   0.75000   0.00000  Uiso   1.00
C129   C     0.89500   0.60501   0.75000   0.00000  Uiso   1.00
C130   C     0.10540   0.39459   0.25000   0.00000  Uiso   1.00
C131   C     0.39500   0.89500   0.75000   0.00000  Uiso   1.00
C132   C     0.60530   0.10530   0.25000   0.00000  Uiso   1.00
C133   C     0.10501   0.39500   0.75000   0.00000  Uiso   1.00
C134   C     0.89459   0.60540   0.25000   0.00000  Uiso   1.00
C135   C     0.60532   0.10532   0.75000   0.00000  Uiso   1.00
C136   C     0.39459   0.89459   0.25000   0.00000  Uiso   1.00
C137   C     0.18937   0.27075   0.20500   0.00000  Uiso   1.00
C138   C     0.77043   0.72952   0.24999   0.00000  Uiso   1.00
C139   C     0.82773   0.74291   0.74759   0.00000  Uiso   1.00
C140   C     0.27069   0.81068   0.20508   0.00000  Uiso   1.00
C141   C     0.74118   0.17677   0.77199   0.00000  Uiso   1.00
C142   C     0.81055   0.72916   0.20497   0.00000  Uiso   1.00
C143   C     0.17241   0.25715   0.74782   0.00000  Uiso   1.00
C144   C     0.72247   0.19531   0.19969   0.00000  Uiso   1.00
C145   C     0.25714   0.82766   0.74751   0.00000  Uiso   1.00
C146   C     0.79520   0.28852   0.80427   0.00000  Uiso   1.00
C147   C     0.17236   0.74285   0.25247   0.00000  Uiso   1.00
C148   C     0.72934   0.81074   0.79488   0.00000  Uiso   1.00
C149   C     0.22801   0.27212   0.75001   0.00000  Uiso   1.00
C150   C     0.25711   0.17232   0.25227   0.00000  Uiso   1.00
C151   C     0.18933   0.72932   0.79488   0.00000  Uiso   1.00
C152   C     0.82679   0.25685   0.24317   0.00000  Uiso   1.00
C153   C     0.27090   0.18953   0.79508   0.00000  Uiso   1.00
C154   C     0.74287   0.82764   0.25221   0.00000  Uiso   1.00
C155   C     0.68942   0.77078   0.70503   0.00000  Uiso   1.00
C156   C     0.32764   0.24287   0.24764   0.00000  Uiso   1.00
C157   C     0.78854   0.29518   0.69572   0.00000  Uiso   1.00
C158   C     0.24286   0.67233   0.24741   0.00000  Uiso   1.00
C159   C     0.31062   0.22920   0.70497   0.00000  Uiso   1.00
C160   C     0.72911   0.22913   0.24998   0.00000  Uiso   1.00
C161   C     0.67231   0.75710   0.24779   0.00000  Uiso   1.00
C162   C     0.22928   0.68935   0.70503   0.00000  Uiso   1.00
C163   C     0.75684   0.32681   0.25680   0.00000  Uiso   1.00
C164   C     0.31071   0.77064   0.29482   0.00000  Uiso   1.00
C165   C     0.67679   0.24117   0.72800   0.00000  Uiso   1.00
C166   C     0.22922   0.31060   0.29495   0.00000  Uiso   1.00
C167   C     0.75716   0.67241   0.75240   0.00000  Uiso   1.00
C168   C     0.69530   0.22249   0.30028   0.00000  Uiso   1.00
C169   C     0.32765   0.75714   0.75237   0.00000  Uiso   1.00
C170   C     0.77078   0.68940   0.29501   0.00000  Uiso   1.00
C171   C     0.27206   0.77207   0.74994   0.00000  Uiso   1.00
C172   C     0.24292   0.32773   0.75214   0.00000  Uiso   1.00
C173   C     0.14786   0.31001   0.20619   0.00000  Uiso   1.00
C174   C     0.86797   0.70246   0.74983   0.00000  Uiso   1.00
C175   C     0.30994   0.85220   0.20629   0.00000  Uiso   1.00
C176   C     0.70054   0.13661   0.77289   0.00000  Uiso   1.00
C177   C     0.85206   0.68991   0.20615   0.00000  Uiso   1.00
C178   C     0.13214   0.29756   0.75003   0.00000  Uiso   1.00
C179   C     0.68301   0.15399   0.20027   0.00000  Uiso   1.00
C180   C     0.29757   0.86792   0.74977   0.00000  Uiso   1.00
C181   C     0.83673   0.32787   0.80411   0.00000  Uiso   1.00
C182   C     0.77171   0.27169   0.75000   0.00000  Uiso   1.00
C183   C     0.13209   0.70243   0.25026   0.00000  Uiso   1.00
C184   C     0.69007   0.85222   0.79371   0.00000  Uiso   1.00
C185   C     0.29754   0.13207   0.25007   0.00000  Uiso   1.00
C186   C     0.14783   0.69005   0.79371   0.00000  Uiso   1.00
C187   C     0.86696   0.29745   0.24136   0.00000  Uiso   1.00
C188   C     0.31013   0.14800   0.79390   0.00000  Uiso   1.00
C189   C     0.70245   0.86790   0.24999   0.00000  Uiso   1.00
C190   C     0.64788   0.80999   0.70623   0.00000  Uiso   1.00
C191   C     0.36790   0.20245   0.24989   0.00000  Uiso   1.00
C192   C     0.82788   0.33672   0.69589   0.00000  Uiso   1.00
H1     H     0.26543   0.24636   0.13237   0.00000  Uiso   1.00
H2     H     0.85693   0.90074   0.71809   0.00000  Uiso   1.00
H3     H     0.40069   0.64357   0.21747   0.00000  Uiso   1.00
H4     H     0.23454   0.25318   0.63245   0.00000  Uiso   1.00
H5     H     0.29010   0.22411   0.58980   0.00000  Uiso   1.00
H6     H     0.31608   0.31772   0.55686   0.00000  Uiso   1.00
H7     H     0.24599   0.30215   0.53806   0.00000  Uiso   1.00
H8     H     0.26099   0.34588   0.60078   0.00000  Uiso   1.00
H9     H     0.70080   0.67234   0.17677   0.00000  Uiso   1.00
H10    H     0.64027   0.71076   0.15625   0.00000  Uiso   1.00
H11    H     0.58234   0.63747   0.19936   0.00000  Uiso   1.00
H12    H     0.62691   0.61205   0.14144   0.00000  Uiso   1.00
H13    H     0.24595   0.73473   0.13231   0.00000  Uiso   1.00
H14    H     0.64286   0.59920   0.21892   0.00000  Uiso   1.00
H15    H     0.25383   0.76533   0.63234   0.00000  Uiso   1.00
H16    H     0.22415   0.70981   0.59008   0.00000  Uiso   1.00
H17    H     0.31738   0.68303   0.55672   0.00000  Uiso   1.00
H18    H     0.30234   0.75320   0.53777   0.00000  Uiso   1.00
H19    H     0.34620   0.73803   0.60030   0.00000  Uiso   1.00
H20    H     0.66667   0.30519   0.19272   0.00000  Uiso   1.00
H21    H     0.70073   0.36939   0.17728   0.00000  Uiso   1.00
H22    H     0.63055   0.41795   0.23722   0.00000  Uiso   1.00
H23    H     0.60071   0.37970   0.17649   0.00000  Uiso   1.00
H24    H     0.27585   0.79022   0.09020   0.00000  Uiso   1.00
H25    H     0.59657   0.35380   0.25186   0.00000  Uiso   1.00
H26    H     0.23487   0.74637   0.36753   0.00000  Uiso   1.00
H27    H     0.29059   0.77520   0.41013   0.00000  Uiso   1.00
H28    H     0.31655   0.68148   0.44253   0.00000  Uiso   1.00
H29    H     0.24646   0.69688   0.46151   0.00000  Uiso   1.00
H30    H     0.26143   0.65347   0.39852   0.00000  Uiso   1.00
H31    H     0.69065   0.34864   0.76469   0.00000  Uiso   1.00
H32    H     0.63055   0.31051   0.78716   0.00000  Uiso   1.00
H33    H     0.57758   0.35593   0.70658   0.00000  Uiso   1.00
H34    H     0.60701   0.40438   0.75812   0.00000  Uiso   1.00
H35    H     0.18277   0.81728   0.05671   0.00000  Uiso   1.00
H36    H     0.63748   0.39450   0.68548   0.00000  Uiso   1.00
H37    H     0.25326   0.23460   0.36754   0.00000  Uiso   1.00
H38    H     0.22428   0.29023   0.41015   0.00000  Uiso   1.00
H39    H     0.31791   0.31621   0.44294   0.00000  Uiso   1.00
H40    H     0.30239   0.24612   0.46181   0.00000  Uiso   1.00
H41    H     0.34603   0.26109   0.39901   0.00000  Uiso   1.00
H42    H     0.67288   0.70123   0.82371   0.00000  Uiso   1.00
H43    H     0.71094   0.64044   0.84412   0.00000  Uiso   1.00
H44    H     0.63709   0.58302   0.80129   0.00000  Uiso   1.00
H45    H     0.61217   0.62779   0.85928   0.00000  Uiso   1.00
H46    H     0.19762   0.74708   0.03770   0.00000  Uiso   1.00
H47    H     0.59921   0.64381   0.78184   0.00000  Uiso   1.00
H48    H     0.78177   0.24793   0.36716   0.00000  Uiso   1.00
H49    H     0.73795   0.19480   0.39682   0.00000  Uiso   1.00
H50    H     0.69796   0.26139   0.46774   0.00000  Uiso   1.00
H51    H     0.77122   0.25726   0.47536   0.00000  Uiso   1.00
H52    H     0.74093   0.31464   0.43738   0.00000  Uiso   1.00
H53    H     0.29891   0.67264   0.82357   0.00000  Uiso   1.00
H54    H     0.35951   0.71099   0.84410   0.00000  Uiso   1.00
H55    H     0.41732   0.63746   0.80133   0.00000  Uiso   1.00
H56    H     0.37258   0.61228   0.85921   0.00000  Uiso   1.00
H57    H     0.15370   0.76235   0.10017   0.00000  Uiso   1.00
H58    H     0.35673   0.59928   0.78173   0.00000  Uiso   1.00
H59    H     0.74702   0.76541   0.36756   0.00000  Uiso   1.00
H60    H     0.77557   0.70972   0.41039   0.00000  Uiso   1.00
H61    H     0.68166   0.68426   0.44281   0.00000  Uiso   1.00
H62    H     0.69749   0.75428   0.46166   0.00000  Uiso   1.00
H63    H     0.65401   0.73946   0.39870   0.00000  Uiso   1.00
H64    H     0.32780   0.29938   0.82308   0.00000  Uiso   1.00
H65    H     0.28929   0.35987   0.84360   0.00000  Uiso   1.00
H66    H     0.36246   0.41787   0.80036   0.00000  Uiso   1.00
H67    H     0.38798   0.37340   0.85828   0.00000  Uiso   1.00
H68    H     0.84859   0.19058   0.73521   0.00000  Uiso   1.00
H69    H     0.40081   0.35740   0.78080   0.00000  Uiso   1.00
H70    H     0.12271   0.31083   0.11993   0.00000  Uiso   1.00
H71    H     0.08633   0.26926   0.16548   0.00000  Uiso   1.00
H72    H     0.93285   0.73986   0.71154   0.00000  Uiso   1.00
H73    H     0.93153   0.74261   0.78705   0.00000  Uiso   1.00
H74    H     0.31057   0.87757   0.12010   0.00000  Uiso   1.00
H75    H     0.26910   0.91380   0.16587   0.00000  Uiso   1.00
H76    H     0.72658   0.08793   0.84011   0.00000  Uiso   1.00
H77    H     0.74523   0.06713   0.77090   0.00000  Uiso   1.00
H78    H     0.87713   0.68895   0.11985   0.00000  Uiso   1.00
H79    H     0.81051   0.13039   0.71290   0.00000  Uiso   1.00
H80    H     0.91353   0.73061   0.16527   0.00000  Uiso   1.00
H81    H     0.06870   0.25743   0.78752   0.00000  Uiso   1.00
H82    H     0.06725   0.26000   0.71201   0.00000  Uiso   1.00
H83    H     0.66894   0.14233   0.11197   0.00000  Uiso   1.00
H84    H     0.71543   0.09945   0.14240   0.00000  Uiso   1.00
H85    H     0.25739   0.93148   0.78695   0.00000  Uiso   1.00
H86    H     0.26019   0.93276   0.71144   0.00000  Uiso   1.00
H87    H     0.83281   0.36152   0.88661   0.00000  Uiso   1.00
H88    H     0.87724   0.30884   0.88011   0.00000  Uiso   1.00
H89    H     0.06849   0.74262   0.21322   0.00000  Uiso   1.00
H90    H     0.85602   0.07763   0.79358   0.00000  Uiso   1.00
H91    H     0.06731   0.73981   0.28873   0.00000  Uiso   1.00
H92    H     0.68934   0.87749   0.87994   0.00000  Uiso   1.00
H93    H     0.73083   0.91382   0.83428   0.00000  Uiso   1.00
H94    H     0.26006   0.06719   0.28824   0.00000  Uiso   1.00
H95    H     0.25744   0.06854   0.21272   0.00000  Uiso   1.00
H96    H     0.12257   0.68934   0.87994   0.00000  Uiso   1.00
H97    H     0.08626   0.73084   0.83429   0.00000  Uiso   1.00
H98    H     0.92594   0.26142   0.19194   0.00000  Uiso   1.00
H99    H     0.93486   0.25636   0.26670   0.00000  Uiso   1.00
H100   H     0.31113   0.12302   0.88022   0.00000  Uiso   1.00
H101   H     0.90442   0.10701   0.74193   0.00000  Uiso   1.00
H102   H     0.26943   0.08658   0.83488   0.00000  Uiso   1.00
H103   H     0.74258   0.93136   0.21255   0.00000  Uiso   1.00
H104   H     0.73996   0.93280   0.28806   0.00000  Uiso   1.00
H105   H     0.62261   0.81071   0.62001   0.00000  Uiso   1.00
H106   H     0.58634   0.76915   0.66567   0.00000  Uiso   1.00
H107   H     0.43278   0.23990   0.21170   0.00000  Uiso   1.00
H108   H     0.43140   0.24262   0.28721   0.00000  Uiso   1.00
H109   H     0.86154   0.33281   0.61338   0.00000  Uiso   1.00
H110   H     0.80885   0.37722   0.61988   0.00000  Uiso   1.00
H111   H     0.24264   0.56848   0.28672   0.00000  Uiso   1.00
H112   H     0.20996   0.27598   0.09005   0.00000  Uiso   1.00
H113   H     0.89455   0.13761   0.81451   0.00000  Uiso   1.00
H114   H     0.23977   0.56726   0.21121   0.00000  Uiso   1.00
H115   H     0.37709   0.18890   0.61981   0.00000  Uiso   1.00
H116   H     0.41358   0.23055   0.66516   0.00000  Uiso   1.00
H117   H     0.56857   0.75747   0.28746   0.00000  Uiso   1.00
H118   H     0.56715   0.76002   0.21194   0.00000  Uiso   1.00
H119   H     0.18930   0.62255   0.62001   0.00000  Uiso   1.00
H120   H     0.23082   0.58626   0.66567   0.00000  Uiso   1.00
H121   H     0.76142   0.42595   0.30805   0.00000  Uiso   1.00
H122   H     0.75637   0.43488   0.23328   0.00000  Uiso   1.00
H123   H     0.37755   0.81052   0.37985   0.00000  Uiso   1.00
H124   H     0.73455   0.75285   0.13243   0.00000  Uiso   1.00
H125   H     0.41382   0.76907   0.33408   0.00000  Uiso   1.00
H126   H     0.58793   0.22658   0.65990   0.00000  Uiso   1.00
H127   H     0.56715   0.24524   0.72912   0.00000  Uiso   1.00
H128   H     0.18913   0.37726   0.38005   0.00000  Uiso   1.00
H129   H     0.23072   0.41362   0.33452   0.00000  Uiso   1.00
H130   H     0.76011   0.56734   0.78854   0.00000  Uiso   1.00
H131   H     0.75734   0.56859   0.71303   0.00000  Uiso   1.00
H132   H     0.64234   0.16896   0.38801   0.00000  Uiso   1.00
H133   H     0.59945   0.21545   0.35759   0.00000  Uiso   1.00
H134   H     0.43148   0.75741   0.71299   0.00000  Uiso   1.00
H135   H     0.79027   0.72434   0.08958   0.00000  Uiso   1.00
H136   H     0.43272   0.76015   0.78851   0.00000  Uiso   1.00
H137   H     0.81097   0.62285   0.38013   0.00000  Uiso   1.00
H138   H     0.76935   0.58642   0.33470   0.00000  Uiso   1.00
H139   H     0.24251   0.43143   0.71238   0.00000  Uiso   1.00
H140   H     0.23999   0.43293   0.78789   0.00000  Uiso   1.00
H141   H     0.81567   0.81828   0.05719   0.00000  Uiso   1.00
H142   H     0.74566   0.80238   0.03834   0.00000  Uiso   1.00
H143   H     0.76043   0.84587   0.10132   0.00000  Uiso   1.00
H144   H     0.20100   0.17253   0.67678   0.00000  Uiso   1.00
H145   H     0.14027   0.21068   0.65635   0.00000  Uiso   1.00
H146   H     0.08274   0.13713   0.69959   0.00000  Uiso   1.00
H147   H     0.12733   0.11190   0.64160   0.00000  Uiso   1.00
H148   H     0.18329   0.18273   0.05662   0.00000  Uiso   1.00
H149   H     0.14346   0.09915   0.71905   0.00000  Uiso   1.00
H150   H     0.74785   0.28177   0.13283   0.00000  Uiso   1.00
H151   H     0.69481   0.23790   0.10307   0.00000  Uiso   1.00
H152   H     0.76155   0.19802   0.03224   0.00000  Uiso   1.00
H153   H     0.75735   0.27128   0.02465   0.00000  Uiso   1.00
H154   H     0.81471   0.24104   0.06271   0.00000  Uiso   1.00
H155   H     0.17285   0.79891   0.67612   0.00000  Uiso   1.00
H156   H     0.21110   0.85960   0.65572   0.00000  Uiso   1.00
H157   H     0.13737   0.91722   0.69840   0.00000  Uiso   1.00
H158   H     0.11239   0.87246   0.64042   0.00000  Uiso   1.00
H159   H     0.25346   0.19788   0.03774   0.00000  Uiso   1.00
H160   H     0.09929   0.85653   0.71786   0.00000  Uiso   1.00
H161   H     0.72191   0.32856   0.85928   0.00000  Uiso   1.00
H162   H     0.75683   0.31276   0.92718   0.00000  Uiso   1.00
H163   H     0.70846   0.22273   0.93194   0.00000  Uiso   1.00
H164   H     0.66221   0.28006   0.93103   0.00000  Uiso   1.00
H165   H     0.67230   0.24007   0.86433   0.00000  Uiso   1.00
H166   H     0.20116   0.82722   0.32380   0.00000  Uiso   1.00
H167   H     0.14055   0.78889   0.34432   0.00000  Uiso   1.00
H168   H     0.08277   0.86252   0.30174   0.00000  Uiso   1.00
H169   H     0.12756   0.88758   0.35964   0.00000  Uiso   1.00
H170   H     0.23826   0.15397   0.10024   0.00000  Uiso   1.00
H171   H     0.14337   0.90069   0.28217   0.00000  Uiso   1.00
H172   H     0.75383   0.73478   0.86756   0.00000  Uiso   1.00
H173   H     0.72423   0.79029   0.90986   0.00000  Uiso   1.00
H174   H     0.81748   0.81701   0.94316   0.00000  Uiso   1.00
H175   H     0.80242   0.74683   0.96206   0.00000  Uiso   1.00
H176   H     0.84625   0.76206   0.89950   0.00000  Uiso   1.00
H177   H     0.17254   0.20091   0.32342   0.00000  Uiso   1.00
H178   H     0.21085   0.14029   0.34388   0.00000  Uiso   1.00
H179   H     0.13735   0.08253   0.30090   0.00000  Uiso   1.00
H180   H     0.11212   0.12717   0.35885   0.00000  Uiso   1.00
H181   H     0.79913   0.82732   0.67626   0.00000  Uiso   1.00
H182   H     0.09921   0.14314   0.28139   0.00000  Uiso   1.00
H183   H     0.26520   0.75335   0.86753   0.00000  Uiso   1.00
H184   H     0.20943   0.72479   0.91028   0.00000  Uiso   1.00
H185   H     0.18383   0.81868   0.94251   0.00000  Uiso   1.00
H186   H     0.25387   0.80305   0.96144   0.00000  Uiso   1.00
H187   H     0.23902   0.84639   0.89838   0.00000  Uiso   1.00
H188   H     0.80516   0.16669   0.30725   0.00000  Uiso   1.00
H189   H     0.86936   0.20073   0.32270   0.00000  Uiso   1.00
H190   H     0.91790   0.13053   0.26276   0.00000  Uiso   1.00
H191   H     0.87964   0.10071   0.32349   0.00000  Uiso   1.00
H192   H     0.85975   0.78897   0.65585   0.00000  Uiso   1.00
H193   H     0.85374   0.09657   0.24811   0.00000  Uiso   1.00
H194   H     0.24737   0.26559   0.86758   0.00000  Uiso   1.00
H195   H     0.27567   0.20985   0.91053   0.00000  Uiso   1.00
H196   H     0.18159   0.18474   0.94278   0.00000  Uiso   1.00
H197   H     0.19768   0.25471   0.96162   0.00000  Uiso   1.00
H198   H     0.15424   0.24003   0.89857   0.00000  Uiso   1.00
H199   H     0.82758   0.79913   0.32326   0.00000  Uiso   1.00
H200   H     0.78918   0.85970   0.34376   0.00000  Uiso   1.00
H201   H     0.86255   0.91756   0.30066   0.00000  Uiso   1.00
H202   H     0.88789   0.87300   0.35859   0.00000  Uiso   1.00
H203   H     0.91752   0.86255   0.69861   0.00000  Uiso   1.00
H204   H     0.90077   0.85700   0.28112   0.00000  Uiso   1.00
H205   H     0.76542   0.74642   0.63235   0.00000  Uiso   1.00
H206   H     0.70987   0.77589   0.59002   0.00000  Uiso   1.00
H207   H     0.68333   0.68255   0.55678   0.00000  Uiso   1.00
H208   H     0.75347   0.69777   0.53783   0.00000  Uiso   1.00
H209   H     0.73836   0.65393   0.60042   0.00000  Uiso   1.00
H210   H     0.29902   0.32726   0.17635   0.00000  Uiso   1.00
H211   H     0.35972   0.28904   0.15598   0.00000  Uiso   1.00
H212   H     0.41732   0.36271   0.19888   0.00000  Uiso   1.00
H213   H     0.37267   0.38777   0.14087   0.00000  Uiso   1.00
H214   H     0.87286   0.88766   0.64064   0.00000  Uiso   1.00
H215   H     0.35662   0.40076   0.21830   0.00000  Uiso   1.00
H216   H     0.82867   0.22199   0.64066   0.00000  Uiso   1.00
H217   H     0.81275   0.25685   0.57276   0.00000  Uiso   1.00
H218   H     0.72280   0.20835   0.56810   0.00000  Uiso   1.00
H219   H     0.78019   0.16218   0.56901   0.00000  Uiso   1.00
H220   H     0.74022   0.17225   0.63572   0.00000  Uiso   1.00
H221   H     0.32704   0.70115   0.17591   0.00000  Uiso   1.00
H222   H     0.28881   0.64044   0.15550   0.00000  Uiso   1.00
H223   H     0.36264   0.58286   0.19801   0.00000  Uiso   1.00
H224   H     0.38752   0.62767   0.14004   0.00000  Uiso   1.00
N1     N     0.10533   0.30731   0.16232   0.00000  Uiso   1.00
N2     N     0.07555   0.71746   0.25007   0.00000  Uiso   1.00
N3     N     0.69280   0.89481   0.83752   0.00000  Uiso   1.00
N4     N     0.28251   0.07553   0.24967   0.00000  Uiso   1.00
N5     N     0.10524   0.69280   0.83753   0.00000  Uiso   1.00
N6     N     0.92294   0.28255   0.23233   0.00000  Uiso   1.00
N7     N     0.30750   0.10556   0.83788   0.00000  Uiso   1.00
N8     N     0.71751   0.92443   0.24951   0.00000  Uiso   1.00
N9     N     0.60529   0.80722   0.66244   0.00000  Uiso   1.00
N10    N     0.42443   0.21750   0.25030   0.00000  Uiso   1.00
N11    N     0.84377   0.36218   0.64093   0.00000  Uiso   1.00
N12    N     0.92451   0.71748   0.75016   0.00000  Uiso   1.00
N13    N     0.21745   0.57553   0.24989   0.00000  Uiso   1.00
N14    N     0.39455   0.19250   0.66214   0.00000  Uiso   1.00
N15    N     0.57553   0.78251   0.25048   0.00000  Uiso   1.00
N16    N     0.19277   0.60524   0.66243   0.00000  Uiso   1.00
N17    N     0.78255   0.42295   0.26766   0.00000  Uiso   1.00
N18    N     0.39484   0.80711   0.33740   0.00000  Uiso   1.00
N19    N     0.58360   0.21333   0.70399   0.00000  Uiso   1.00
N20    N     0.19266   0.39464   0.33766   0.00000  Uiso   1.00
N21    N     0.78249   0.57561   0.74990   0.00000  Uiso   1.00
N22    N     0.61870   0.17798   0.35051   0.00000  Uiso   1.00
N23    N     0.30714   0.89484   0.16256   0.00000  Uiso   1.00
N24    N     0.42445   0.78254   0.74989   0.00000  Uiso   1.00
N25    N     0.80740   0.60542   0.33778   0.00000  Uiso   1.00
N26    N     0.21749   0.42451   0.74938   0.00000  Uiso   1.00
N27    N     0.71333   0.08359   0.79602   0.00000  Uiso   1.00
N28    N     0.89455   0.69255   0.16221   0.00000  Uiso   1.00
N29    N     0.07562   0.28248   0.75054   0.00000  Uiso   1.00
N30    N     0.67797   0.11871   0.14948   0.00000  Uiso   1.00
N31    N     0.28254   0.92446   0.75008   0.00000  Uiso   1.00
N32    N     0.86219   0.34376   0.85906   0.00000  Uiso   1.00
O1     O    -0.00000   0.50000   0.25000   0.00000  Uiso   1.00
O2     O     0.00000   0.45454   0.88202   0.00000  Uiso   1.00
O3     O     0.54546   0.00000   0.11798   0.00000  Uiso   1.00
O4     O     0.45454   0.00000   0.88202   0.00000  Uiso   1.00
O5     O     0.50000   0.95454   0.61798   0.00000  Uiso   1.00
O6     O     0.50000   0.04546   0.38202   0.00000  Uiso   1.00
O7     O     0.95454   0.50000   0.61798   0.00000  Uiso   1.00
O8     O     0.04546   0.50000   0.38202   0.00000  Uiso   1.00
O9     O     0.50000   0.04546   0.61798   0.00000  Uiso   1.00
O10    O     0.50000   0.95454   0.38202   0.00000  Uiso   1.00
O11    O     0.04546   0.50000   0.61798   0.00000  Uiso   1.00
O12    O     0.00000   0.50000   0.75000   0.00000  Uiso   1.00
O13    O     0.95454   0.50000   0.38202   0.00000  Uiso   1.00
O14    O     0.06399   0.60947   0.21539   0.00000  Uiso   1.00
O15    O     0.93601   0.39053   0.78461   0.00000  Uiso   1.00
O16    O     0.60947   0.93601   0.21539   0.00000  Uiso   1.00
O17    O     0.39053   0.06399   0.78461   0.00000  Uiso   1.00
O18    O     0.93601   0.39053   0.21539   0.00000  Uiso   1.00
O19    O     0.06399   0.60947   0.78461   0.00000  Uiso   1.00
O20    O     0.39053   0.06399   0.21539   0.00000  Uiso   1.00
O21    O     0.60947   0.93601   0.78461   0.00000  Uiso   1.00
O22    O     0.93601   0.60947   0.78461   0.00000  Uiso   1.00
O23    O     0.50000   0.00000   0.25000   0.00000  Uiso   1.00
O24    O     0.06399   0.39053   0.21539   0.00000  Uiso   1.00
O25    O     0.39053   0.93601   0.78461   0.00000  Uiso   1.00
O26    O     0.60947   0.06399   0.21539   0.00000  Uiso   1.00
O27    O     0.06399   0.39053   0.78461   0.00000  Uiso   1.00
O28    O     0.93601   0.60947   0.21539   0.00000  Uiso   1.00
O29    O     0.60947   0.06399   0.78461   0.00000  Uiso   1.00
O30    O     0.39053   0.93601   0.21539   0.00000  Uiso   1.00
O31    O     0.56399   0.10947   0.71539   0.00000  Uiso   1.00
O32    O     0.43601   0.89053   0.28461   0.00000  Uiso   1.00
O33    O     0.10947   0.43601   0.71539   0.00000  Uiso   1.00
O34    O     0.50000   0.00000   0.75000   0.00000  Uiso   1.00
O35    O     0.89053   0.56399   0.28461   0.00000  Uiso   1.00
O36    O     0.43601   0.89053   0.71539   0.00000  Uiso   1.00
O37    O     0.56399   0.10947   0.28461   0.00000  Uiso   1.00
O38    O     0.89053   0.56399   0.71539   0.00000  Uiso   1.00
O39    O     0.10947   0.43601   0.28461   0.00000  Uiso   1.00
O40    O     0.43601   0.10947   0.28461   0.00000  Uiso   1.00
O41    O     0.56399   0.89053   0.71539   0.00000  Uiso   1.00
O42    O     0.89053   0.43601   0.28461   0.00000  Uiso   1.00
O43    O     0.10947   0.56399   0.71539   0.00000  Uiso   1.00
O44    O     0.56399   0.89053   0.28461   0.00000  Uiso   1.00
O45    O    -0.00000   0.45454   0.11798   0.00000  Uiso   1.00
O46    O     0.43601   0.10947   0.71539   0.00000  Uiso   1.00
O47    O     0.10947   0.56399   0.28461   0.00000  Uiso   1.00
O48    O     0.89053   0.43601   0.71539   0.00000  Uiso   1.00
O49    O     0.18660   0.22917   0.16325   0.00000  Uiso   1.00
O50    O     0.84365   0.79709   0.74771   0.00000  Uiso   1.00
O51    O     0.22903   0.81352   0.16344   0.00000  Uiso   1.00
O52    O     0.79147   0.16491   0.79691   0.00000  Uiso   1.00
O53    O     0.81330   0.77072   0.16321   0.00000  Uiso   1.00
O54    O     0.15654   0.20296   0.74820   0.00000  Uiso   1.00
O55    O     0.75729   0.19924   0.15121   0.00000  Uiso   1.00
O56    O     0.00000   0.54546   0.88202   0.00000  Uiso   1.00
O57    O     0.20295   0.84355   0.74757   0.00000  Uiso   1.00
O58    O     0.78005   0.26365   0.85723   0.00000  Uiso   1.00
O59    O     0.15648   0.79704   0.25243   0.00000  Uiso   1.00
O60    O     0.77097   0.81357   0.83656   0.00000  Uiso   1.00
O61    O     0.20292   0.15641   0.25202   0.00000  Uiso   1.00
O62    O     0.18650   0.77100   0.83650   0.00000  Uiso   1.00
O63    O     0.84185   0.20311   0.23381   0.00000  Uiso   1.00
O64    O     0.22935   0.18683   0.83688   0.00000  Uiso   1.00
O65    O     0.79706   0.84353   0.25188   0.00000  Uiso   1.00
O66    O     0.68664   0.72915   0.66333   0.00000  Uiso   1.00
O67    O     0.45454   0.00000   0.11798   0.00000  Uiso   1.00
O68    O     0.34353   0.29706   0.24782   0.00000  Uiso   1.00
O69    O     0.76367   0.28003   0.64276   0.00000  Uiso   1.00
O70    O     0.29705   0.65645   0.24736   0.00000  Uiso   1.00
O71    O     0.31336   0.27073   0.66317   0.00000  Uiso   1.00
O72    O     0.65640   0.70292   0.24813   0.00000  Uiso   1.00
O73    O     0.27091   0.68654   0.66335   0.00000  Uiso   1.00
O74    O     0.70310   0.34187   0.26616   0.00000  Uiso   1.00
O75    O     0.31358   0.72893   0.33639   0.00000  Uiso   1.00
O76    O     0.66493   0.29147   0.70309   0.00000  Uiso   1.00
O77    O     0.27081   0.31337   0.33667   0.00000  Uiso   1.00
O78    O     0.54546   0.00000   0.88202   0.00000  Uiso   1.00
O79    O     0.70296   0.65655   0.75227   0.00000  Uiso   1.00
O80    O     0.69923   0.25731   0.34876   0.00000  Uiso   1.00
O81    O     0.34353   0.70295   0.75222   0.00000  Uiso   1.00
O82    O     0.72921   0.68665   0.33677   0.00000  Uiso   1.00
O83    O     0.29710   0.34366   0.75172   0.00000  Uiso   1.00
O84    O    -0.00000   0.54546   0.11798   0.00000  Uiso   1.00
Zn1    Zn    0.06497   0.50000   0.29947   0.00000  Uiso   1.00
Zn2    Zn    0.43503   0.00000   0.20053   0.00000  Uiso   1.00
Zn3    Zn   -0.00000   0.43503   0.79947   0.00000  Uiso   1.00
Zn4    Zn    0.00000   0.56497   0.20053   0.00000  Uiso   1.00
Zn5    Zn    0.43503   0.00000   0.79947   0.00000  Uiso   1.00
Zn6    Zn    0.56497   0.00000   0.20053   0.00000  Uiso   1.00
Zn7    Zn   -0.00000   0.56497   0.79947   0.00000  Uiso   1.00
Zn8    Zn    0.00000   0.43503   0.20053   0.00000  Uiso   1.00
Zn9    Zn    0.93503   0.50000   0.70053   0.00000  Uiso   1.00
Zn10   Zn    0.50000   0.93503   0.29947   0.00000  Uiso   1.00
Zn11   Zn    0.50000   0.06497   0.70053   0.00000  Uiso   1.00
Zn12   Zn    0.93503   0.50000   0.29947   0.00000  Uiso   1.00
Zn13   Zn    0.06497   0.50000   0.70053   0.00000  Uiso   1.00
Zn14   Zn    0.50000   0.06497   0.29947   0.00000  Uiso   1.00
Zn15   Zn    0.50000   0.93503   0.70053   0.00000  Uiso   1.00
Zn16   Zn    0.56497   0.00000   0.79947   0.00000  Uiso   1.00
loop_
_geom_bond_atom_site_label_1
_geom_bond_atom_site_label_2
_geom_bond_distance
_geom_bond_site_symmetry_2
_ccdc_geom_bond_type
C1     C166    1.410   .     A
C1     C24     1.475   .     S
C1     C137    1.410   .     A
C2     C116    1.475   .     S
C2     C147    1.413   .     A
C2     C158    1.413   .     A
C3     C158    1.401   .     A
C3     N13     1.435   .     S
C3     C27     1.406   .     A
C4     C32     1.418   .     A
C4     N14     1.435   .     S
C4     C159    1.402   .     A
C5     C161    1.401   .     A
C5     N15     1.435   .     S
C5     C33     1.406   .     A
C6     C30     1.418   .     A
C6     N16     1.435   .     S
C6     C162    1.402   .     A
C7     C163    1.402   .     A
C7     N17     1.435   .     S
C7     C31     1.410   .     A
C8     C19     1.418   .     A
C8     N18     1.435   .     S
C8     C164    1.402   .     A
C9     C20     1.415   .     A
C9     N19     1.435   .     S
C9     C165    1.402   .     A
C10    N20     1.435   .     S
C10    C166    1.402   .     A
C10    C17     1.418   .     A
C11    C167    1.401   .     A
C11    C18     1.406   .     A
C11    N21     1.435   .     S
C12    C23     1.415   .     A
C12    N22     1.435   .     S
C12    C168    1.402   .     A
C13    C105    1.475   .     S
C13    C155    1.410   .     A
C13    C148    1.410   .     A
C14    N24     1.435   .     S
C14    C169    1.401   .     A
C14    C25     1.406   .     A
C15    C170    1.402   .     A
C15    N25     1.435   .     S
C15    C21     1.418   .     A
C16    N26     1.435   .     S
C16    C22     1.406   .     A
C16    C172    1.401   .     A
C17    C173    1.418   .     A
C17    C130    1.487   .     S
C18    C174    1.406   .     A
C18    C129    1.462   .     S
C19    C136    1.487   .     S
C19    C175    1.418   .     A
C20    C176    1.415   .     A
C20    C135    1.481   .     S
C21    C177    1.418   .     A
C21    C134    1.487   .     S
C22    C133    1.462   .     S
C22    C178    1.406   .     A
C23    C179    1.415   .     A
C23    C132    1.480   .     S
C24    C150    1.413   .     A
C24    C156    1.413   .     A
C25    C180    1.406   .     A
C25    C131    1.462   .     S
C26    C121    1.469   .     S
C26    C192    1.410   .     A
C26    C181    1.410   .     A
C27    C120    1.462   .     S
C27    C183    1.406   .     A
C28    C184    1.418   .     A
C28    C190    1.418   .     A
C28    C128    1.487   .     S
C29    C185    1.406   .     A
C29    C191    1.406   .     A
C29    C126    1.462   .     S
C30    C125    1.487   .     S
C30    C186    1.418   .     A
C31    C187    1.410   .     A
C31    C124    1.470   .     S
C32    C123    1.487   .     S
C32    C188    1.418   .     A
C33    C189    1.406   .     A
C33    C122    1.462   .     S
C34    O49     1.411   .     S
C34    H1      1.109   .     S
C34    H112    1.112   .     S
C34    C36     1.520   .     S
C35    C171    1.475   .     S
C35    C151    1.410   .     A
C35    C162    1.410   .     A
C36    H148    1.110   .     S
C36    H170    1.111   .     S
C36    H159    1.110   .     S
C37    C38     1.520   .     S
C37    H181    1.111   .     S
C37    H192    1.116   .     S
C37    O50     1.412   .     S
C38    H203    1.111   .     S
C38    H214    1.110   .     S
C38    H2      1.111   .     S
C39    C40     1.520   .     S
C39    H24     1.113   .     S
C39    H13     1.109   .     S
C39    O51     1.411   .     S
C40    H46     1.110   .     S
C40    H35     1.110   .     S
C40    H57     1.111   .     S
C41    H68     1.109   .     S
C41    H79     1.117   .     S
C41    C42     1.520   .     S
C41    O52     1.412   .     S
C42    H113    1.111   .     S
C42    H90     1.111   .     S
C42    H101    1.111   .     S
C43    C44     1.520   .     S
C43    H124    1.109   .     S
C43    H135    1.112   .     S
C43    O53     1.411   .     S
C44    H141    1.110   .     S
C44    H143    1.111   .     S
C44    H142    1.110   .     S
C45    C47     1.520   .     S
C45    H145    1.116   .     S
C45    O54     1.412   .     S
C45    H144    1.111   .     S
C46    C160    1.472   .     S
C46    C163    1.411   .     A
C46    C152    1.411   .     A
C47    H149    1.111   .     S
C47    H146    1.111   .     S
C47    H147    1.110   .     S
C48    H150    1.110   .     S
C48    O55     1.412   .     S
C48    C49     1.519   .     S
C48    H151    1.115   .     S
C49    H154    1.111   .     S
C49    H152    1.111   .     S
C49    H153    1.109   .     S
C50    O57     1.412   .     S
C50    H156    1.116   .     S
C50    C51     1.520   .     S
C50    H155    1.111   .     S
C51    H158    1.110   .     S
C51    H160    1.111   .     S
C51    H157    1.111   .     S
C52    H161    1.115   .     S
C52    C53     1.522   .     S
C52    H162    1.109   .     S
C52    O58     1.416   .     S
C53    H163    1.110   .     S
C53    H164    1.110   .     S
C53    H165    1.110   .     S
C54    H166    1.111   .     S
C54    C55     1.520   .     S
C54    O59     1.412   .     S
C54    H167    1.116   .     S
C55    H171    1.111   .     S
C55    H169    1.110   .     S
C55    H168    1.111   .     S
C56    H173    1.112   .     S
C56    O60     1.411   .     S
C56    C58     1.520   .     S
C56    H172    1.109   .     S
C57    C159    1.410   .     A
C57    C149    1.475   .     S
C57    C153    1.410   .     A
C58    H176    1.111   .     S
C58    H174    1.110   .     S
C58    H175    1.110   .     S
C59    C60     1.520   .     S
C59    H177    1.111   .     S
C59    H178    1.116   .     S
C59    O61     1.412   .     S
C60    H179    1.111   .     S
C60    H180    1.110   .     S
C60    H182    1.111   .     S
C61    H183    1.109   .     S
C61    C62     1.520   .     S
C61    H184    1.112   .     S
C61    O62     1.411   .     S
C62    H186    1.110   .     S
C62    H187    1.111   .     S
C62    H185    1.110   .     S
C63    O63     1.412   .     S
C63    C64     1.520   .     S
C63    H189    1.115   .     S
C63    H188    1.111   .     S
C64    H191    1.110   .     S
C64    H190    1.111   .     S
C64    H193    1.111   .     S
C65    H194    1.109   .     S
C65    O64     1.411   .     S
C65    H195    1.112   .     S
C65    C66     1.520   .     S
C66    H196    1.110   .     S
C66    H197    1.110   .     S
C66    H198    1.111   .     S
C67    H199    1.111   .     S
C67    O65     1.412   .     S
C67    H200    1.116   .     S
C67    C69     1.520   .     S
C68    C138    1.475   .     S
C68    C161    1.413   .     A
C68    C154    1.413   .     A
C69    H201    1.111   .     S
C69    H204    1.111   .     S
C69    H202    1.110   .     S
C70    O66     1.411   .     S
C70    H206    1.112   .     S
C70    C71     1.520   .     S
C70    H205    1.109   .     S
C71    H209    1.111   .     S
C71    H208    1.110   .     S
C71    H207    1.110   .     S
C72    H211    1.116   .     S
C72    C73     1.520   .     S
C72    O68     1.412   .     S
C72    H210    1.111   .     S
C73    H213    1.110   .     S
C73    H215    1.111   .     S
C73    H212    1.111   .     S
C74    H216    1.115   .     S
C74    H217    1.109   .     S
C74    C75     1.522   .     S
C74    O69     1.416   .     S
C75    H220    1.110   .     S
C75    H218    1.110   .     S
C75    H219    1.110   .     S
C76    O70     1.412   .     S
C76    C77     1.520   .     S
C76    H222    1.116   .     S
C76    H221    1.111   .     S
C77    H224    1.110   .     S
C77    H223    1.111   .     S
C77    H3      1.111   .     S
C78    C80     1.520   .     S
C78    H4      1.109   .     S
C78    O71     1.411   .     S
C78    H5      1.112   .     S
C79    C119    1.420   .     S
C79    C90     1.197   .     S
C80    H7      1.110   .     S
C80    H6      1.110   .     S
C80    H8      1.111   .     S
C81    H10     1.116   .     S
C81    O72     1.412   .     S
C81    H9      1.111   .     S
C81    C82     1.520   .     S
C82    H14     1.111   .     S
C82    H11     1.111   .     S
C82    H12     1.110   .     S
C83    H15     1.109   .     S
C83    C84     1.520   .     S
C83    O73     1.411   .     S
C83    H16     1.113   .     S
C84    H17     1.110   .     S
C84    H19     1.111   .     S
C84    H18     1.110   .     S
C85    C86     1.520   .     S
C85    O74     1.412   .     S
C85    H21     1.116   .     S
C85    H20     1.111   .     S
C86    H22     1.111   .     S
C86    H23     1.111   .     S
C86    H25     1.111   .     S
C87    C88     1.520   .     S
C87    H26     1.109   .     S
C87    O75     1.411   .     S
C87    H27     1.112   .     S
C88    H30     1.111   .     S
C88    H28     1.110   .     S
C88    H29     1.110   .     S
C89    H32     1.117   .     S
C89    C91     1.520   .     S
C89    O76     1.412   .     S
C89    H31     1.109   .     S
C90    C118    1.420   .     S
C91    H36     1.111   .     S
C91    H34     1.111   .     S
C91    H33     1.111   .     S
C92    C93     1.520   .     S
C92    H37     1.109   .     S
C92    O77     1.411   .     S
C92    H38     1.112   .     S
C93    H39     1.110   .     S
C93    H41     1.111   .     S
C93    H40     1.110   .     S
C94    H42     1.111   .     S
C94    H43     1.116   .     S
C94    C95     1.520   .     S
C94    O79     1.412   .     S
C95    H47     1.111   .     S
C95    H45     1.110   .     S
C95    H44     1.111   .     S
C96    O80     1.412   .     S
C96    H49     1.115   .     S
C96    H48     1.110   .     S
C96    C97     1.519   .     S
C97    H50     1.111   .     S
C97    H52     1.111   .     S
C97    H51     1.109   .     S
C98    O81     1.412   .     S
C98    H53     1.111   .     S
C98    C99     1.520   .     S
C98    H54     1.116   .     S
C99    H55     1.111   .     S
C99    H58     1.111   .     S
C99    H56     1.110   .     S
C100   H59     1.109   .     S
C100   O82     1.411   .     S
C100   C102    1.520   .     S
C100   H60     1.112   .     S
C101   C117    1.420   .     S
C101   C106    1.197   .     S
C102   H63     1.111   .     S
C102   H61     1.110   .     S
C102   H62     1.110   .     S
C103   H64     1.111   .     S
C103   O83     1.412   .     S
C103   C104    1.520   .     S
C103   H65     1.116   .     S
C104   H67     1.110   .     S
C104   H66     1.111   .     S
C104   H69     1.111   .     S
C105   C139    1.413   .     A
C105   C167    1.413   .     A
C106   C115    1.420   .     S
C107   C114    1.420   .     S
C107   C108    1.197   1_556 S
C108   C113    1.420   .     S
C108   C107    1.197   1_554 S
C109   C112    1.420   .     S
C109   C110    1.197   1_556 S
C110   C111    1.420   .     S
C110   C109    1.197   1_554 S
C111   O84     1.279   .     A
C111   O45     1.279   .     A
C112   O2      1.279   .     S
C112   O56     1.279   .     S
C113   O3      1.279   .     S
C113   O67     1.279   .     S
C114   O4      1.279   .     S
C114   O78     1.279   .     S
C115   O5      1.279   1_545 A
C115   O9      1.279   .     S
C116   C164    1.410   .     A
C116   C140    1.410   .     A
C117   O6      1.279   .     A
C117   O10     1.279   1_545 S
C118   O11     1.279   .     A
C118   O7      1.279   1_455 S
C119   O13     1.279   1_455 A
C119   O8      1.279   .     S
C120   O14     1.275   .     A
C120   O47     1.275   .     A
C121   O15     1.277   .     A
C121   O48     1.277   .     A
C122   O16     1.275   .     A
C122   O44     1.275   .     A
C123   O17     1.282   .     A
C123   O46     1.282   .     A
C124   O18     1.277   .     A
C124   O42     1.277   .     A
C125   O43     1.282   .     A
C125   O19     1.282   .     A
C126   O40     1.275   .     A
C126   O20     1.275   .     A
C127   C165    1.409   .     A
C127   C182    1.473   .     S
C127   C141    1.409   .     A
C128   O21     1.282   .     A
C128   O41     1.282   .     A
C129   O22     1.275   .     A
C129   O38     1.275   .     A
C130   O39     1.282   .     A
C130   O24     1.282   .     A
C131   O25     1.275   .     A
C131   O36     1.275   .     A
C132   O26     1.280   .     A
C132   O37     1.280   .     A
C133   O27     1.275   .     A
C133   O33     1.275   .     A
C134   O28     1.282   .     A
C134   O35     1.282   .     A
C135   O31     1.281   .     A
C135   O29     1.281   .     A
C136   O32     1.282   .     A
C136   O30     1.282   .     A
C137   C173    1.402   .     A
C137   O49     1.386   .     S
C138   C142    1.410   .     A
C138   C170    1.410   .     A
C139   O50     1.385   .     S
C139   C174    1.401   .     A
C140   O51     1.386   .     S
C140   C175    1.402   .     A
C141   C176    1.402   .     A
C141   O52     1.386   .     S
C142   C177    1.402   .     A
C142   O53     1.386   .     S
C143   C178    1.401   .     A
C143   O54     1.385   .     S
C143   C149    1.413   .     A
C144   C160    1.409   .     A
C144   O55     1.385   .     S
C144   C179    1.402   .     A
C145   C180    1.401   .     A
C145   C171    1.413   .     A
C145   O57     1.385   .     S
C146   C181    1.403   .     A
C146   O58     1.385   .     S
C146   C182    1.408   .     A
C147   O59     1.385   .     S
C147   C183    1.401   .     A
C148   O60     1.386   .     S
C148   C184    1.402   .     A
C149   C172    1.413   .     A
C150   C185    1.401   .     A
C150   O61     1.385   .     S
C151   C186    1.402   .     A
C151   O62     1.386   .     S
C152   C187    1.402   .     A
C152   O63     1.385   .     S
C153   O64     1.386   .     S
C153   C188    1.402   .     A
C154   O65     1.385   .     S
C154   C189    1.401   .     A
C155   C190    1.402   .     A
C155   O66     1.386   .     S
C156   O68     1.385   .     S
C156   C191    1.401   .     A
C157   C182    1.408   .     A
C157   C192    1.403   .     A
C157   O69     1.385   .     S
C158   O70     1.385   .     S
C159   O71     1.386   .     S
C160   C168    1.409   .     A
C161   O72     1.385   .     S
C162   O73     1.386   .     S
C163   O74     1.385   .     S
C164   O75     1.386   .     S
C165   O76     1.386   .     S
C166   O77     1.386   .     S
C167   O79     1.385   .     S
C168   O80     1.385   .     S
C169   O81     1.385   .     S
C169   C171    1.413   .     A
C170   O82     1.386   .     S
C172   O83     1.385   .     S
C173   N1      1.435   .     S
C174   N12     1.435   .     S
C175   N23     1.435   .     S
C176   N27     1.435   .     S
C177   N28     1.435   .     S
C178   N29     1.435   .     S
C179   N30     1.435   .     S
C180   N31     1.435   .     S
C181   N32     1.435   .     S
C183   N2      1.435   .     S
C184   N3      1.435   .     S
C185   N4      1.435   .     S
C186   N5      1.435   .     S
C187   N6      1.435   .     S
C188   N7      1.435   .     S
C189   N8      1.435   .     S
C190   N9      1.435   .     S
C191   N10     1.435   .     S
C192   N11     1.435   .     S
H70    N1      1.045   .     S
H71    N1      1.046   .     S
H72    N12     1.045   .     S
H73    N12     1.046   .     S
H74    N23     1.045   .     S
H75    N23     1.046   .     S
H76    N27     1.046   .     S
H77    N27     1.045   .     S
H78    N28     1.045   .     S
H80    N28     1.046   .     S
H81    N29     1.046   .     S
H82    N29     1.045   .     S
H83    N30     1.045   .     S
H84    N30     1.046   .     S
H85    N31     1.046   .     S
H86    N31     1.045   .     S
H87    N32     1.044   .     S
H88    N32     1.046   .     S
H89    N2      1.046   .     S
H91    N2      1.045   .     S
H92    N3      1.045   .     S
H93    N3      1.046   .     S
H94    N4      1.045   .     S
H95    N4      1.046   .     S
H96    N5      1.045   .     S
H97    N5      1.046   .     S
H98    N6      1.046   .     S
H99    N6      1.045   .     S
H100   N7      1.045   .     S
H102   N7      1.046   .     S
H103   N8      1.046   .     S
H104   N8      1.045   .     S
H105   N9      1.045   .     S
H106   N9      1.046   .     S
H107   N10     1.045   .     S
H108   N10     1.046   .     S
H109   N11     1.044   .     S
H110   N11     1.046   .     S
H111   N13     1.046   .     S
H114   N13     1.045   .     S
H115   N14     1.045   .     S
H116   N14     1.046   .     S
H117   N15     1.046   .     S
H118   N15     1.045   .     S
H119   N16     1.045   .     S
H120   N16     1.046   .     S
H121   N17     1.046   .     S
H122   N17     1.045   .     S
H123   N18     1.045   .     S
H125   N18     1.046   .     S
H126   N19     1.046   .     S
H127   N19     1.045   .     S
H128   N20     1.045   .     S
H129   N20     1.046   .     S
H130   N21     1.045   .     S
H131   N21     1.046   .     S
H132   N22     1.045   .     S
H133   N22     1.046   .     S
H134   N24     1.046   .     S
H136   N24     1.045   .     S
H137   N25     1.045   .     S
H138   N25     1.046   .     S
H139   N26     1.046   .     S
H140   N26     1.045   .     S
O1     Zn12    1.941   1_455 S
O1     Zn1     1.942   .     S
O1     Zn4     1.942   .     S
O1     Zn8     1.941   .     S
O2     Zn3     1.911   .     S
O3     Zn6     1.911   .     S
O4     Zn5     1.911   .     S
O5     C115    1.279   1_565 A
O5     Zn15    1.911   .     S
O6     Zn14    1.911   .     S
O7     Zn9     1.911   .     S
O7     C118    1.279   1_655 S
O8     Zn1     1.911   .     S
O9     Zn11    1.911   .     S
O10    Zn10    1.911   .     S
O10    C117    1.279   1_565 S
O11    Zn13    1.911   .     S
O12    Zn13    1.941   .     S
O12    Zn3     1.942   .     S
O12    Zn7     1.941   .     S
O12    Zn9     1.942   1_455 S
O13    C119    1.279   1_655 A
O13    Zn12    1.911   .     S
O14    Zn4     1.941   .     S
O15    Zn3     1.941   1_655 S
O16    Zn6     1.941   1_565 S
O17    Zn5     1.941   .     S
O18    Zn8     1.941   1_655 S
O19    Zn7     1.941   .     S
O20    Zn2     1.941   .     S
O21    Zn16    1.941   1_565 S
O22    Zn7     1.941   1_655 S
O23    Zn10    1.942   1_545 S
O23    Zn2     1.942   .     S
O23    Zn6     1.941   .     S
O23    Zn14    1.941   .     S
O24    Zn8     1.941   .     S
O25    Zn5     1.941   1_565 S
O26    Zn6     1.941   .     S
O27    Zn3     1.941   .     S
O28    Zn4     1.941   1_655 S
O29    Zn16    1.941   .     S
O30    Zn2     1.941   1_565 S
O31    Zn11    1.941   .     S
O32    Zn10    1.941   .     S
O33    Zn13    1.941   .     S
O34    Zn15    1.941   1_545 S
O34    Zn5     1.941   .     S
O34    Zn16    1.942   .     S
O34    Zn11    1.942   .     S
O35    Zn12    1.941   .     S
O36    Zn15    1.941   .     S
O37    Zn14    1.941   .     S
O38    Zn9     1.941   .     S
O39    Zn1     1.941   .     S
O40    Zn14    1.941   .     S
O41    Zn15    1.941   .     S
O42    Zn12    1.941   .     S
O43    Zn13    1.941   .     S
O44    Zn10    1.941   .     S
O45    Zn8     1.911   .     S
O46    Zn11    1.941   .     S
O47    Zn1     1.941   .     S
O48    Zn9     1.941   .     S
O56    Zn7     1.911   .     S
O67    Zn2     1.911   .     S
O78    Zn16    1.911   .     S
O84    Zn4     1.911   .     S
Zn2    O30     1.941   1_545 S
Zn3    O15     1.941   1_455 S
Zn4    O28     1.941   1_455 S
Zn5    O25     1.941   1_545 S
Zn6    O16     1.941   1_545 S
Zn7    O22     1.941   1_455 S
Zn8    O18     1.941   1_455 S
Zn9    O12     1.942   1_655 S
Zn10   O23     1.942   1_565 S
Zn12   O1      1.941   1_655 S
Zn15   O34     1.941   1_565 S
Zn16   O21     1.941   1_545 S
