data_str_m1_o10_o16_pcu_sym.73
_audit_creation_date              2020-01-03
_audit_creation_method            'Materials Studio'
_symmetry_space_group_name_H-M    'P1'
_symmetry_Int_Tables_number       1
_symmetry_cell_setting            triclinic
loop_
_symmetry_equiv_pos_as_xyz
  x,y,z
_cell_length_a                    32.8010
_cell_length_b                    32.4717
_cell_length_c                    31.0502
_cell_angle_alpha                 96.4496
_cell_angle_beta                  74.3615
_cell_angle_gamma                 98.4421
loop_
_atom_site_label
_atom_site_type_symbol
_atom_site_fract_x
_atom_site_fract_y
_atom_site_fract_z
_atom_site_U_iso_or_equiv
_atom_site_adp_type
_atom_site_occupancy
C1     C     0.05297   0.15955   0.26065   0.00000  Uiso   1.00
C2     C     0.17777   0.16806   0.05865   0.00000  Uiso   1.00
C3     C     0.20211   0.10147   0.06113   0.00000  Uiso   1.00
C4     C     0.28101   0.17310   0.23944   0.00000  Uiso   1.00
C5     C     0.14372   0.19526   0.41911   0.00000  Uiso   1.00
C6     C     0.32726   0.17268   0.23373   0.00000  Uiso   1.00
C7     C     0.00769   0.15778   0.26645   0.00000  Uiso   1.00
C8     C     0.18072   0.32257   0.23648   0.00000  Uiso   1.00
C9     C     0.15201   0.01180   0.26379   0.00000  Uiso   1.00
C10    C     0.15604   0.05597   0.26032   0.00000  Uiso   1.00
C11    C     0.17663   0.27794   0.24016   0.00000  Uiso   1.00
C12    C     0.14689   0.25260   0.47548   0.00000  Uiso   1.00
C13    C     0.18540   0.14800   0.12948   0.00000  Uiso   1.00
C14    C     0.14800   0.18422   0.37097   0.00000  Uiso   1.00
C15    C     0.19667   0.08893   0.01869   0.00000  Uiso   1.00
C16    C     0.19147   0.14034   0.08147   0.00000  Uiso   1.00
C17    C     0.13863   0.23684   0.43495   0.00000  Uiso   1.00
C18    C     0.31225   0.14273   0.31118   0.00000  Uiso   1.00
C19    C     0.00205   0.13205   0.34486   0.00000  Uiso   1.00
C20    C     0.30350   0.11599   0.38702   0.00000  Uiso   1.00
C21    C     0.02741   0.18776   0.19127   0.00000  Uiso   1.00
C22    C     0.01166   0.20183   0.15356   0.00000  Uiso   1.00
C23    C     0.16027   0.22725   0.00084   0.00000  Uiso   1.00
C24    C     0.04882   0.21178   0.11278   0.00000  Uiso   1.00
C25    C     0.16183   0.18406   0.48831   0.00000  Uiso   1.00
C26    C     0.15235   0.16773   0.44705   0.00000  Uiso   1.00
C27    C     0.17419   0.15687   0.01429   0.00000  Uiso   1.00
C28    C     0.18112   0.11549   0.49601   0.00000  Uiso   1.00
C29    C     0.16934   0.09967   0.45703   0.00000  Uiso   1.00
C30    C     0.15241   0.12450   0.43455   0.00000  Uiso   1.00
F31    F     0.21392   0.00753   0.20509   0.00000  Uiso   1.00
F32    F     0.16199   0.20229   0.08296   0.00000  Uiso   1.00
F33    F     0.13424   0.10527   0.40195   0.00000  Uiso   1.00
H34    H     0.21176   0.07973   0.07943   0.00000  Uiso   1.00
H35    H     0.32096   0.10881   0.41080   0.00000  Uiso   1.00
H36    H     0.02307   0.10756   0.32924   0.00000  Uiso   1.00
H37    H     0.02182   0.16034   0.35503   0.00000  Uiso   1.00
H38    H     0.29218   0.16758   0.32828   0.00000  Uiso   1.00
H39    H     0.29180   0.11377   0.30382   0.00000  Uiso   1.00
H40    H     0.07234   0.23706   0.12212   0.00000  Uiso   1.00
H41    H     0.06497   0.18358   0.09898   0.00000  Uiso   1.00
H42    H     0.03668   0.22232   0.08627   0.00000  Uiso   1.00
H43    H     0.32223   0.17658   0.14276   0.00000  Uiso   1.00
H44    H     0.32932   0.23060   0.16547   0.00000  Uiso   1.00
H45    H     0.12510   0.33120   0.28884   0.00000  Uiso   1.00
H46    H     0.04932   0.21412   0.20175   0.00000  Uiso   1.00
H47    H     0.04642   0.16167   0.17609   0.00000  Uiso   1.00
H48    H     0.17111   0.06712   0.44512   0.00000  Uiso   1.00
H49    H     0.20261   0.05764   0.00451   0.00000  Uiso   1.00
H50    H     0.13160   0.25824   0.41431   0.00000  Uiso   1.00
H51    H     0.17093   0.24304   0.02889   0.00000  Uiso   1.00
H52    H     0.14539   0.28540   0.48603   0.00000  Uiso   1.00
H53    H     0.28231   0.14000   0.40379   0.00000  Uiso   1.00
H54    H     0.28373   0.08705   0.37837   0.00000  Uiso   1.00
O55    O     0.16667   0.16667   0.25000   0.00000  Uiso   1.00
O56    O     0.15451   0.12637   0.15459   0.00000  Uiso   1.00
O57    O     0.12940   0.20391   0.34968   0.00000  Uiso   1.00
O58    O     0.20824   0.17759   0.14606   0.00000  Uiso   1.00
O59    O     0.17451   0.15880   0.34968   0.00000  Uiso   1.00
O60    O     0.17930   0.08019   0.28214   0.00000  Uiso   1.00
O61    O     0.14632   0.26085   0.27014   0.00000  Uiso   1.00
O62    O     0.07412   0.13291   0.23413   0.00000  Uiso   1.00
O63    O     0.26693   0.19272   0.21361   0.00000  Uiso   1.00
O64    O     0.07071   0.18878   0.28213   0.00000  Uiso   1.00
O65    O     0.25491   0.15226   0.27014   0.00000  Uiso   1.00
O66    O     0.13760   0.06944   0.23413   0.00000  Uiso   1.00
O67    O     0.20345   0.25620   0.21361   0.00000  Uiso   1.00
Zn68   Zn    0.19338   0.13994   0.28734   0.00000  Uiso   1.00
Zn69   Zn    0.13379   0.12458   0.21876   0.00000  Uiso   1.00
Zn70   Zn    0.21056   0.19775   0.20657   0.00000  Uiso   1.00
Zn71   Zn    0.12893   0.20439   0.28734   0.00000  Uiso   1.00
C72    C     0.38630   0.15955   0.26065   0.00000  Uiso   1.00
C73    C     0.51110   0.16806   0.05865   0.00000  Uiso   1.00
C74    C     0.53544   0.10147   0.06113   0.00000  Uiso   1.00
C75    C     0.61435   0.17310   0.23944   0.00000  Uiso   1.00
C76    C     0.47706   0.19526   0.41911   0.00000  Uiso   1.00
C77    C     0.66060   0.17268   0.23373   0.00000  Uiso   1.00
C78    C     0.34103   0.15778   0.26645   0.00000  Uiso   1.00
C79    C     0.51405   0.32257   0.23648   0.00000  Uiso   1.00
C80    C     0.48535   0.01180   0.26379   0.00000  Uiso   1.00
C81    C     0.48937   0.05597   0.26032   0.00000  Uiso   1.00
C82    C     0.50996   0.27794   0.24016   0.00000  Uiso   1.00
C83    C     0.48022   0.25260   0.47548   0.00000  Uiso   1.00
C84    C     0.51873   0.14800   0.12948   0.00000  Uiso   1.00
C85    C     0.48133   0.18422   0.37097   0.00000  Uiso   1.00
C86    C     0.53000   0.08893   0.01869   0.00000  Uiso   1.00
C87    C     0.52480   0.14034   0.08147   0.00000  Uiso   1.00
C88    C     0.47196   0.23684   0.43495   0.00000  Uiso   1.00
C89    C     0.64559   0.14273   0.31118   0.00000  Uiso   1.00
C90    C     0.33539   0.13205   0.34486   0.00000  Uiso   1.00
C91    C     0.63683   0.11599   0.38702   0.00000  Uiso   1.00
C92    C     0.36074   0.18776   0.19127   0.00000  Uiso   1.00
C93    C     0.34500   0.20183   0.15356   0.00000  Uiso   1.00
C94    C     0.49360   0.22725   0.00084   0.00000  Uiso   1.00
C95    C     0.38215   0.21178   0.11278   0.00000  Uiso   1.00
C96    C     0.49516   0.18406   0.48831   0.00000  Uiso   1.00
C97    C     0.48568   0.16773   0.44705   0.00000  Uiso   1.00
C98    C     0.50752   0.15687   0.01429   0.00000  Uiso   1.00
C99    C     0.51446   0.11549   0.49601   0.00000  Uiso   1.00
C100   C     0.50267   0.09967   0.45703   0.00000  Uiso   1.00
C101   C     0.48574   0.12450   0.43455   0.00000  Uiso   1.00
F102   F     0.54725   0.00753   0.20509   0.00000  Uiso   1.00
F103   F     0.49533   0.20229   0.08296   0.00000  Uiso   1.00
F104   F     0.46758   0.10527   0.40195   0.00000  Uiso   1.00
H105   H     0.54509   0.07973   0.07943   0.00000  Uiso   1.00
H106   H     0.65429   0.10881   0.41080   0.00000  Uiso   1.00
H107   H     0.35640   0.10756   0.32924   0.00000  Uiso   1.00
H108   H     0.35515   0.16034   0.35503   0.00000  Uiso   1.00
H109   H     0.62552   0.16758   0.32828   0.00000  Uiso   1.00
H110   H     0.62513   0.11377   0.30382   0.00000  Uiso   1.00
H111   H     0.40567   0.23706   0.12212   0.00000  Uiso   1.00
H112   H     0.39831   0.18358   0.09898   0.00000  Uiso   1.00
H113   H     0.37002   0.22232   0.08627   0.00000  Uiso   1.00
H114   H     0.65556   0.17658   0.14276   0.00000  Uiso   1.00
H115   H     0.66265   0.23060   0.16547   0.00000  Uiso   1.00
H116   H     0.45844   0.33120   0.28884   0.00000  Uiso   1.00
H117   H     0.38265   0.21412   0.20175   0.00000  Uiso   1.00
H118   H     0.37975   0.16167   0.17609   0.00000  Uiso   1.00
H119   H     0.50444   0.06712   0.44512   0.00000  Uiso   1.00
H120   H     0.53594   0.05764   0.00451   0.00000  Uiso   1.00
H121   H     0.46493   0.25824   0.41431   0.00000  Uiso   1.00
H122   H     0.50426   0.24304   0.02889   0.00000  Uiso   1.00
H123   H     0.47872   0.28540   0.48603   0.00000  Uiso   1.00
H124   H     0.61564   0.14000   0.40379   0.00000  Uiso   1.00
H125   H     0.61706   0.08705   0.37837   0.00000  Uiso   1.00
O126   O     0.50000   0.16667   0.25000   0.00000  Uiso   1.00
O127   O     0.48784   0.12637   0.15459   0.00000  Uiso   1.00
O128   O     0.46274   0.20391   0.34968   0.00000  Uiso   1.00
O129   O     0.54157   0.17759   0.14606   0.00000  Uiso   1.00
O130   O     0.50785   0.15880   0.34968   0.00000  Uiso   1.00
O131   O     0.51264   0.08019   0.28214   0.00000  Uiso   1.00
O132   O     0.47965   0.26085   0.27014   0.00000  Uiso   1.00
O133   O     0.40745   0.13291   0.23413   0.00000  Uiso   1.00
O134   O     0.60026   0.19272   0.21361   0.00000  Uiso   1.00
O135   O     0.40405   0.18878   0.28213   0.00000  Uiso   1.00
O136   O     0.58824   0.15226   0.27014   0.00000  Uiso   1.00
O137   O     0.47093   0.06944   0.23413   0.00000  Uiso   1.00
O138   O     0.53678   0.25620   0.21361   0.00000  Uiso   1.00
Zn139  Zn    0.52672   0.13994   0.28734   0.00000  Uiso   1.00
Zn140  Zn    0.46713   0.12458   0.21876   0.00000  Uiso   1.00
Zn141  Zn    0.54389   0.19775   0.20657   0.00000  Uiso   1.00
Zn142  Zn    0.46226   0.20439   0.28734   0.00000  Uiso   1.00
C143   C     0.71964   0.15955   0.26065   0.00000  Uiso   1.00
C144   C     0.84443   0.16806   0.05865   0.00000  Uiso   1.00
C145   C     0.86877   0.10147   0.06113   0.00000  Uiso   1.00
C146   C     0.94768   0.17310   0.23944   0.00000  Uiso   1.00
C147   C     0.81039   0.19526   0.41911   0.00000  Uiso   1.00
C148   C     0.99393   0.17268   0.23373   0.00000  Uiso   1.00
C149   C     0.67436   0.15778   0.26645   0.00000  Uiso   1.00
C150   C     0.84739   0.32257   0.23648   0.00000  Uiso   1.00
C151   C     0.81868   0.01180   0.26379   0.00000  Uiso   1.00
C152   C     0.82271   0.05597   0.26032   0.00000  Uiso   1.00
C153   C     0.84330   0.27794   0.24016   0.00000  Uiso   1.00
C154   C     0.81355   0.25260   0.47548   0.00000  Uiso   1.00
C155   C     0.85206   0.14800   0.12948   0.00000  Uiso   1.00
C156   C     0.81467   0.18422   0.37097   0.00000  Uiso   1.00
C157   C     0.86333   0.08893   0.01869   0.00000  Uiso   1.00
C158   C     0.85813   0.14034   0.08147   0.00000  Uiso   1.00
C159   C     0.80529   0.23684   0.43495   0.00000  Uiso   1.00
C160   C     0.97892   0.14273   0.31118   0.00000  Uiso   1.00
C161   C     0.66872   0.13205   0.34486   0.00000  Uiso   1.00
C162   C     0.97017   0.11599   0.38702   0.00000  Uiso   1.00
C163   C     0.69407   0.18776   0.19127   0.00000  Uiso   1.00
C164   C     0.67833   0.20183   0.15356   0.00000  Uiso   1.00
C165   C     0.82693   0.22725   0.00084   0.00000  Uiso   1.00
C166   C     0.71548   0.21178   0.11278   0.00000  Uiso   1.00
C167   C     0.82849   0.18406   0.48831   0.00000  Uiso   1.00
C168   C     0.81901   0.16773   0.44705   0.00000  Uiso   1.00
C169   C     0.84085   0.15687   0.01429   0.00000  Uiso   1.00
C170   C     0.84779   0.11549   0.49601   0.00000  Uiso   1.00
C171   C     0.83600   0.09967   0.45703   0.00000  Uiso   1.00
C172   C     0.81908   0.12450   0.43455   0.00000  Uiso   1.00
F173   F     0.88059   0.00753   0.20509   0.00000  Uiso   1.00
F174   F     0.82866   0.20229   0.08296   0.00000  Uiso   1.00
F175   F     0.80091   0.10527   0.40195   0.00000  Uiso   1.00
H176   H     0.87843   0.07973   0.07943   0.00000  Uiso   1.00
H177   H     0.98763   0.10881   0.41080   0.00000  Uiso   1.00
H178   H     0.68974   0.10756   0.32924   0.00000  Uiso   1.00
H179   H     0.68848   0.16034   0.35503   0.00000  Uiso   1.00
H180   H     0.95885   0.16758   0.32828   0.00000  Uiso   1.00
H181   H     0.95847   0.11377   0.30382   0.00000  Uiso   1.00
H182   H     0.73900   0.23706   0.12212   0.00000  Uiso   1.00
H183   H     0.73164   0.18358   0.09898   0.00000  Uiso   1.00
H184   H     0.70335   0.22232   0.08627   0.00000  Uiso   1.00
H185   H     0.98890   0.17658   0.14276   0.00000  Uiso   1.00
H186   H     0.99598   0.23060   0.16547   0.00000  Uiso   1.00
H187   H     0.79177   0.33120   0.28884   0.00000  Uiso   1.00
H188   H     0.71598   0.21412   0.20175   0.00000  Uiso   1.00
H189   H     0.71308   0.16167   0.17609   0.00000  Uiso   1.00
H190   H     0.83777   0.06712   0.44512   0.00000  Uiso   1.00
H191   H     0.86927   0.05764   0.00451   0.00000  Uiso   1.00
H192   H     0.79827   0.25824   0.41431   0.00000  Uiso   1.00
H193   H     0.83759   0.24304   0.02889   0.00000  Uiso   1.00
H194   H     0.81206   0.28540   0.48603   0.00000  Uiso   1.00
H195   H     0.94897   0.14000   0.40379   0.00000  Uiso   1.00
H196   H     0.95039   0.08705   0.37837   0.00000  Uiso   1.00
O197   O     0.83333   0.16667   0.25000   0.00000  Uiso   1.00
O198   O     0.82118   0.12637   0.15459   0.00000  Uiso   1.00
O199   O     0.79607   0.20391   0.34968   0.00000  Uiso   1.00
O200   O     0.87491   0.17759   0.14606   0.00000  Uiso   1.00
O201   O     0.84118   0.15880   0.34968   0.00000  Uiso   1.00
O202   O     0.84597   0.08019   0.28214   0.00000  Uiso   1.00
O203   O     0.81298   0.26085   0.27014   0.00000  Uiso   1.00
O204   O     0.74078   0.13291   0.23413   0.00000  Uiso   1.00
O205   O     0.93360   0.19272   0.21361   0.00000  Uiso   1.00
O206   O     0.73738   0.18878   0.28213   0.00000  Uiso   1.00
O207   O     0.92158   0.15226   0.27014   0.00000  Uiso   1.00
O208   O     0.80426   0.06944   0.23413   0.00000  Uiso   1.00
O209   O     0.87012   0.25620   0.21361   0.00000  Uiso   1.00
Zn210  Zn    0.86005   0.13994   0.28734   0.00000  Uiso   1.00
Zn211  Zn    0.80046   0.12458   0.21876   0.00000  Uiso   1.00
Zn212  Zn    0.87723   0.19775   0.20657   0.00000  Uiso   1.00
Zn213  Zn    0.79560   0.20439   0.28734   0.00000  Uiso   1.00
C214   C     0.05297   0.49288   0.26065   0.00000  Uiso   1.00
C215   C     0.17777   0.50140   0.05865   0.00000  Uiso   1.00
C216   C     0.20211   0.43481   0.06113   0.00000  Uiso   1.00
C217   C     0.28101   0.50644   0.23944   0.00000  Uiso   1.00
C218   C     0.14372   0.52859   0.41911   0.00000  Uiso   1.00
C219   C     0.32726   0.50601   0.23373   0.00000  Uiso   1.00
C220   C     0.00769   0.49111   0.26645   0.00000  Uiso   1.00
C221   C     0.18072   0.65591   0.23648   0.00000  Uiso   1.00
C222   C     0.15201   0.34514   0.26379   0.00000  Uiso   1.00
C223   C     0.15604   0.38930   0.26032   0.00000  Uiso   1.00
C224   C     0.17663   0.61127   0.24016   0.00000  Uiso   1.00
C225   C     0.14689   0.58593   0.47548   0.00000  Uiso   1.00
C226   C     0.18540   0.48133   0.12948   0.00000  Uiso   1.00
C227   C     0.14800   0.51755   0.37097   0.00000  Uiso   1.00
C228   C     0.19667   0.42226   0.01869   0.00000  Uiso   1.00
C229   C     0.19147   0.47368   0.08147   0.00000  Uiso   1.00
C230   C     0.13863   0.57017   0.43495   0.00000  Uiso   1.00
C231   C     0.31225   0.47607   0.31118   0.00000  Uiso   1.00
C232   C     0.00205   0.46538   0.34486   0.00000  Uiso   1.00
C233   C     0.30350   0.44932   0.38702   0.00000  Uiso   1.00
C234   C     0.02741   0.52109   0.19127   0.00000  Uiso   1.00
C235   C     0.01166   0.53517   0.15356   0.00000  Uiso   1.00
C236   C     0.16027   0.56058   0.00084   0.00000  Uiso   1.00
C237   C     0.04882   0.54511   0.11278   0.00000  Uiso   1.00
C238   C     0.16183   0.51740   0.48831   0.00000  Uiso   1.00
C239   C     0.15235   0.50106   0.44705   0.00000  Uiso   1.00
C240   C     0.17419   0.49021   0.01429   0.00000  Uiso   1.00
C241   C     0.18112   0.44882   0.49601   0.00000  Uiso   1.00
C242   C     0.16934   0.43301   0.45703   0.00000  Uiso   1.00
C243   C     0.15241   0.45783   0.43455   0.00000  Uiso   1.00
F244   F     0.21392   0.34087   0.20509   0.00000  Uiso   1.00
F245   F     0.16199   0.53562   0.08296   0.00000  Uiso   1.00
F246   F     0.13424   0.43860   0.40195   0.00000  Uiso   1.00
H247   H     0.21176   0.41306   0.07943   0.00000  Uiso   1.00
H248   H     0.32096   0.44214   0.41080   0.00000  Uiso   1.00
H249   H     0.02307   0.44090   0.32924   0.00000  Uiso   1.00
H250   H     0.02182   0.49368   0.35503   0.00000  Uiso   1.00
H251   H     0.29218   0.50091   0.32828   0.00000  Uiso   1.00
H252   H     0.29180   0.44710   0.30382   0.00000  Uiso   1.00
H253   H     0.07234   0.57039   0.12212   0.00000  Uiso   1.00
H254   H     0.06497   0.51692   0.09898   0.00000  Uiso   1.00
H255   H     0.03668   0.55565   0.08627   0.00000  Uiso   1.00
H256   H     0.32223   0.50991   0.14276   0.00000  Uiso   1.00
H257   H     0.32932   0.56393   0.16547   0.00000  Uiso   1.00
H258   H     0.12510   0.66453   0.28884   0.00000  Uiso   1.00
H259   H     0.04932   0.54745   0.20175   0.00000  Uiso   1.00
H260   H     0.04642   0.49500   0.17609   0.00000  Uiso   1.00
H261   H     0.17111   0.40046   0.44512   0.00000  Uiso   1.00
H262   H     0.20261   0.39098   0.00451   0.00000  Uiso   1.00
H263   H     0.13160   0.59157   0.41431   0.00000  Uiso   1.00
H264   H     0.17093   0.57638   0.02889   0.00000  Uiso   1.00
H265   H     0.14539   0.61874   0.48603   0.00000  Uiso   1.00
H266   H     0.28231   0.47333   0.40379   0.00000  Uiso   1.00
H267   H     0.28373   0.42038   0.37837   0.00000  Uiso   1.00
O268   O     0.16667   0.50000   0.25000   0.00000  Uiso   1.00
O269   O     0.15451   0.45970   0.15459   0.00000  Uiso   1.00
O270   O     0.12940   0.53724   0.34968   0.00000  Uiso   1.00
O271   O     0.20824   0.51092   0.14606   0.00000  Uiso   1.00
O272   O     0.17451   0.49213   0.34968   0.00000  Uiso   1.00
O273   O     0.17930   0.41352   0.28214   0.00000  Uiso   1.00
O274   O     0.14632   0.59418   0.27014   0.00000  Uiso   1.00
O275   O     0.07412   0.46625   0.23413   0.00000  Uiso   1.00
O276   O     0.26693   0.52605   0.21361   0.00000  Uiso   1.00
O277   O     0.07071   0.52211   0.28213   0.00000  Uiso   1.00
O278   O     0.25491   0.48559   0.27014   0.00000  Uiso   1.00
O279   O     0.13760   0.40277   0.23413   0.00000  Uiso   1.00
O280   O     0.20345   0.58953   0.21361   0.00000  Uiso   1.00
Zn281  Zn    0.19338   0.47327   0.28734   0.00000  Uiso   1.00
Zn282  Zn    0.13379   0.45791   0.21876   0.00000  Uiso   1.00
Zn283  Zn    0.21056   0.53109   0.20657   0.00000  Uiso   1.00
Zn284  Zn    0.12893   0.53773   0.28734   0.00000  Uiso   1.00
C285   C     0.38630   0.49288   0.26065   0.00000  Uiso   1.00
C286   C     0.51110   0.50140   0.05865   0.00000  Uiso   1.00
C287   C     0.53544   0.43481   0.06113   0.00000  Uiso   1.00
C288   C     0.61435   0.50644   0.23944   0.00000  Uiso   1.00
C289   C     0.47706   0.52859   0.41911   0.00000  Uiso   1.00
C290   C     0.66060   0.50601   0.23373   0.00000  Uiso   1.00
C291   C     0.34103   0.49111   0.26645   0.00000  Uiso   1.00
C292   C     0.51405   0.65591   0.23648   0.00000  Uiso   1.00
C293   C     0.48535   0.34514   0.26379   0.00000  Uiso   1.00
C294   C     0.48937   0.38930   0.26032   0.00000  Uiso   1.00
C295   C     0.50996   0.61127   0.24016   0.00000  Uiso   1.00
C296   C     0.48022   0.58593   0.47548   0.00000  Uiso   1.00
C297   C     0.51873   0.48133   0.12948   0.00000  Uiso   1.00
C298   C     0.48133   0.51755   0.37097   0.00000  Uiso   1.00
C299   C     0.53000   0.42226   0.01869   0.00000  Uiso   1.00
C300   C     0.52480   0.47368   0.08147   0.00000  Uiso   1.00
C301   C     0.47196   0.57017   0.43495   0.00000  Uiso   1.00
C302   C     0.64559   0.47607   0.31118   0.00000  Uiso   1.00
C303   C     0.33539   0.46538   0.34486   0.00000  Uiso   1.00
C304   C     0.63683   0.44932   0.38702   0.00000  Uiso   1.00
C305   C     0.36074   0.52109   0.19127   0.00000  Uiso   1.00
C306   C     0.34500   0.53517   0.15356   0.00000  Uiso   1.00
C307   C     0.49360   0.56058   0.00084   0.00000  Uiso   1.00
C308   C     0.38215   0.54511   0.11278   0.00000  Uiso   1.00
C309   C     0.49516   0.51740   0.48831   0.00000  Uiso   1.00
C310   C     0.48568   0.50106   0.44705   0.00000  Uiso   1.00
C311   C     0.50752   0.49021   0.01429   0.00000  Uiso   1.00
C312   C     0.51446   0.44882   0.49601   0.00000  Uiso   1.00
C313   C     0.50267   0.43301   0.45703   0.00000  Uiso   1.00
C314   C     0.48574   0.45783   0.43455   0.00000  Uiso   1.00
F315   F     0.54725   0.34087   0.20509   0.00000  Uiso   1.00
F316   F     0.49533   0.53562   0.08296   0.00000  Uiso   1.00
F317   F     0.46758   0.43860   0.40195   0.00000  Uiso   1.00
H318   H     0.54509   0.41306   0.07943   0.00000  Uiso   1.00
H319   H     0.65429   0.44214   0.41080   0.00000  Uiso   1.00
H320   H     0.35640   0.44090   0.32924   0.00000  Uiso   1.00
H321   H     0.35515   0.49368   0.35503   0.00000  Uiso   1.00
H322   H     0.62552   0.50091   0.32828   0.00000  Uiso   1.00
H323   H     0.62513   0.44710   0.30382   0.00000  Uiso   1.00
H324   H     0.40567   0.57039   0.12212   0.00000  Uiso   1.00
H325   H     0.39831   0.51692   0.09898   0.00000  Uiso   1.00
H326   H     0.37002   0.55565   0.08627   0.00000  Uiso   1.00
H327   H     0.65556   0.50991   0.14276   0.00000  Uiso   1.00
H328   H     0.66265   0.56393   0.16547   0.00000  Uiso   1.00
H329   H     0.45844   0.66453   0.28884   0.00000  Uiso   1.00
H330   H     0.38265   0.54745   0.20175   0.00000  Uiso   1.00
H331   H     0.37975   0.49500   0.17609   0.00000  Uiso   1.00
H332   H     0.50444   0.40046   0.44512   0.00000  Uiso   1.00
H333   H     0.53594   0.39098   0.00451   0.00000  Uiso   1.00
H334   H     0.46493   0.59157   0.41431   0.00000  Uiso   1.00
H335   H     0.50426   0.57638   0.02889   0.00000  Uiso   1.00
H336   H     0.47872   0.61874   0.48603   0.00000  Uiso   1.00
H337   H     0.61564   0.47333   0.40379   0.00000  Uiso   1.00
H338   H     0.61706   0.42038   0.37837   0.00000  Uiso   1.00
O339   O     0.50000   0.50000   0.25000   0.00000  Uiso   1.00
O340   O     0.48784   0.45970   0.15459   0.00000  Uiso   1.00
O341   O     0.46274   0.53724   0.34968   0.00000  Uiso   1.00
O342   O     0.54157   0.51092   0.14606   0.00000  Uiso   1.00
O343   O     0.50785   0.49213   0.34968   0.00000  Uiso   1.00
O344   O     0.51264   0.41352   0.28214   0.00000  Uiso   1.00
O345   O     0.47965   0.59418   0.27014   0.00000  Uiso   1.00
O346   O     0.40745   0.46625   0.23413   0.00000  Uiso   1.00
O347   O     0.60026   0.52605   0.21361   0.00000  Uiso   1.00
O348   O     0.40405   0.52211   0.28213   0.00000  Uiso   1.00
O349   O     0.58824   0.48559   0.27014   0.00000  Uiso   1.00
O350   O     0.47093   0.40277   0.23413   0.00000  Uiso   1.00
O351   O     0.53678   0.58953   0.21361   0.00000  Uiso   1.00
Zn352  Zn    0.52672   0.47327   0.28734   0.00000  Uiso   1.00
Zn353  Zn    0.46713   0.45791   0.21876   0.00000  Uiso   1.00
Zn354  Zn    0.54389   0.53109   0.20657   0.00000  Uiso   1.00
Zn355  Zn    0.46226   0.53773   0.28734   0.00000  Uiso   1.00
C356   C     0.71964   0.49288   0.26065   0.00000  Uiso   1.00
C357   C     0.84443   0.50140   0.05865   0.00000  Uiso   1.00
C358   C     0.86877   0.43481   0.06113   0.00000  Uiso   1.00
C359   C     0.94768   0.50644   0.23944   0.00000  Uiso   1.00
C360   C     0.81039   0.52859   0.41911   0.00000  Uiso   1.00
C361   C     0.99393   0.50601   0.23373   0.00000  Uiso   1.00
C362   C     0.67436   0.49111   0.26645   0.00000  Uiso   1.00
C363   C     0.84739   0.65591   0.23648   0.00000  Uiso   1.00
C364   C     0.81868   0.34514   0.26379   0.00000  Uiso   1.00
C365   C     0.82271   0.38930   0.26032   0.00000  Uiso   1.00
C366   C     0.84330   0.61127   0.24016   0.00000  Uiso   1.00
C367   C     0.81355   0.58593   0.47548   0.00000  Uiso   1.00
C368   C     0.85206   0.48133   0.12948   0.00000  Uiso   1.00
C369   C     0.81467   0.51755   0.37097   0.00000  Uiso   1.00
C370   C     0.86333   0.42226   0.01869   0.00000  Uiso   1.00
C371   C     0.85813   0.47368   0.08147   0.00000  Uiso   1.00
C372   C     0.80529   0.57017   0.43495   0.00000  Uiso   1.00
C373   C     0.97892   0.47607   0.31118   0.00000  Uiso   1.00
C374   C     0.66872   0.46538   0.34486   0.00000  Uiso   1.00
C375   C     0.97017   0.44932   0.38702   0.00000  Uiso   1.00
C376   C     0.69407   0.52109   0.19127   0.00000  Uiso   1.00
C377   C     0.67833   0.53517   0.15356   0.00000  Uiso   1.00
C378   C     0.82693   0.56058   0.00084   0.00000  Uiso   1.00
C379   C     0.71548   0.54511   0.11278   0.00000  Uiso   1.00
C380   C     0.82849   0.51740   0.48831   0.00000  Uiso   1.00
C381   C     0.81901   0.50106   0.44705   0.00000  Uiso   1.00
C382   C     0.84085   0.49021   0.01429   0.00000  Uiso   1.00
C383   C     0.84779   0.44882   0.49601   0.00000  Uiso   1.00
C384   C     0.83600   0.43301   0.45703   0.00000  Uiso   1.00
C385   C     0.81908   0.45783   0.43455   0.00000  Uiso   1.00
F386   F     0.88059   0.34087   0.20509   0.00000  Uiso   1.00
F387   F     0.82866   0.53562   0.08296   0.00000  Uiso   1.00
F388   F     0.80091   0.43860   0.40195   0.00000  Uiso   1.00
H389   H     0.87843   0.41306   0.07943   0.00000  Uiso   1.00
H390   H     0.98763   0.44214   0.41080   0.00000  Uiso   1.00
H391   H     0.68974   0.44090   0.32924   0.00000  Uiso   1.00
H392   H     0.68848   0.49368   0.35503   0.00000  Uiso   1.00
H393   H     0.95885   0.50091   0.32828   0.00000  Uiso   1.00
H394   H     0.95847   0.44710   0.30382   0.00000  Uiso   1.00
H395   H     0.73900   0.57039   0.12212   0.00000  Uiso   1.00
H396   H     0.73164   0.51692   0.09898   0.00000  Uiso   1.00
H397   H     0.70335   0.55565   0.08627   0.00000  Uiso   1.00
H398   H     0.98890   0.50991   0.14276   0.00000  Uiso   1.00
H399   H     0.99598   0.56393   0.16547   0.00000  Uiso   1.00
H400   H     0.79177   0.66453   0.28884   0.00000  Uiso   1.00
H401   H     0.71598   0.54745   0.20175   0.00000  Uiso   1.00
H402   H     0.71308   0.49500   0.17609   0.00000  Uiso   1.00
H403   H     0.83777   0.40046   0.44512   0.00000  Uiso   1.00
H404   H     0.86927   0.39098   0.00451   0.00000  Uiso   1.00
H405   H     0.79827   0.59157   0.41431   0.00000  Uiso   1.00
H406   H     0.83759   0.57638   0.02889   0.00000  Uiso   1.00
H407   H     0.81206   0.61874   0.48603   0.00000  Uiso   1.00
H408   H     0.94897   0.47333   0.40379   0.00000  Uiso   1.00
H409   H     0.95039   0.42038   0.37837   0.00000  Uiso   1.00
O410   O     0.83333   0.50000   0.25000   0.00000  Uiso   1.00
O411   O     0.82118   0.45970   0.15459   0.00000  Uiso   1.00
O412   O     0.79607   0.53724   0.34968   0.00000  Uiso   1.00
O413   O     0.87491   0.51092   0.14606   0.00000  Uiso   1.00
O414   O     0.84118   0.49213   0.34968   0.00000  Uiso   1.00
O415   O     0.84597   0.41352   0.28214   0.00000  Uiso   1.00
O416   O     0.81298   0.59418   0.27014   0.00000  Uiso   1.00
O417   O     0.74078   0.46625   0.23413   0.00000  Uiso   1.00
O418   O     0.93360   0.52605   0.21361   0.00000  Uiso   1.00
O419   O     0.73738   0.52211   0.28213   0.00000  Uiso   1.00
O420   O     0.92158   0.48559   0.27014   0.00000  Uiso   1.00
O421   O     0.80426   0.40277   0.23413   0.00000  Uiso   1.00
O422   O     0.87012   0.58953   0.21361   0.00000  Uiso   1.00
Zn423  Zn    0.86005   0.47327   0.28734   0.00000  Uiso   1.00
Zn424  Zn    0.80046   0.45791   0.21876   0.00000  Uiso   1.00
Zn425  Zn    0.87723   0.53109   0.20657   0.00000  Uiso   1.00
Zn426  Zn    0.79560   0.53773   0.28734   0.00000  Uiso   1.00
C427   C     0.05297   0.82622   0.26065   0.00000  Uiso   1.00
C428   C     0.17777   0.83473   0.05865   0.00000  Uiso   1.00
C429   C     0.20211   0.76814   0.06113   0.00000  Uiso   1.00
C430   C     0.28101   0.83977   0.23944   0.00000  Uiso   1.00
C431   C     0.14372   0.86193   0.41911   0.00000  Uiso   1.00
C432   C     0.32726   0.83935   0.23373   0.00000  Uiso   1.00
C433   C     0.00769   0.82445   0.26645   0.00000  Uiso   1.00
C434   C     0.18072   0.98924   0.23648   0.00000  Uiso   1.00
C435   C     0.15201   0.67847   0.26379   0.00000  Uiso   1.00
C436   C     0.15604   0.72264   0.26032   0.00000  Uiso   1.00
C437   C     0.17663   0.94460   0.24016   0.00000  Uiso   1.00
C438   C     0.14689   0.91926   0.47548   0.00000  Uiso   1.00
C439   C     0.18540   0.81467   0.12948   0.00000  Uiso   1.00
C440   C     0.14800   0.85089   0.37097   0.00000  Uiso   1.00
C441   C     0.19667   0.75560   0.01869   0.00000  Uiso   1.00
C442   C     0.19147   0.80701   0.08147   0.00000  Uiso   1.00
C443   C     0.13863   0.90350   0.43495   0.00000  Uiso   1.00
C444   C     0.31225   0.80940   0.31118   0.00000  Uiso   1.00
C445   C     0.00205   0.79871   0.34486   0.00000  Uiso   1.00
C446   C     0.30350   0.78266   0.38702   0.00000  Uiso   1.00
C447   C     0.02741   0.85443   0.19127   0.00000  Uiso   1.00
C448   C     0.01166   0.86850   0.15356   0.00000  Uiso   1.00
C449   C     0.16027   0.89392   0.00084   0.00000  Uiso   1.00
C450   C     0.04882   0.87845   0.11278   0.00000  Uiso   1.00
C451   C     0.16183   0.85073   0.48831   0.00000  Uiso   1.00
C452   C     0.15235   0.83439   0.44705   0.00000  Uiso   1.00
C453   C     0.17419   0.82354   0.01429   0.00000  Uiso   1.00
C454   C     0.18112   0.78216   0.49601   0.00000  Uiso   1.00
C455   C     0.16934   0.76634   0.45703   0.00000  Uiso   1.00
C456   C     0.15241   0.79116   0.43455   0.00000  Uiso   1.00
F457   F     0.21392   0.67420   0.20509   0.00000  Uiso   1.00
F458   F     0.16199   0.86896   0.08296   0.00000  Uiso   1.00
F459   F     0.13424   0.77193   0.40195   0.00000  Uiso   1.00
H460   H     0.21176   0.74639   0.07943   0.00000  Uiso   1.00
H461   H     0.32096   0.77548   0.41080   0.00000  Uiso   1.00
H462   H     0.02307   0.77423   0.32924   0.00000  Uiso   1.00
H463   H     0.02182   0.82701   0.35503   0.00000  Uiso   1.00
H464   H     0.29218   0.83424   0.32828   0.00000  Uiso   1.00
H465   H     0.29180   0.78044   0.30382   0.00000  Uiso   1.00
H466   H     0.07234   0.90372   0.12212   0.00000  Uiso   1.00
H467   H     0.06497   0.85025   0.09898   0.00000  Uiso   1.00
H468   H     0.03668   0.88898   0.08627   0.00000  Uiso   1.00
H469   H     0.32223   0.84325   0.14276   0.00000  Uiso   1.00
H470   H     0.32932   0.89727   0.16547   0.00000  Uiso   1.00
H471   H     0.12510   0.99787   0.28884   0.00000  Uiso   1.00
H472   H     0.04932   0.88078   0.20175   0.00000  Uiso   1.00
H473   H     0.04642   0.82834   0.17609   0.00000  Uiso   1.00
H474   H     0.17111   0.73379   0.44512   0.00000  Uiso   1.00
H475   H     0.20261   0.72431   0.00451   0.00000  Uiso   1.00
H476   H     0.13160   0.92491   0.41431   0.00000  Uiso   1.00
H477   H     0.17093   0.90971   0.02889   0.00000  Uiso   1.00
H478   H     0.14539   0.95207   0.48603   0.00000  Uiso   1.00
H479   H     0.28231   0.80666   0.40379   0.00000  Uiso   1.00
H480   H     0.28373   0.75372   0.37837   0.00000  Uiso   1.00
O481   O     0.16667   0.83333   0.25000   0.00000  Uiso   1.00
O482   O     0.15451   0.79304   0.15459   0.00000  Uiso   1.00
O483   O     0.12940   0.87058   0.34968   0.00000  Uiso   1.00
O484   O     0.20824   0.84425   0.14606   0.00000  Uiso   1.00
O485   O     0.17451   0.82546   0.34968   0.00000  Uiso   1.00
O486   O     0.17930   0.74686   0.28214   0.00000  Uiso   1.00
O487   O     0.14632   0.92751   0.27014   0.00000  Uiso   1.00
O488   O     0.07412   0.79958   0.23413   0.00000  Uiso   1.00
O489   O     0.26693   0.85939   0.21361   0.00000  Uiso   1.00
O490   O     0.07071   0.85544   0.28213   0.00000  Uiso   1.00
O491   O     0.25491   0.81892   0.27014   0.00000  Uiso   1.00
O492   O     0.13760   0.73610   0.23413   0.00000  Uiso   1.00
O493   O     0.20345   0.92286   0.21361   0.00000  Uiso   1.00
Zn494  Zn    0.19338   0.80661   0.28734   0.00000  Uiso   1.00
Zn495  Zn    0.13379   0.79124   0.21876   0.00000  Uiso   1.00
Zn496  Zn    0.21056   0.86442   0.20657   0.00000  Uiso   1.00
Zn497  Zn    0.12893   0.87106   0.28734   0.00000  Uiso   1.00
C498   C     0.38630   0.82622   0.26065   0.00000  Uiso   1.00
C499   C     0.51110   0.83473   0.05865   0.00000  Uiso   1.00
C500   C     0.53544   0.76814   0.06113   0.00000  Uiso   1.00
C501   C     0.61435   0.83977   0.23944   0.00000  Uiso   1.00
C502   C     0.47706   0.86193   0.41911   0.00000  Uiso   1.00
C503   C     0.66060   0.83935   0.23373   0.00000  Uiso   1.00
C504   C     0.34103   0.82445   0.26645   0.00000  Uiso   1.00
C505   C     0.51405   0.98924   0.23648   0.00000  Uiso   1.00
C506   C     0.48535   0.67847   0.26379   0.00000  Uiso   1.00
C507   C     0.48937   0.72264   0.26032   0.00000  Uiso   1.00
C508   C     0.50996   0.94460   0.24016   0.00000  Uiso   1.00
C509   C     0.48022   0.91926   0.47548   0.00000  Uiso   1.00
C510   C     0.51873   0.81467   0.12948   0.00000  Uiso   1.00
C511   C     0.48133   0.85089   0.37097   0.00000  Uiso   1.00
C512   C     0.53000   0.75560   0.01869   0.00000  Uiso   1.00
C513   C     0.52480   0.80701   0.08147   0.00000  Uiso   1.00
C514   C     0.47196   0.90350   0.43495   0.00000  Uiso   1.00
C515   C     0.64559   0.80940   0.31118   0.00000  Uiso   1.00
C516   C     0.33539   0.79871   0.34486   0.00000  Uiso   1.00
C517   C     0.63683   0.78266   0.38702   0.00000  Uiso   1.00
C518   C     0.36074   0.85443   0.19127   0.00000  Uiso   1.00
C519   C     0.34500   0.86850   0.15356   0.00000  Uiso   1.00
C520   C     0.49360   0.89392   0.00084   0.00000  Uiso   1.00
C521   C     0.38215   0.87845   0.11278   0.00000  Uiso   1.00
C522   C     0.49516   0.85073   0.48831   0.00000  Uiso   1.00
C523   C     0.48568   0.83439   0.44705   0.00000  Uiso   1.00
C524   C     0.50752   0.82354   0.01429   0.00000  Uiso   1.00
C525   C     0.51446   0.78216   0.49601   0.00000  Uiso   1.00
C526   C     0.50267   0.76634   0.45703   0.00000  Uiso   1.00
C527   C     0.48574   0.79116   0.43455   0.00000  Uiso   1.00
F528   F     0.54725   0.67420   0.20509   0.00000  Uiso   1.00
F529   F     0.49533   0.86896   0.08296   0.00000  Uiso   1.00
F530   F     0.46758   0.77193   0.40195   0.00000  Uiso   1.00
H531   H     0.54509   0.74639   0.07943   0.00000  Uiso   1.00
H532   H     0.65429   0.77548   0.41080   0.00000  Uiso   1.00
H533   H     0.35640   0.77423   0.32924   0.00000  Uiso   1.00
H534   H     0.35515   0.82701   0.35503   0.00000  Uiso   1.00
H535   H     0.62552   0.83424   0.32828   0.00000  Uiso   1.00
H536   H     0.62513   0.78044   0.30382   0.00000  Uiso   1.00
H537   H     0.40567   0.90372   0.12212   0.00000  Uiso   1.00
H538   H     0.39831   0.85025   0.09898   0.00000  Uiso   1.00
H539   H     0.37002   0.88898   0.08627   0.00000  Uiso   1.00
H540   H     0.65556   0.84325   0.14276   0.00000  Uiso   1.00
H541   H     0.66265   0.89727   0.16547   0.00000  Uiso   1.00
H542   H     0.45844   0.99787   0.28884   0.00000  Uiso   1.00
H543   H     0.38265   0.88078   0.20175   0.00000  Uiso   1.00
H544   H     0.37975   0.82834   0.17609   0.00000  Uiso   1.00
H545   H     0.50444   0.73379   0.44512   0.00000  Uiso   1.00
H546   H     0.53594   0.72431   0.00451   0.00000  Uiso   1.00
H547   H     0.46493   0.92491   0.41431   0.00000  Uiso   1.00
H548   H     0.50426   0.90971   0.02889   0.00000  Uiso   1.00
H549   H     0.47872   0.95207   0.48603   0.00000  Uiso   1.00
H550   H     0.61564   0.80666   0.40379   0.00000  Uiso   1.00
H551   H     0.61706   0.75372   0.37837   0.00000  Uiso   1.00
O552   O     0.50000   0.83333   0.25000   0.00000  Uiso   1.00
O553   O     0.48784   0.79304   0.15459   0.00000  Uiso   1.00
O554   O     0.46274   0.87058   0.34968   0.00000  Uiso   1.00
O555   O     0.54157   0.84425   0.14606   0.00000  Uiso   1.00
O556   O     0.50785   0.82546   0.34968   0.00000  Uiso   1.00
O557   O     0.51264   0.74686   0.28214   0.00000  Uiso   1.00
O558   O     0.47965   0.92751   0.27014   0.00000  Uiso   1.00
O559   O     0.40745   0.79958   0.23413   0.00000  Uiso   1.00
O560   O     0.60026   0.85939   0.21361   0.00000  Uiso   1.00
O561   O     0.40405   0.85544   0.28213   0.00000  Uiso   1.00
O562   O     0.58824   0.81892   0.27014   0.00000  Uiso   1.00
O563   O     0.47093   0.73610   0.23413   0.00000  Uiso   1.00
O564   O     0.53678   0.92286   0.21361   0.00000  Uiso   1.00
Zn565  Zn    0.52672   0.80661   0.28734   0.00000  Uiso   1.00
Zn566  Zn    0.46713   0.79124   0.21876   0.00000  Uiso   1.00
Zn567  Zn    0.54389   0.86442   0.20657   0.00000  Uiso   1.00
Zn568  Zn    0.46226   0.87106   0.28734   0.00000  Uiso   1.00
C569   C     0.71964   0.82622   0.26065   0.00000  Uiso   1.00
C570   C     0.84443   0.83473   0.05865   0.00000  Uiso   1.00
C571   C     0.86877   0.76814   0.06113   0.00000  Uiso   1.00
C572   C     0.94768   0.83977   0.23944   0.00000  Uiso   1.00
C573   C     0.81039   0.86193   0.41911   0.00000  Uiso   1.00
C574   C     0.99393   0.83935   0.23373   0.00000  Uiso   1.00
C575   C     0.67436   0.82445   0.26645   0.00000  Uiso   1.00
C576   C     0.84739   0.98924   0.23648   0.00000  Uiso   1.00
C577   C     0.81868   0.67847   0.26379   0.00000  Uiso   1.00
C578   C     0.82271   0.72264   0.26032   0.00000  Uiso   1.00
C579   C     0.84330   0.94460   0.24016   0.00000  Uiso   1.00
C580   C     0.81355   0.91926   0.47548   0.00000  Uiso   1.00
C581   C     0.85206   0.81467   0.12948   0.00000  Uiso   1.00
C582   C     0.81467   0.85089   0.37097   0.00000  Uiso   1.00
C583   C     0.86333   0.75560   0.01869   0.00000  Uiso   1.00
C584   C     0.85813   0.80701   0.08147   0.00000  Uiso   1.00
C585   C     0.80529   0.90350   0.43495   0.00000  Uiso   1.00
C586   C     0.97892   0.80940   0.31118   0.00000  Uiso   1.00
C587   C     0.66872   0.79871   0.34486   0.00000  Uiso   1.00
C588   C     0.97017   0.78266   0.38702   0.00000  Uiso   1.00
C589   C     0.69407   0.85443   0.19127   0.00000  Uiso   1.00
C590   C     0.67833   0.86850   0.15356   0.00000  Uiso   1.00
C591   C     0.82693   0.89392   0.00084   0.00000  Uiso   1.00
C592   C     0.71548   0.87845   0.11278   0.00000  Uiso   1.00
C593   C     0.82849   0.85073   0.48831   0.00000  Uiso   1.00
C594   C     0.81901   0.83439   0.44705   0.00000  Uiso   1.00
C595   C     0.84085   0.82354   0.01429   0.00000  Uiso   1.00
C596   C     0.84779   0.78216   0.49601   0.00000  Uiso   1.00
C597   C     0.83600   0.76634   0.45703   0.00000  Uiso   1.00
C598   C     0.81908   0.79116   0.43455   0.00000  Uiso   1.00
F599   F     0.88059   0.67420   0.20509   0.00000  Uiso   1.00
F600   F     0.82866   0.86896   0.08296   0.00000  Uiso   1.00
F601   F     0.80091   0.77193   0.40195   0.00000  Uiso   1.00
H602   H     0.87843   0.74639   0.07943   0.00000  Uiso   1.00
H603   H     0.98763   0.77548   0.41080   0.00000  Uiso   1.00
H604   H     0.68974   0.77423   0.32924   0.00000  Uiso   1.00
H605   H     0.68848   0.82701   0.35503   0.00000  Uiso   1.00
H606   H     0.95885   0.83424   0.32828   0.00000  Uiso   1.00
H607   H     0.95847   0.78044   0.30382   0.00000  Uiso   1.00
H608   H     0.73900   0.90372   0.12212   0.00000  Uiso   1.00
H609   H     0.73164   0.85025   0.09898   0.00000  Uiso   1.00
H610   H     0.70335   0.88898   0.08627   0.00000  Uiso   1.00
H611   H     0.98890   0.84325   0.14276   0.00000  Uiso   1.00
H612   H     0.99598   0.89727   0.16547   0.00000  Uiso   1.00
H613   H     0.79177   0.99787   0.28884   0.00000  Uiso   1.00
H614   H     0.71598   0.88078   0.20175   0.00000  Uiso   1.00
H615   H     0.71308   0.82834   0.17609   0.00000  Uiso   1.00
H616   H     0.83777   0.73379   0.44512   0.00000  Uiso   1.00
H617   H     0.86927   0.72431   0.00451   0.00000  Uiso   1.00
H618   H     0.79827   0.92491   0.41431   0.00000  Uiso   1.00
H619   H     0.83759   0.90971   0.02889   0.00000  Uiso   1.00
H620   H     0.81206   0.95207   0.48603   0.00000  Uiso   1.00
H621   H     0.94897   0.80666   0.40379   0.00000  Uiso   1.00
H622   H     0.95039   0.75372   0.37837   0.00000  Uiso   1.00
O623   O     0.83333   0.83333   0.25000   0.00000  Uiso   1.00
O624   O     0.82118   0.79304   0.15459   0.00000  Uiso   1.00
O625   O     0.79607   0.87058   0.34968   0.00000  Uiso   1.00
O626   O     0.87491   0.84425   0.14606   0.00000  Uiso   1.00
O627   O     0.84118   0.82546   0.34968   0.00000  Uiso   1.00
O628   O     0.84597   0.74686   0.28214   0.00000  Uiso   1.00
O629   O     0.81298   0.92751   0.27014   0.00000  Uiso   1.00
O630   O     0.74078   0.79958   0.23413   0.00000  Uiso   1.00
O631   O     0.93360   0.85939   0.21361   0.00000  Uiso   1.00
O632   O     0.73738   0.85544   0.28213   0.00000  Uiso   1.00
O633   O     0.92158   0.81892   0.27014   0.00000  Uiso   1.00
O634   O     0.80426   0.73610   0.23413   0.00000  Uiso   1.00
O635   O     0.87012   0.92286   0.21361   0.00000  Uiso   1.00
Zn636  Zn    0.86005   0.80661   0.28734   0.00000  Uiso   1.00
Zn637  Zn    0.80046   0.79124   0.21876   0.00000  Uiso   1.00
Zn638  Zn    0.87723   0.86442   0.20657   0.00000  Uiso   1.00
Zn639  Zn    0.79560   0.87106   0.28734   0.00000  Uiso   1.00
C640   C     0.05297   0.15955   0.76065   0.00000  Uiso   1.00
C641   C     0.17777   0.16806   0.55865   0.00000  Uiso   1.00
C642   C     0.20211   0.10147   0.56113   0.00000  Uiso   1.00
C643   C     0.28101   0.17310   0.73944   0.00000  Uiso   1.00
C644   C     0.14372   0.19526   0.91911   0.00000  Uiso   1.00
C645   C     0.32726   0.17268   0.73373   0.00000  Uiso   1.00
C646   C     0.00769   0.15778   0.76645   0.00000  Uiso   1.00
C647   C     0.18072   0.32257   0.73648   0.00000  Uiso   1.00
C648   C     0.15201   0.01180   0.76379   0.00000  Uiso   1.00
C649   C     0.15604   0.05597   0.76032   0.00000  Uiso   1.00
C650   C     0.17663   0.27794   0.74016   0.00000  Uiso   1.00
C651   C     0.14689   0.25260   0.97548   0.00000  Uiso   1.00
C652   C     0.18540   0.14800   0.62948   0.00000  Uiso   1.00
C653   C     0.14800   0.18422   0.87097   0.00000  Uiso   1.00
C654   C     0.19667   0.08893   0.51869   0.00000  Uiso   1.00
C655   C     0.19147   0.14034   0.58147   0.00000  Uiso   1.00
C656   C     0.13863   0.23684   0.93495   0.00000  Uiso   1.00
C657   C     0.31225   0.14273   0.81118   0.00000  Uiso   1.00
C658   C     0.00205   0.13205   0.84486   0.00000  Uiso   1.00
C659   C     0.30350   0.11599   0.88702   0.00000  Uiso   1.00
C660   C     0.02741   0.18776   0.69127   0.00000  Uiso   1.00
C661   C     0.01166   0.20183   0.65356   0.00000  Uiso   1.00
C662   C     0.16027   0.22725   0.50084   0.00000  Uiso   1.00
C663   C     0.04882   0.21178   0.61278   0.00000  Uiso   1.00
C664   C     0.16183   0.18406   0.98831   0.00000  Uiso   1.00
C665   C     0.15235   0.16773   0.94705   0.00000  Uiso   1.00
C666   C     0.17419   0.15687   0.51429   0.00000  Uiso   1.00
C667   C     0.18112   0.11549   0.99601   0.00000  Uiso   1.00
C668   C     0.16934   0.09967   0.95703   0.00000  Uiso   1.00
C669   C     0.15241   0.12450   0.93455   0.00000  Uiso   1.00
F670   F     0.21392   0.00753   0.70509   0.00000  Uiso   1.00
F671   F     0.16199   0.20229   0.58296   0.00000  Uiso   1.00
F672   F     0.13424   0.10527   0.90195   0.00000  Uiso   1.00
H673   H     0.21176   0.07973   0.57943   0.00000  Uiso   1.00
H674   H     0.32096   0.10881   0.91080   0.00000  Uiso   1.00
H675   H     0.02307   0.10756   0.82924   0.00000  Uiso   1.00
H676   H     0.02182   0.16034   0.85503   0.00000  Uiso   1.00
H677   H     0.29218   0.16758   0.82828   0.00000  Uiso   1.00
H678   H     0.29180   0.11377   0.80382   0.00000  Uiso   1.00
H679   H     0.07234   0.23706   0.62212   0.00000  Uiso   1.00
H680   H     0.06497   0.18358   0.59898   0.00000  Uiso   1.00
H681   H     0.03668   0.22232   0.58627   0.00000  Uiso   1.00
H682   H     0.32223   0.17658   0.64276   0.00000  Uiso   1.00
H683   H     0.32932   0.23060   0.66547   0.00000  Uiso   1.00
H684   H     0.12510   0.33120   0.78884   0.00000  Uiso   1.00
H685   H     0.04932   0.21412   0.70175   0.00000  Uiso   1.00
H686   H     0.04642   0.16167   0.67609   0.00000  Uiso   1.00
H687   H     0.17111   0.06712   0.94512   0.00000  Uiso   1.00
H688   H     0.20261   0.05764   0.50451   0.00000  Uiso   1.00
H689   H     0.13160   0.25824   0.91431   0.00000  Uiso   1.00
H690   H     0.17093   0.24304   0.52889   0.00000  Uiso   1.00
H691   H     0.14539   0.28540   0.98603   0.00000  Uiso   1.00
H692   H     0.28231   0.14000   0.90379   0.00000  Uiso   1.00
H693   H     0.28373   0.08705   0.87837   0.00000  Uiso   1.00
O694   O     0.16667   0.16667   0.75000   0.00000  Uiso   1.00
O695   O     0.15451   0.12637   0.65459   0.00000  Uiso   1.00
O696   O     0.12940   0.20391   0.84968   0.00000  Uiso   1.00
O697   O     0.20824   0.17759   0.64606   0.00000  Uiso   1.00
O698   O     0.17451   0.15880   0.84968   0.00000  Uiso   1.00
O699   O     0.17930   0.08019   0.78214   0.00000  Uiso   1.00
O700   O     0.14632   0.26085   0.77014   0.00000  Uiso   1.00
O701   O     0.07412   0.13291   0.73413   0.00000  Uiso   1.00
O702   O     0.26693   0.19272   0.71361   0.00000  Uiso   1.00
O703   O     0.07071   0.18878   0.78213   0.00000  Uiso   1.00
O704   O     0.25491   0.15226   0.77014   0.00000  Uiso   1.00
O705   O     0.13760   0.06944   0.73413   0.00000  Uiso   1.00
O706   O     0.20345   0.25620   0.71361   0.00000  Uiso   1.00
Zn707  Zn    0.19338   0.13994   0.78734   0.00000  Uiso   1.00
Zn708  Zn    0.13379   0.12458   0.71876   0.00000  Uiso   1.00
Zn709  Zn    0.21056   0.19775   0.70657   0.00000  Uiso   1.00
Zn710  Zn    0.12893   0.20439   0.78734   0.00000  Uiso   1.00
C711   C     0.38630   0.15955   0.76065   0.00000  Uiso   1.00
C712   C     0.51110   0.16806   0.55865   0.00000  Uiso   1.00
C713   C     0.53544   0.10147   0.56113   0.00000  Uiso   1.00
C714   C     0.61435   0.17310   0.73944   0.00000  Uiso   1.00
C715   C     0.47706   0.19526   0.91911   0.00000  Uiso   1.00
C716   C     0.66060   0.17268   0.73373   0.00000  Uiso   1.00
C717   C     0.34103   0.15778   0.76645   0.00000  Uiso   1.00
C718   C     0.51405   0.32257   0.73648   0.00000  Uiso   1.00
C719   C     0.48535   0.01180   0.76379   0.00000  Uiso   1.00
C720   C     0.48937   0.05597   0.76032   0.00000  Uiso   1.00
C721   C     0.50996   0.27794   0.74016   0.00000  Uiso   1.00
C722   C     0.48022   0.25260   0.97548   0.00000  Uiso   1.00
C723   C     0.51873   0.14800   0.62948   0.00000  Uiso   1.00
C724   C     0.48133   0.18422   0.87097   0.00000  Uiso   1.00
C725   C     0.53000   0.08893   0.51869   0.00000  Uiso   1.00
C726   C     0.52480   0.14034   0.58147   0.00000  Uiso   1.00
C727   C     0.47196   0.23684   0.93495   0.00000  Uiso   1.00
C728   C     0.64559   0.14273   0.81118   0.00000  Uiso   1.00
C729   C     0.33539   0.13205   0.84486   0.00000  Uiso   1.00
C730   C     0.63683   0.11599   0.88702   0.00000  Uiso   1.00
C731   C     0.36074   0.18776   0.69127   0.00000  Uiso   1.00
C732   C     0.34500   0.20183   0.65356   0.00000  Uiso   1.00
C733   C     0.49360   0.22725   0.50084   0.00000  Uiso   1.00
C734   C     0.38215   0.21178   0.61278   0.00000  Uiso   1.00
C735   C     0.49516   0.18406   0.98831   0.00000  Uiso   1.00
C736   C     0.48568   0.16773   0.94705   0.00000  Uiso   1.00
C737   C     0.50752   0.15687   0.51429   0.00000  Uiso   1.00
C738   C     0.51446   0.11549   0.99601   0.00000  Uiso   1.00
C739   C     0.50267   0.09967   0.95703   0.00000  Uiso   1.00
C740   C     0.48574   0.12450   0.93455   0.00000  Uiso   1.00
F741   F     0.54725   0.00753   0.70509   0.00000  Uiso   1.00
F742   F     0.49533   0.20229   0.58296   0.00000  Uiso   1.00
F743   F     0.46758   0.10527   0.90195   0.00000  Uiso   1.00
H744   H     0.54509   0.07973   0.57943   0.00000  Uiso   1.00
H745   H     0.65429   0.10881   0.91080   0.00000  Uiso   1.00
H746   H     0.35640   0.10756   0.82924   0.00000  Uiso   1.00
H747   H     0.35515   0.16034   0.85503   0.00000  Uiso   1.00
H748   H     0.62552   0.16758   0.82828   0.00000  Uiso   1.00
H749   H     0.62513   0.11377   0.80382   0.00000  Uiso   1.00
H750   H     0.40567   0.23706   0.62212   0.00000  Uiso   1.00
H751   H     0.39831   0.18358   0.59898   0.00000  Uiso   1.00
H752   H     0.37002   0.22232   0.58627   0.00000  Uiso   1.00
H753   H     0.65556   0.17658   0.64276   0.00000  Uiso   1.00
H754   H     0.66265   0.23060   0.66547   0.00000  Uiso   1.00
H755   H     0.45844   0.33120   0.78884   0.00000  Uiso   1.00
H756   H     0.38265   0.21412   0.70175   0.00000  Uiso   1.00
H757   H     0.37975   0.16167   0.67609   0.00000  Uiso   1.00
H758   H     0.50444   0.06712   0.94512   0.00000  Uiso   1.00
H759   H     0.53594   0.05764   0.50451   0.00000  Uiso   1.00
H760   H     0.46493   0.25824   0.91431   0.00000  Uiso   1.00
H761   H     0.50426   0.24304   0.52889   0.00000  Uiso   1.00
H762   H     0.47872   0.28540   0.98603   0.00000  Uiso   1.00
H763   H     0.61564   0.14000   0.90379   0.00000  Uiso   1.00
H764   H     0.61706   0.08705   0.87837   0.00000  Uiso   1.00
O765   O     0.50000   0.16667   0.75000   0.00000  Uiso   1.00
O766   O     0.48784   0.12637   0.65459   0.00000  Uiso   1.00
O767   O     0.46274   0.20391   0.84968   0.00000  Uiso   1.00
O768   O     0.54157   0.17759   0.64606   0.00000  Uiso   1.00
O769   O     0.50785   0.15880   0.84968   0.00000  Uiso   1.00
O770   O     0.51264   0.08019   0.78214   0.00000  Uiso   1.00
O771   O     0.47965   0.26085   0.77014   0.00000  Uiso   1.00
O772   O     0.40745   0.13291   0.73413   0.00000  Uiso   1.00
O773   O     0.60026   0.19272   0.71361   0.00000  Uiso   1.00
O774   O     0.40405   0.18878   0.78213   0.00000  Uiso   1.00
O775   O     0.58824   0.15226   0.77014   0.00000  Uiso   1.00
O776   O     0.47093   0.06944   0.73413   0.00000  Uiso   1.00
O777   O     0.53678   0.25620   0.71361   0.00000  Uiso   1.00
Zn778  Zn    0.52672   0.13994   0.78734   0.00000  Uiso   1.00
Zn779  Zn    0.46713   0.12458   0.71876   0.00000  Uiso   1.00
Zn780  Zn    0.54389   0.19775   0.70657   0.00000  Uiso   1.00
Zn781  Zn    0.46226   0.20439   0.78734   0.00000  Uiso   1.00
C782   C     0.71964   0.15955   0.76065   0.00000  Uiso   1.00
C783   C     0.84443   0.16806   0.55865   0.00000  Uiso   1.00
C784   C     0.86877   0.10147   0.56113   0.00000  Uiso   1.00
C785   C     0.94768   0.17310   0.73944   0.00000  Uiso   1.00
C786   C     0.81039   0.19526   0.91911   0.00000  Uiso   1.00
C787   C     0.99393   0.17268   0.73373   0.00000  Uiso   1.00
C788   C     0.67436   0.15778   0.76645   0.00000  Uiso   1.00
C789   C     0.84739   0.32257   0.73648   0.00000  Uiso   1.00
C790   C     0.81868   0.01180   0.76379   0.00000  Uiso   1.00
C791   C     0.82271   0.05597   0.76032   0.00000  Uiso   1.00
C792   C     0.84330   0.27794   0.74016   0.00000  Uiso   1.00
C793   C     0.81355   0.25260   0.97548   0.00000  Uiso   1.00
C794   C     0.85206   0.14800   0.62948   0.00000  Uiso   1.00
C795   C     0.81467   0.18422   0.87097   0.00000  Uiso   1.00
C796   C     0.86333   0.08893   0.51869   0.00000  Uiso   1.00
C797   C     0.85813   0.14034   0.58147   0.00000  Uiso   1.00
C798   C     0.80529   0.23684   0.93495   0.00000  Uiso   1.00
C799   C     0.97892   0.14273   0.81118   0.00000  Uiso   1.00
C800   C     0.66872   0.13205   0.84486   0.00000  Uiso   1.00
C801   C     0.97017   0.11599   0.88702   0.00000  Uiso   1.00
C802   C     0.69407   0.18776   0.69127   0.00000  Uiso   1.00
C803   C     0.67833   0.20183   0.65356   0.00000  Uiso   1.00
C804   C     0.82693   0.22725   0.50084   0.00000  Uiso   1.00
C805   C     0.71548   0.21178   0.61278   0.00000  Uiso   1.00
C806   C     0.82849   0.18406   0.98831   0.00000  Uiso   1.00
C807   C     0.81901   0.16773   0.94705   0.00000  Uiso   1.00
C808   C     0.84085   0.15687   0.51429   0.00000  Uiso   1.00
C809   C     0.84779   0.11549   0.99601   0.00000  Uiso   1.00
C810   C     0.83600   0.09967   0.95703   0.00000  Uiso   1.00
C811   C     0.81908   0.12450   0.93455   0.00000  Uiso   1.00
F812   F     0.88059   0.00753   0.70509   0.00000  Uiso   1.00
F813   F     0.82866   0.20229   0.58296   0.00000  Uiso   1.00
F814   F     0.80091   0.10527   0.90195   0.00000  Uiso   1.00
H815   H     0.87843   0.07973   0.57943   0.00000  Uiso   1.00
H816   H     0.98763   0.10881   0.91080   0.00000  Uiso   1.00
H817   H     0.68974   0.10756   0.82924   0.00000  Uiso   1.00
H818   H     0.68848   0.16034   0.85503   0.00000  Uiso   1.00
H819   H     0.95885   0.16758   0.82828   0.00000  Uiso   1.00
H820   H     0.95847   0.11377   0.80382   0.00000  Uiso   1.00
H821   H     0.73900   0.23706   0.62212   0.00000  Uiso   1.00
H822   H     0.73164   0.18358   0.59898   0.00000  Uiso   1.00
H823   H     0.70335   0.22232   0.58627   0.00000  Uiso   1.00
H824   H     0.98890   0.17658   0.64276   0.00000  Uiso   1.00
H825   H     0.99598   0.23060   0.66547   0.00000  Uiso   1.00
H826   H     0.79177   0.33120   0.78884   0.00000  Uiso   1.00
H827   H     0.71598   0.21412   0.70175   0.00000  Uiso   1.00
H828   H     0.71308   0.16167   0.67609   0.00000  Uiso   1.00
H829   H     0.83777   0.06712   0.94512   0.00000  Uiso   1.00
H830   H     0.86927   0.05764   0.50451   0.00000  Uiso   1.00
H831   H     0.79827   0.25824   0.91431   0.00000  Uiso   1.00
H832   H     0.83759   0.24304   0.52889   0.00000  Uiso   1.00
H833   H     0.81206   0.28540   0.98603   0.00000  Uiso   1.00
H834   H     0.94897   0.14000   0.90379   0.00000  Uiso   1.00
H835   H     0.95039   0.08705   0.87837   0.00000  Uiso   1.00
O836   O     0.83333   0.16667   0.75000   0.00000  Uiso   1.00
O837   O     0.82118   0.12637   0.65459   0.00000  Uiso   1.00
O838   O     0.79607   0.20391   0.84968   0.00000  Uiso   1.00
O839   O     0.87491   0.17759   0.64606   0.00000  Uiso   1.00
O840   O     0.84118   0.15880   0.84968   0.00000  Uiso   1.00
O841   O     0.84597   0.08019   0.78214   0.00000  Uiso   1.00
O842   O     0.81298   0.26085   0.77014   0.00000  Uiso   1.00
O843   O     0.74078   0.13291   0.73413   0.00000  Uiso   1.00
O844   O     0.93360   0.19272   0.71361   0.00000  Uiso   1.00
O845   O     0.73738   0.18878   0.78213   0.00000  Uiso   1.00
O846   O     0.92158   0.15226   0.77014   0.00000  Uiso   1.00
O847   O     0.80426   0.06944   0.73413   0.00000  Uiso   1.00
O848   O     0.87012   0.25620   0.71361   0.00000  Uiso   1.00
Zn849  Zn    0.86005   0.13994   0.78734   0.00000  Uiso   1.00
Zn850  Zn    0.80046   0.12458   0.71876   0.00000  Uiso   1.00
Zn851  Zn    0.87723   0.19775   0.70657   0.00000  Uiso   1.00
Zn852  Zn    0.79560   0.20439   0.78734   0.00000  Uiso   1.00
C853   C     0.05297   0.49288   0.76065   0.00000  Uiso   1.00
C854   C     0.17777   0.50140   0.55865   0.00000  Uiso   1.00
C855   C     0.20211   0.43481   0.56113   0.00000  Uiso   1.00
C856   C     0.28101   0.50644   0.73944   0.00000  Uiso   1.00
C857   C     0.14372   0.52859   0.91911   0.00000  Uiso   1.00
C858   C     0.32726   0.50601   0.73373   0.00000  Uiso   1.00
C859   C     0.00769   0.49111   0.76645   0.00000  Uiso   1.00
C860   C     0.18072   0.65591   0.73648   0.00000  Uiso   1.00
C861   C     0.15201   0.34514   0.76379   0.00000  Uiso   1.00
C862   C     0.15604   0.38930   0.76032   0.00000  Uiso   1.00
C863   C     0.17663   0.61127   0.74016   0.00000  Uiso   1.00
C864   C     0.14689   0.58593   0.97548   0.00000  Uiso   1.00
C865   C     0.18540   0.48133   0.62948   0.00000  Uiso   1.00
C866   C     0.14800   0.51755   0.87097   0.00000  Uiso   1.00
C867   C     0.19667   0.42226   0.51869   0.00000  Uiso   1.00
C868   C     0.19147   0.47368   0.58147   0.00000  Uiso   1.00
C869   C     0.13863   0.57017   0.93495   0.00000  Uiso   1.00
C870   C     0.31225   0.47607   0.81118   0.00000  Uiso   1.00
C871   C     0.00205   0.46538   0.84486   0.00000  Uiso   1.00
C872   C     0.30350   0.44932   0.88702   0.00000  Uiso   1.00
C873   C     0.02741   0.52109   0.69127   0.00000  Uiso   1.00
C874   C     0.01166   0.53517   0.65356   0.00000  Uiso   1.00
C875   C     0.16027   0.56058   0.50084   0.00000  Uiso   1.00
C876   C     0.04882   0.54511   0.61278   0.00000  Uiso   1.00
C877   C     0.16183   0.51740   0.98831   0.00000  Uiso   1.00
C878   C     0.15235   0.50106   0.94705   0.00000  Uiso   1.00
C879   C     0.17419   0.49021   0.51429   0.00000  Uiso   1.00
C880   C     0.18112   0.44882   0.99601   0.00000  Uiso   1.00
C881   C     0.16934   0.43301   0.95703   0.00000  Uiso   1.00
C882   C     0.15241   0.45783   0.93455   0.00000  Uiso   1.00
F883   F     0.21392   0.34087   0.70509   0.00000  Uiso   1.00
F884   F     0.16199   0.53562   0.58296   0.00000  Uiso   1.00
F885   F     0.13424   0.43860   0.90195   0.00000  Uiso   1.00
H886   H     0.21176   0.41306   0.57943   0.00000  Uiso   1.00
H887   H     0.32096   0.44214   0.91080   0.00000  Uiso   1.00
H888   H     0.02307   0.44090   0.82924   0.00000  Uiso   1.00
H889   H     0.02182   0.49368   0.85503   0.00000  Uiso   1.00
H890   H     0.29218   0.50091   0.82828   0.00000  Uiso   1.00
H891   H     0.29180   0.44710   0.80382   0.00000  Uiso   1.00
H892   H     0.07234   0.57039   0.62212   0.00000  Uiso   1.00
H893   H     0.06497   0.51692   0.59898   0.00000  Uiso   1.00
H894   H     0.03668   0.55565   0.58627   0.00000  Uiso   1.00
H895   H     0.32223   0.50991   0.64276   0.00000  Uiso   1.00
H896   H     0.32932   0.56393   0.66547   0.00000  Uiso   1.00
H897   H     0.12510   0.66453   0.78884   0.00000  Uiso   1.00
H898   H     0.04932   0.54745   0.70175   0.00000  Uiso   1.00
H899   H     0.04642   0.49500   0.67609   0.00000  Uiso   1.00
H900   H     0.17111   0.40046   0.94512   0.00000  Uiso   1.00
H901   H     0.20261   0.39098   0.50451   0.00000  Uiso   1.00
H902   H     0.13160   0.59157   0.91431   0.00000  Uiso   1.00
H903   H     0.17093   0.57638   0.52889   0.00000  Uiso   1.00
H904   H     0.14539   0.61874   0.98603   0.00000  Uiso   1.00
H905   H     0.28231   0.47333   0.90379   0.00000  Uiso   1.00
H906   H     0.28373   0.42038   0.87837   0.00000  Uiso   1.00
O907   O     0.16667   0.50000   0.75000   0.00000  Uiso   1.00
O908   O     0.15451   0.45970   0.65459   0.00000  Uiso   1.00
O909   O     0.12940   0.53724   0.84968   0.00000  Uiso   1.00
O910   O     0.20824   0.51092   0.64606   0.00000  Uiso   1.00
O911   O     0.17451   0.49213   0.84968   0.00000  Uiso   1.00
O912   O     0.17930   0.41352   0.78214   0.00000  Uiso   1.00
O913   O     0.14632   0.59418   0.77014   0.00000  Uiso   1.00
O914   O     0.07412   0.46625   0.73413   0.00000  Uiso   1.00
O915   O     0.26693   0.52605   0.71361   0.00000  Uiso   1.00
O916   O     0.07071   0.52211   0.78213   0.00000  Uiso   1.00
O917   O     0.25491   0.48559   0.77014   0.00000  Uiso   1.00
O918   O     0.13760   0.40277   0.73413   0.00000  Uiso   1.00
O919   O     0.20345   0.58953   0.71361   0.00000  Uiso   1.00
Zn920  Zn    0.19338   0.47327   0.78734   0.00000  Uiso   1.00
Zn921  Zn    0.13379   0.45791   0.71876   0.00000  Uiso   1.00
Zn922  Zn    0.21056   0.53109   0.70657   0.00000  Uiso   1.00
Zn923  Zn    0.12893   0.53773   0.78734   0.00000  Uiso   1.00
C924   C     0.38630   0.49288   0.76065   0.00000  Uiso   1.00
C925   C     0.51110   0.50140   0.55865   0.00000  Uiso   1.00
C926   C     0.53544   0.43481   0.56113   0.00000  Uiso   1.00
C927   C     0.61435   0.50644   0.73944   0.00000  Uiso   1.00
C928   C     0.47706   0.52859   0.91911   0.00000  Uiso   1.00
C929   C     0.66060   0.50601   0.73373   0.00000  Uiso   1.00
C930   C     0.34103   0.49111   0.76645   0.00000  Uiso   1.00
C931   C     0.51405   0.65591   0.73648   0.00000  Uiso   1.00
C932   C     0.48535   0.34514   0.76379   0.00000  Uiso   1.00
C933   C     0.48937   0.38930   0.76032   0.00000  Uiso   1.00
C934   C     0.50996   0.61127   0.74016   0.00000  Uiso   1.00
C935   C     0.48022   0.58593   0.97548   0.00000  Uiso   1.00
C936   C     0.51873   0.48133   0.62948   0.00000  Uiso   1.00
C937   C     0.48133   0.51755   0.87097   0.00000  Uiso   1.00
C938   C     0.53000   0.42226   0.51869   0.00000  Uiso   1.00
C939   C     0.52480   0.47368   0.58147   0.00000  Uiso   1.00
C940   C     0.47196   0.57017   0.93495   0.00000  Uiso   1.00
C941   C     0.64559   0.47607   0.81118   0.00000  Uiso   1.00
C942   C     0.33539   0.46538   0.84486   0.00000  Uiso   1.00
C943   C     0.63683   0.44932   0.88702   0.00000  Uiso   1.00
C944   C     0.36074   0.52109   0.69127   0.00000  Uiso   1.00
C945   C     0.34500   0.53517   0.65356   0.00000  Uiso   1.00
C946   C     0.49360   0.56058   0.50084   0.00000  Uiso   1.00
C947   C     0.38215   0.54511   0.61278   0.00000  Uiso   1.00
C948   C     0.49516   0.51740   0.98831   0.00000  Uiso   1.00
C949   C     0.48568   0.50106   0.94705   0.00000  Uiso   1.00
C950   C     0.50752   0.49021   0.51429   0.00000  Uiso   1.00
C951   C     0.51446   0.44882   0.99601   0.00000  Uiso   1.00
C952   C     0.50267   0.43301   0.95703   0.00000  Uiso   1.00
C953   C     0.48574   0.45783   0.93455   0.00000  Uiso   1.00
F954   F     0.54725   0.34087   0.70509   0.00000  Uiso   1.00
F955   F     0.49533   0.53562   0.58296   0.00000  Uiso   1.00
F956   F     0.46758   0.43860   0.90195   0.00000  Uiso   1.00
H957   H     0.54509   0.41306   0.57943   0.00000  Uiso   1.00
H958   H     0.65429   0.44214   0.91080   0.00000  Uiso   1.00
H959   H     0.35640   0.44090   0.82924   0.00000  Uiso   1.00
H960   H     0.35515   0.49368   0.85503   0.00000  Uiso   1.00
H961   H     0.62552   0.50091   0.82828   0.00000  Uiso   1.00
H962   H     0.62513   0.44710   0.80382   0.00000  Uiso   1.00
H963   H     0.40567   0.57039   0.62212   0.00000  Uiso   1.00
H964   H     0.39831   0.51692   0.59898   0.00000  Uiso   1.00
H965   H     0.37002   0.55565   0.58627   0.00000  Uiso   1.00
H966   H     0.65556   0.50991   0.64276   0.00000  Uiso   1.00
H967   H     0.66265   0.56393   0.66547   0.00000  Uiso   1.00
H968   H     0.45844   0.66453   0.78884   0.00000  Uiso   1.00
H969   H     0.38265   0.54745   0.70175   0.00000  Uiso   1.00
H970   H     0.37975   0.49500   0.67609   0.00000  Uiso   1.00
H971   H     0.50444   0.40046   0.94512   0.00000  Uiso   1.00
H972   H     0.53594   0.39098   0.50451   0.00000  Uiso   1.00
H973   H     0.46493   0.59157   0.91431   0.00000  Uiso   1.00
H974   H     0.50426   0.57638   0.52889   0.00000  Uiso   1.00
H975   H     0.47872   0.61874   0.98603   0.00000  Uiso   1.00
H976   H     0.61564   0.47333   0.90379   0.00000  Uiso   1.00
H977   H     0.61706   0.42038   0.87837   0.00000  Uiso   1.00
O978   O     0.50000   0.50000   0.75000   0.00000  Uiso   1.00
O979   O     0.48784   0.45970   0.65459   0.00000  Uiso   1.00
O980   O     0.46274   0.53724   0.84968   0.00000  Uiso   1.00
O981   O     0.54157   0.51092   0.64606   0.00000  Uiso   1.00
O982   O     0.50785   0.49213   0.84968   0.00000  Uiso   1.00
O983   O     0.51264   0.41352   0.78214   0.00000  Uiso   1.00
O984   O     0.47965   0.59418   0.77014   0.00000  Uiso   1.00
O985   O     0.40745   0.46625   0.73413   0.00000  Uiso   1.00
O986   O     0.60026   0.52605   0.71361   0.00000  Uiso   1.00
O987   O     0.40405   0.52211   0.78213   0.00000  Uiso   1.00
O988   O     0.58824   0.48559   0.77014   0.00000  Uiso   1.00
O989   O     0.47093   0.40277   0.73413   0.00000  Uiso   1.00
O990   O     0.53678   0.58953   0.71361   0.00000  Uiso   1.00
Zn991  Zn    0.52672   0.47327   0.78734   0.00000  Uiso   1.00
Zn992  Zn    0.46713   0.45791   0.71876   0.00000  Uiso   1.00
Zn993  Zn    0.54389   0.53109   0.70657   0.00000  Uiso   1.00
Zn994  Zn    0.46226   0.53773   0.78734   0.00000  Uiso   1.00
C995   C     0.71964   0.49288   0.76065   0.00000  Uiso   1.00
C996   C     0.84443   0.50140   0.55865   0.00000  Uiso   1.00
C997   C     0.86877   0.43481   0.56113   0.00000  Uiso   1.00
C998   C     0.94768   0.50644   0.73944   0.00000  Uiso   1.00
C999   C     0.81039   0.52859   0.91911   0.00000  Uiso   1.00
C1000  C     0.99393   0.50601   0.73373   0.00000  Uiso   1.00
C1001  C     0.67436   0.49111   0.76645   0.00000  Uiso   1.00
C1002  C     0.84739   0.65591   0.73648   0.00000  Uiso   1.00
C1003  C     0.81868   0.34514   0.76379   0.00000  Uiso   1.00
C1004  C     0.82271   0.38930   0.76032   0.00000  Uiso   1.00
C1005  C     0.84330   0.61127   0.74016   0.00000  Uiso   1.00
C1006  C     0.81355   0.58593   0.97548   0.00000  Uiso   1.00
C1007  C     0.85206   0.48133   0.62948   0.00000  Uiso   1.00
C1008  C     0.81467   0.51755   0.87097   0.00000  Uiso   1.00
C1009  C     0.86333   0.42226   0.51869   0.00000  Uiso   1.00
C1010  C     0.85813   0.47368   0.58147   0.00000  Uiso   1.00
C1011  C     0.80529   0.57017   0.93495   0.00000  Uiso   1.00
C1012  C     0.97892   0.47607   0.81118   0.00000  Uiso   1.00
C1013  C     0.66872   0.46538   0.84486   0.00000  Uiso   1.00
C1014  C     0.97017   0.44932   0.88702   0.00000  Uiso   1.00
C1015  C     0.69407   0.52109   0.69127   0.00000  Uiso   1.00
C1016  C     0.67833   0.53517   0.65356   0.00000  Uiso   1.00
C1017  C     0.82693   0.56058   0.50084   0.00000  Uiso   1.00
C1018  C     0.71548   0.54511   0.61278   0.00000  Uiso   1.00
C1019  C     0.82849   0.51740   0.98831   0.00000  Uiso   1.00
C1020  C     0.81901   0.50106   0.94705   0.00000  Uiso   1.00
C1021  C     0.84085   0.49021   0.51429   0.00000  Uiso   1.00
C1022  C     0.84779   0.44882   0.99601   0.00000  Uiso   1.00
C1023  C     0.83600   0.43301   0.95703   0.00000  Uiso   1.00
C1024  C     0.81908   0.45783   0.93455   0.00000  Uiso   1.00
F1025  F     0.88059   0.34087   0.70509   0.00000  Uiso   1.00
F1026  F     0.82866   0.53562   0.58296   0.00000  Uiso   1.00
F1027  F     0.80091   0.43860   0.90195   0.00000  Uiso   1.00
H1028  H     0.87843   0.41306   0.57943   0.00000  Uiso   1.00
H1029  H     0.98763   0.44214   0.91080   0.00000  Uiso   1.00
H1030  H     0.68974   0.44090   0.82924   0.00000  Uiso   1.00
H1031  H     0.68848   0.49368   0.85503   0.00000  Uiso   1.00
H1032  H     0.95885   0.50091   0.82828   0.00000  Uiso   1.00
H1033  H     0.95847   0.44710   0.80382   0.00000  Uiso   1.00
H1034  H     0.73900   0.57039   0.62212   0.00000  Uiso   1.00
H1035  H     0.73164   0.51692   0.59898   0.00000  Uiso   1.00
H1036  H     0.70335   0.55565   0.58627   0.00000  Uiso   1.00
H1037  H     0.98890   0.50991   0.64276   0.00000  Uiso   1.00
H1038  H     0.99598   0.56393   0.66547   0.00000  Uiso   1.00
H1039  H     0.79177   0.66453   0.78884   0.00000  Uiso   1.00
H1040  H     0.71598   0.54745   0.70175   0.00000  Uiso   1.00
H1041  H     0.71308   0.49500   0.67609   0.00000  Uiso   1.00
H1042  H     0.83777   0.40046   0.94512   0.00000  Uiso   1.00
H1043  H     0.86927   0.39098   0.50451   0.00000  Uiso   1.00
H1044  H     0.79827   0.59157   0.91431   0.00000  Uiso   1.00
H1045  H     0.83759   0.57638   0.52889   0.00000  Uiso   1.00
H1046  H     0.81206   0.61874   0.98603   0.00000  Uiso   1.00
H1047  H     0.94897   0.47333   0.90379   0.00000  Uiso   1.00
H1048  H     0.95039   0.42038   0.87837   0.00000  Uiso   1.00
O1049  O     0.83333   0.50000   0.75000   0.00000  Uiso   1.00
O1050  O     0.82118   0.45970   0.65459   0.00000  Uiso   1.00
O1051  O     0.79607   0.53724   0.84968   0.00000  Uiso   1.00
O1052  O     0.87491   0.51092   0.64606   0.00000  Uiso   1.00
O1053  O     0.84118   0.49213   0.84968   0.00000  Uiso   1.00
O1054  O     0.84597   0.41352   0.78214   0.00000  Uiso   1.00
O1055  O     0.81298   0.59418   0.77014   0.00000  Uiso   1.00
O1056  O     0.74078   0.46625   0.73413   0.00000  Uiso   1.00
O1057  O     0.93360   0.52605   0.71361   0.00000  Uiso   1.00
O1058  O     0.73738   0.52211   0.78213   0.00000  Uiso   1.00
O1059  O     0.92158   0.48559   0.77014   0.00000  Uiso   1.00
O1060  O     0.80426   0.40277   0.73413   0.00000  Uiso   1.00
O1061  O     0.87012   0.58953   0.71361   0.00000  Uiso   1.00
Zn1062 Zn    0.86005   0.47327   0.78734   0.00000  Uiso   1.00
Zn1063 Zn    0.80046   0.45791   0.71876   0.00000  Uiso   1.00
Zn1064 Zn    0.87723   0.53109   0.70657   0.00000  Uiso   1.00
Zn1065 Zn    0.79560   0.53773   0.78734   0.00000  Uiso   1.00
C1066  C     0.05297   0.82622   0.76065   0.00000  Uiso   1.00
C1067  C     0.17777   0.83473   0.55865   0.00000  Uiso   1.00
C1068  C     0.20211   0.76814   0.56113   0.00000  Uiso   1.00
C1069  C     0.28101   0.83977   0.73944   0.00000  Uiso   1.00
C1070  C     0.14372   0.86193   0.91911   0.00000  Uiso   1.00
C1071  C     0.32726   0.83935   0.73373   0.00000  Uiso   1.00
C1072  C     0.00769   0.82445   0.76645   0.00000  Uiso   1.00
C1073  C     0.18072   0.98924   0.73648   0.00000  Uiso   1.00
C1074  C     0.15201   0.67847   0.76379   0.00000  Uiso   1.00
C1075  C     0.15604   0.72264   0.76032   0.00000  Uiso   1.00
C1076  C     0.17663   0.94460   0.74016   0.00000  Uiso   1.00
C1077  C     0.14689   0.91926   0.97548   0.00000  Uiso   1.00
C1078  C     0.18540   0.81467   0.62948   0.00000  Uiso   1.00
C1079  C     0.14800   0.85089   0.87097   0.00000  Uiso   1.00
C1080  C     0.19667   0.75560   0.51869   0.00000  Uiso   1.00
C1081  C     0.19147   0.80701   0.58147   0.00000  Uiso   1.00
C1082  C     0.13863   0.90350   0.93495   0.00000  Uiso   1.00
C1083  C     0.31225   0.80940   0.81118   0.00000  Uiso   1.00
C1084  C     0.00205   0.79871   0.84486   0.00000  Uiso   1.00
C1085  C     0.30350   0.78266   0.88702   0.00000  Uiso   1.00
C1086  C     0.02741   0.85443   0.69127   0.00000  Uiso   1.00
C1087  C     0.01166   0.86850   0.65356   0.00000  Uiso   1.00
C1088  C     0.16027   0.89392   0.50084   0.00000  Uiso   1.00
C1089  C     0.04882   0.87845   0.61278   0.00000  Uiso   1.00
C1090  C     0.16183   0.85073   0.98831   0.00000  Uiso   1.00
C1091  C     0.15235   0.83439   0.94705   0.00000  Uiso   1.00
C1092  C     0.17419   0.82354   0.51429   0.00000  Uiso   1.00
C1093  C     0.18112   0.78216   0.99601   0.00000  Uiso   1.00
C1094  C     0.16934   0.76634   0.95703   0.00000  Uiso   1.00
C1095  C     0.15241   0.79116   0.93455   0.00000  Uiso   1.00
F1096  F     0.21392   0.67420   0.70509   0.00000  Uiso   1.00
F1097  F     0.16199   0.86896   0.58296   0.00000  Uiso   1.00
F1098  F     0.13424   0.77193   0.90195   0.00000  Uiso   1.00
H1099  H     0.21176   0.74639   0.57943   0.00000  Uiso   1.00
H1100  H     0.32096   0.77548   0.91080   0.00000  Uiso   1.00
H1101  H     0.02307   0.77423   0.82924   0.00000  Uiso   1.00
H1102  H     0.02182   0.82701   0.85503   0.00000  Uiso   1.00
H1103  H     0.29218   0.83424   0.82828   0.00000  Uiso   1.00
H1104  H     0.29180   0.78044   0.80382   0.00000  Uiso   1.00
H1105  H     0.07234   0.90372   0.62212   0.00000  Uiso   1.00
H1106  H     0.06497   0.85025   0.59898   0.00000  Uiso   1.00
H1107  H     0.03668   0.88898   0.58627   0.00000  Uiso   1.00
H1108  H     0.32223   0.84325   0.64276   0.00000  Uiso   1.00
H1109  H     0.32932   0.89727   0.66547   0.00000  Uiso   1.00
H1110  H     0.12510   0.99787   0.78884   0.00000  Uiso   1.00
H1111  H     0.04932   0.88078   0.70175   0.00000  Uiso   1.00
H1112  H     0.04642   0.82834   0.67609   0.00000  Uiso   1.00
H1113  H     0.17111   0.73379   0.94512   0.00000  Uiso   1.00
H1114  H     0.20261   0.72431   0.50451   0.00000  Uiso   1.00
H1115  H     0.13160   0.92491   0.91431   0.00000  Uiso   1.00
H1116  H     0.17093   0.90971   0.52889   0.00000  Uiso   1.00
H1117  H     0.14539   0.95207   0.98603   0.00000  Uiso   1.00
H1118  H     0.28231   0.80666   0.90379   0.00000  Uiso   1.00
H1119  H     0.28373   0.75372   0.87837   0.00000  Uiso   1.00
O1120  O     0.16667   0.83333   0.75000   0.00000  Uiso   1.00
O1121  O     0.15451   0.79304   0.65459   0.00000  Uiso   1.00
O1122  O     0.12940   0.87058   0.84968   0.00000  Uiso   1.00
O1123  O     0.20824   0.84425   0.64606   0.00000  Uiso   1.00
O1124  O     0.17451   0.82546   0.84968   0.00000  Uiso   1.00
O1125  O     0.17930   0.74686   0.78214   0.00000  Uiso   1.00
O1126  O     0.14632   0.92751   0.77014   0.00000  Uiso   1.00
O1127  O     0.07412   0.79958   0.73413   0.00000  Uiso   1.00
O1128  O     0.26693   0.85939   0.71361   0.00000  Uiso   1.00
O1129  O     0.07071   0.85544   0.78213   0.00000  Uiso   1.00
O1130  O     0.25491   0.81892   0.77014   0.00000  Uiso   1.00
O1131  O     0.13760   0.73610   0.73413   0.00000  Uiso   1.00
O1132  O     0.20345   0.92286   0.71361   0.00000  Uiso   1.00
Zn1133 Zn    0.19338   0.80661   0.78734   0.00000  Uiso   1.00
Zn1134 Zn    0.13379   0.79124   0.71876   0.00000  Uiso   1.00
Zn1135 Zn    0.21056   0.86442   0.70657   0.00000  Uiso   1.00
Zn1136 Zn    0.12893   0.87106   0.78734   0.00000  Uiso   1.00
C1137  C     0.38630   0.82622   0.76065   0.00000  Uiso   1.00
C1138  C     0.51110   0.83473   0.55865   0.00000  Uiso   1.00
C1139  C     0.53544   0.76814   0.56113   0.00000  Uiso   1.00
C1140  C     0.61435   0.83977   0.73944   0.00000  Uiso   1.00
C1141  C     0.47706   0.86193   0.91911   0.00000  Uiso   1.00
C1142  C     0.66060   0.83935   0.73373   0.00000  Uiso   1.00
C1143  C     0.34103   0.82445   0.76645   0.00000  Uiso   1.00
C1144  C     0.51405   0.98924   0.73648   0.00000  Uiso   1.00
C1145  C     0.48535   0.67847   0.76379   0.00000  Uiso   1.00
C1146  C     0.48937   0.72264   0.76032   0.00000  Uiso   1.00
C1147  C     0.50996   0.94460   0.74016   0.00000  Uiso   1.00
C1148  C     0.48022   0.91926   0.97548   0.00000  Uiso   1.00
C1149  C     0.51873   0.81467   0.62948   0.00000  Uiso   1.00
C1150  C     0.48133   0.85089   0.87097   0.00000  Uiso   1.00
C1151  C     0.53000   0.75560   0.51869   0.00000  Uiso   1.00
C1152  C     0.52480   0.80701   0.58147   0.00000  Uiso   1.00
C1153  C     0.47196   0.90350   0.93495   0.00000  Uiso   1.00
C1154  C     0.64559   0.80940   0.81118   0.00000  Uiso   1.00
C1155  C     0.33539   0.79871   0.84486   0.00000  Uiso   1.00
C1156  C     0.63683   0.78266   0.88702   0.00000  Uiso   1.00
C1157  C     0.36074   0.85443   0.69127   0.00000  Uiso   1.00
C1158  C     0.34500   0.86850   0.65356   0.00000  Uiso   1.00
C1159  C     0.49360   0.89392   0.50084   0.00000  Uiso   1.00
C1160  C     0.38215   0.87845   0.61278   0.00000  Uiso   1.00
C1161  C     0.49516   0.85073   0.98831   0.00000  Uiso   1.00
C1162  C     0.48568   0.83439   0.94705   0.00000  Uiso   1.00
C1163  C     0.50752   0.82354   0.51429   0.00000  Uiso   1.00
C1164  C     0.51446   0.78216   0.99601   0.00000  Uiso   1.00
C1165  C     0.50267   0.76634   0.95703   0.00000  Uiso   1.00
C1166  C     0.48574   0.79116   0.93455   0.00000  Uiso   1.00
F1167  F     0.54725   0.67420   0.70509   0.00000  Uiso   1.00
F1168  F     0.49533   0.86896   0.58296   0.00000  Uiso   1.00
F1169  F     0.46758   0.77193   0.90195   0.00000  Uiso   1.00
H1170  H     0.54509   0.74639   0.57943   0.00000  Uiso   1.00
H1171  H     0.65429   0.77548   0.91080   0.00000  Uiso   1.00
H1172  H     0.35640   0.77423   0.82924   0.00000  Uiso   1.00
H1173  H     0.35515   0.82701   0.85503   0.00000  Uiso   1.00
H1174  H     0.62552   0.83424   0.82828   0.00000  Uiso   1.00
H1175  H     0.62513   0.78044   0.80382   0.00000  Uiso   1.00
H1176  H     0.40567   0.90372   0.62212   0.00000  Uiso   1.00
H1177  H     0.39831   0.85025   0.59898   0.00000  Uiso   1.00
H1178  H     0.37002   0.88898   0.58627   0.00000  Uiso   1.00
H1179  H     0.65556   0.84325   0.64276   0.00000  Uiso   1.00
H1180  H     0.66265   0.89727   0.66547   0.00000  Uiso   1.00
H1181  H     0.45844   0.99787   0.78884   0.00000  Uiso   1.00
H1182  H     0.38265   0.88078   0.70175   0.00000  Uiso   1.00
H1183  H     0.37975   0.82834   0.67609   0.00000  Uiso   1.00
H1184  H     0.50444   0.73379   0.94512   0.00000  Uiso   1.00
H1185  H     0.53594   0.72431   0.50451   0.00000  Uiso   1.00
H1186  H     0.46493   0.92491   0.91431   0.00000  Uiso   1.00
H1187  H     0.50426   0.90971   0.52889   0.00000  Uiso   1.00
H1188  H     0.47872   0.95207   0.98603   0.00000  Uiso   1.00
H1189  H     0.61564   0.80666   0.90379   0.00000  Uiso   1.00
H1190  H     0.61706   0.75372   0.87837   0.00000  Uiso   1.00
O1191  O     0.50000   0.83333   0.75000   0.00000  Uiso   1.00
O1192  O     0.48784   0.79304   0.65459   0.00000  Uiso   1.00
O1193  O     0.46274   0.87058   0.84968   0.00000  Uiso   1.00
O1194  O     0.54157   0.84425   0.64606   0.00000  Uiso   1.00
O1195  O     0.50785   0.82546   0.84968   0.00000  Uiso   1.00
O1196  O     0.51264   0.74686   0.78214   0.00000  Uiso   1.00
O1197  O     0.47965   0.92751   0.77014   0.00000  Uiso   1.00
O1198  O     0.40745   0.79958   0.73413   0.00000  Uiso   1.00
O1199  O     0.60026   0.85939   0.71361   0.00000  Uiso   1.00
O1200  O     0.40405   0.85544   0.78213   0.00000  Uiso   1.00
O1201  O     0.58824   0.81892   0.77014   0.00000  Uiso   1.00
O1202  O     0.47093   0.73610   0.73413   0.00000  Uiso   1.00
O1203  O     0.53678   0.92286   0.71361   0.00000  Uiso   1.00
Zn1204 Zn    0.52672   0.80661   0.78734   0.00000  Uiso   1.00
Zn1205 Zn    0.46713   0.79124   0.71876   0.00000  Uiso   1.00
Zn1206 Zn    0.54389   0.86442   0.70657   0.00000  Uiso   1.00
Zn1207 Zn    0.46226   0.87106   0.78734   0.00000  Uiso   1.00
C1208  C     0.71964   0.82622   0.76065   0.00000  Uiso   1.00
C1209  C     0.84443   0.83473   0.55865   0.00000  Uiso   1.00
C1210  C     0.86877   0.76814   0.56113   0.00000  Uiso   1.00
C1211  C     0.94768   0.83977   0.73944   0.00000  Uiso   1.00
C1212  C     0.81039   0.86193   0.91911   0.00000  Uiso   1.00
C1213  C     0.99393   0.83935   0.73373   0.00000  Uiso   1.00
C1214  C     0.67436   0.82445   0.76645   0.00000  Uiso   1.00
C1215  C     0.84739   0.98924   0.73648   0.00000  Uiso   1.00
C1216  C     0.81868   0.67847   0.76379   0.00000  Uiso   1.00
C1217  C     0.82271   0.72264   0.76032   0.00000  Uiso   1.00
C1218  C     0.84330   0.94460   0.74016   0.00000  Uiso   1.00
C1219  C     0.81355   0.91926   0.97548   0.00000  Uiso   1.00
C1220  C     0.85206   0.81467   0.62948   0.00000  Uiso   1.00
C1221  C     0.81467   0.85089   0.87097   0.00000  Uiso   1.00
C1222  C     0.86333   0.75560   0.51869   0.00000  Uiso   1.00
C1223  C     0.85813   0.80701   0.58147   0.00000  Uiso   1.00
C1224  C     0.80529   0.90350   0.93495   0.00000  Uiso   1.00
C1225  C     0.97892   0.80940   0.81118   0.00000  Uiso   1.00
C1226  C     0.66872   0.79871   0.84486   0.00000  Uiso   1.00
C1227  C     0.97017   0.78266   0.88702   0.00000  Uiso   1.00
C1228  C     0.69407   0.85443   0.69127   0.00000  Uiso   1.00
C1229  C     0.67833   0.86850   0.65356   0.00000  Uiso   1.00
C1230  C     0.82693   0.89392   0.50084   0.00000  Uiso   1.00
C1231  C     0.71548   0.87845   0.61278   0.00000  Uiso   1.00
C1232  C     0.82849   0.85073   0.98831   0.00000  Uiso   1.00
C1233  C     0.81901   0.83439   0.94705   0.00000  Uiso   1.00
C1234  C     0.84085   0.82354   0.51429   0.00000  Uiso   1.00
C1235  C     0.84779   0.78216   0.99601   0.00000  Uiso   1.00
C1236  C     0.83600   0.76634   0.95703   0.00000  Uiso   1.00
C1237  C     0.81908   0.79116   0.93455   0.00000  Uiso   1.00
F1238  F     0.88059   0.67420   0.70509   0.00000  Uiso   1.00
F1239  F     0.82866   0.86896   0.58296   0.00000  Uiso   1.00
F1240  F     0.80091   0.77193   0.90195   0.00000  Uiso   1.00
H1241  H     0.87843   0.74639   0.57943   0.00000  Uiso   1.00
H1242  H     0.98763   0.77548   0.91080   0.00000  Uiso   1.00
H1243  H     0.68974   0.77423   0.82924   0.00000  Uiso   1.00
H1244  H     0.68848   0.82701   0.85503   0.00000  Uiso   1.00
H1245  H     0.95885   0.83424   0.82828   0.00000  Uiso   1.00
H1246  H     0.95847   0.78044   0.80382   0.00000  Uiso   1.00
H1247  H     0.73900   0.90372   0.62212   0.00000  Uiso   1.00
H1248  H     0.73164   0.85025   0.59898   0.00000  Uiso   1.00
H1249  H     0.70335   0.88898   0.58627   0.00000  Uiso   1.00
H1250  H     0.98890   0.84325   0.64276   0.00000  Uiso   1.00
H1251  H     0.99598   0.89727   0.66547   0.00000  Uiso   1.00
H1252  H     0.79177   0.99787   0.78884   0.00000  Uiso   1.00
H1253  H     0.71598   0.88078   0.70175   0.00000  Uiso   1.00
H1254  H     0.71308   0.82834   0.67609   0.00000  Uiso   1.00
H1255  H     0.83777   0.73379   0.94512   0.00000  Uiso   1.00
H1256  H     0.86927   0.72431   0.50451   0.00000  Uiso   1.00
H1257  H     0.79827   0.92491   0.91431   0.00000  Uiso   1.00
H1258  H     0.83759   0.90971   0.52889   0.00000  Uiso   1.00
H1259  H     0.81206   0.95207   0.98603   0.00000  Uiso   1.00
H1260  H     0.94897   0.80666   0.90379   0.00000  Uiso   1.00
H1261  H     0.95039   0.75372   0.87837   0.00000  Uiso   1.00
O1262  O     0.83333   0.83333   0.75000   0.00000  Uiso   1.00
O1263  O     0.82118   0.79304   0.65459   0.00000  Uiso   1.00
O1264  O     0.79607   0.87058   0.84968   0.00000  Uiso   1.00
O1265  O     0.87491   0.84425   0.64606   0.00000  Uiso   1.00
O1266  O     0.84118   0.82546   0.84968   0.00000  Uiso   1.00
O1267  O     0.84597   0.74686   0.78214   0.00000  Uiso   1.00
O1268  O     0.81298   0.92751   0.77014   0.00000  Uiso   1.00
O1269  O     0.74078   0.79958   0.73413   0.00000  Uiso   1.00
O1270  O     0.93360   0.85939   0.71361   0.00000  Uiso   1.00
O1271  O     0.73738   0.85544   0.78213   0.00000  Uiso   1.00
O1272  O     0.92158   0.81892   0.77014   0.00000  Uiso   1.00
O1273  O     0.80426   0.73610   0.73413   0.00000  Uiso   1.00
O1274  O     0.87012   0.92286   0.71361   0.00000  Uiso   1.00
Zn1275 Zn    0.86005   0.80661   0.78734   0.00000  Uiso   1.00
Zn1276 Zn    0.80046   0.79124   0.71876   0.00000  Uiso   1.00
Zn1277 Zn    0.87723   0.86442   0.70657   0.00000  Uiso   1.00
Zn1278 Zn    0.79560   0.87106   0.78734   0.00000  Uiso   1.00
loop_
_geom_bond_atom_site_label_1
_geom_bond_atom_site_label_2
_geom_bond_distance
_geom_bond_site_symmetry_2
_ccdc_geom_bond_type
C1     O62     1.271   .     A
C1     O64     1.261   .     A
C1     C7      1.440   .     S
C2     F32     1.357   .     S
C2     C27     1.416   .     A
C2     C16     1.396   .     A
C3     C15     1.385   .     A
C3     H34     1.084   .     S
C3     C16     1.395   .     A
C4     O63     1.290   .     A
C4     O65     1.279   .     A
C4     C6      1.481   .     S
C5     C14     1.471   .     S
C5     C17     1.402   .     A
C5     C26     1.419   .     A
C6     C78     1.375   .     S
C6     C92     1.546   .     S
C7     C148    1.375   1_455 S
C7     C160    1.539   1_455 S
C8     C11     1.451   .     S
C8     C222    1.332   .     S
C8     F244    1.363   .     S
C9     C10     1.434   .     S
C9     C434    1.332   1_545 S
C9     H471    1.086   1_545 S
C10    O60     1.282   .     A
C10    O66     1.281   .     A
C11    O61     1.272   .     A
C11    O67     1.270   .     A
C12    C17     1.385   .     A
C12    H52     1.083   .     S
C12    C662    1.389   .     S
C13    O56     1.271   .     A
C13    C16     1.447   .     S
C13    O58     1.279   .     A
C14    O59     1.286   .     A
C14    O57     1.282   .     A
C15    H49     1.084   .     S
C15    C667    1.400   1_554 S
C17    H50     1.083   .     S
C18    H39     1.112   .     S
C18    H38     1.112   .     S
C18    C78     1.539   .     S
C18    C90     1.542   .     S
C19    H36     1.112   .     S
C19    H37     1.111   .     S
C19    C160    1.542   1_455 S
C19    C162    1.528   1_455 S
C20    H54     1.111   .     S
C20    H35     1.110   .     S
C20    H53     1.111   .     S
C20    C90     1.528   .     S
C21    C22     1.537   .     S
C21    H46     1.113   .     S
C21    H47     1.112   .     S
C21    C148    1.546   1_455 S
C22    C24     1.529   .     S
C22    H185    1.112   1_455 S
C22    H186    1.111   1_455 S
C23    H51     1.075   .     S
C23    C651    1.389   1_554 S
C23    C664    1.417   1_554 S
C24    H41     1.111   .     S
C24    H42     1.110   .     S
C24    H40     1.111   .     S
C25    C26     1.426   .     A
C25    C662    1.417   .     S
C25    C666    1.427   .     S
C26    C30     1.414   .     A
C27    C664    1.427   1_554 S
C27    C667    1.424   1_554 S
C28    C29     1.390   .     A
C28    C666    1.424   .     S
C28    C654    1.400   .     S
C29    C30     1.383   .     A
C29    H48     1.084   .     S
C30    F33     1.358   .     S
F31    C434    1.363   1_545 S
H43    C93     1.112   .     S
H44    C93     1.111   .     S
H45    C222    1.086   .     S
O55    Zn68    1.965   .     S
O55    Zn69    1.951   .     S
O55    Zn70    1.935   .     S
O55    Zn71    1.931   .     S
O56    Zn69    1.929   .     S
O57    Zn71    1.942   .     S
O58    Zn70    1.937   .     S
O59    Zn68    1.925   .     S
O60    Zn68    1.926   .     S
O61    Zn71    1.929   .     S
O62    Zn69    1.938   .     S
O63    Zn70    1.951   .     S
O64    Zn71    1.948   .     S
O65    Zn68    1.936   .     S
O66    Zn69    1.934   .     S
O67    Zn70    1.927   .     S
C72    O133    1.271   .     A
C72    O135    1.261   .     A
C72    C78     1.440   .     S
C73    F103    1.357   .     S
C73    C98     1.416   .     A
C73    C87     1.396   .     A
C74    C86     1.385   .     A
C74    H105    1.084   .     S
C74    C87     1.395   .     A
C75    O134    1.290   .     A
C75    O136    1.279   .     A
C75    C77     1.481   .     S
C76    C85     1.471   .     S
C76    C88     1.402   .     A
C76    C97     1.419   .     A
C77    C149    1.375   .     S
C77    C163    1.546   .     S
C79    C82     1.451   .     S
C79    C293    1.332   .     S
C79    F315    1.363   .     S
C80    C81     1.434   .     S
C80    C505    1.332   1_545 S
C80    H542    1.086   1_545 S
C81    O131    1.282   .     A
C81    O137    1.281   .     A
C82    O132    1.272   .     A
C82    O138    1.270   .     A
C83    C88     1.385   .     A
C83    H123    1.083   .     S
C83    C733    1.389   .     S
C84    O127    1.271   .     A
C84    C87     1.447   .     S
C84    O129    1.279   .     A
C85    O130    1.286   .     A
C85    O128    1.282   .     A
C86    H120    1.084   .     S
C86    C738    1.400   1_554 S
C88    H121    1.083   .     S
C89    H110    1.112   .     S
C89    H109    1.112   .     S
C89    C149    1.539   .     S
C89    C161    1.542   .     S
C90    H107    1.112   .     S
C90    H108    1.111   .     S
C91    H125    1.111   .     S
C91    H106    1.110   .     S
C91    H124    1.111   .     S
C91    C161    1.528   .     S
C92    C93     1.537   .     S
C92    H117    1.113   .     S
C92    H118    1.112   .     S
C93    C95     1.529   .     S
C94    H122    1.075   .     S
C94    C722    1.389   1_554 S
C94    C735    1.417   1_554 S
C95    H112    1.111   .     S
C95    H113    1.110   .     S
C95    H111    1.111   .     S
C96    C97     1.426   .     A
C96    C733    1.417   .     S
C96    C737    1.427   .     S
C97    C101    1.414   .     A
C98    C735    1.427   1_554 S
C98    C738    1.424   1_554 S
C99    C100    1.390   .     A
C99    C737    1.424   .     S
C99    C725    1.400   .     S
C100   C101    1.383   .     A
C100   H119    1.084   .     S
C101   F104    1.358   .     S
F102   C505    1.363   1_545 S
H114   C164    1.112   .     S
H115   C164    1.111   .     S
H116   C293    1.086   .     S
O126   Zn139   1.965   .     S
O126   Zn140   1.951   .     S
O126   Zn141   1.935   .     S
O126   Zn142   1.931   .     S
O127   Zn140   1.929   .     S
O128   Zn142   1.942   .     S
O129   Zn141   1.937   .     S
O130   Zn139   1.925   .     S
O131   Zn139   1.926   .     S
O132   Zn142   1.929   .     S
O133   Zn140   1.938   .     S
O134   Zn141   1.951   .     S
O135   Zn142   1.948   .     S
O136   Zn139   1.936   .     S
O137   Zn140   1.934   .     S
O138   Zn141   1.927   .     S
C143   O204    1.271   .     A
C143   O206    1.261   .     A
C143   C149    1.440   .     S
C144   F174    1.357   .     S
C144   C169    1.416   .     A
C144   C158    1.396   .     A
C145   C157    1.385   .     A
C145   H176    1.084   .     S
C145   C158    1.395   .     A
C146   O205    1.290   .     A
C146   O207    1.279   .     A
C146   C148    1.481   .     S
C147   C156    1.471   .     S
C147   C159    1.402   .     A
C147   C168    1.419   .     A
C148   C7      1.375   1_655 S
C148   C21     1.546   1_655 S
C150   C153    1.451   .     S
C150   C364    1.332   .     S
C150   F386    1.363   .     S
C151   C152    1.434   .     S
C151   C576    1.332   1_545 S
C151   H613    1.086   1_545 S
C152   O202    1.282   .     A
C152   O208    1.281   .     A
C153   O203    1.272   .     A
C153   O209    1.270   .     A
C154   C159    1.385   .     A
C154   H194    1.083   .     S
C154   C804    1.389   .     S
C155   O198    1.271   .     A
C155   C158    1.447   .     S
C155   O200    1.279   .     A
C156   O201    1.286   .     A
C156   O199    1.282   .     A
C157   H191    1.084   .     S
C157   C809    1.400   1_554 S
C159   H192    1.083   .     S
C160   H181    1.112   .     S
C160   H180    1.112   .     S
C160   C7      1.539   1_655 S
C160   C19     1.542   1_655 S
C161   H178    1.112   .     S
C161   H179    1.111   .     S
C162   H196    1.111   .     S
C162   H177    1.110   .     S
C162   H195    1.111   .     S
C162   C19     1.528   1_655 S
C163   C164    1.537   .     S
C163   H188    1.113   .     S
C163   H189    1.112   .     S
C164   C166    1.529   .     S
C165   H193    1.075   .     S
C165   C793    1.389   1_554 S
C165   C806    1.417   1_554 S
C166   H183    1.111   .     S
C166   H184    1.110   .     S
C166   H182    1.111   .     S
C167   C168    1.426   .     A
C167   C804    1.417   .     S
C167   C808    1.427   .     S
C168   C172    1.414   .     A
C169   C806    1.427   1_554 S
C169   C809    1.424   1_554 S
C170   C171    1.390   .     A
C170   C808    1.424   .     S
C170   C796    1.400   .     S
C171   C172    1.383   .     A
C171   H190    1.084   .     S
C172   F175    1.358   .     S
F173   C576    1.363   1_545 S
H185   C22     1.112   1_655 S
H186   C22     1.111   1_655 S
H187   C364    1.086   .     S
O197   Zn210   1.965   .     S
O197   Zn211   1.951   .     S
O197   Zn212   1.935   .     S
O197   Zn213   1.931   .     S
O198   Zn211   1.929   .     S
O199   Zn213   1.942   .     S
O200   Zn212   1.937   .     S
O201   Zn210   1.925   .     S
O202   Zn210   1.926   .     S
O203   Zn213   1.929   .     S
O204   Zn211   1.938   .     S
O205   Zn212   1.951   .     S
O206   Zn213   1.948   .     S
O207   Zn210   1.936   .     S
O208   Zn211   1.934   .     S
O209   Zn212   1.927   .     S
C214   O275    1.271   .     A
C214   O277    1.261   .     A
C214   C220    1.440   .     S
C215   F245    1.357   .     S
C215   C240    1.416   .     A
C215   C229    1.396   .     A
C216   C228    1.385   .     A
C216   H247    1.084   .     S
C216   C229    1.395   .     A
C217   O276    1.290   .     A
C217   O278    1.279   .     A
C217   C219    1.481   .     S
C218   C227    1.471   .     S
C218   C230    1.402   .     A
C218   C239    1.419   .     A
C219   C291    1.375   .     S
C219   C305    1.546   .     S
C220   C361    1.375   1_455 S
C220   C373    1.539   1_455 S
C221   C224    1.451   .     S
C221   C435    1.332   .     S
C221   F457    1.363   .     S
C222   C223    1.434   .     S
C223   O273    1.282   .     A
C223   O279    1.281   .     A
C224   O274    1.272   .     A
C224   O280    1.270   .     A
C225   C230    1.385   .     A
C225   H265    1.083   .     S
C225   C875    1.389   .     S
C226   O269    1.271   .     A
C226   C229    1.447   .     S
C226   O271    1.279   .     A
C227   O272    1.286   .     A
C227   O270    1.282   .     A
C228   H262    1.084   .     S
C228   C880    1.400   1_554 S
C230   H263    1.083   .     S
C231   H252    1.112   .     S
C231   H251    1.112   .     S
C231   C291    1.539   .     S
C231   C303    1.542   .     S
C232   H249    1.112   .     S
C232   H250    1.111   .     S
C232   C373    1.542   1_455 S
C232   C375    1.528   1_455 S
C233   H267    1.111   .     S
C233   H248    1.110   .     S
C233   H266    1.111   .     S
C233   C303    1.528   .     S
C234   C235    1.537   .     S
C234   H259    1.113   .     S
C234   H260    1.112   .     S
C234   C361    1.546   1_455 S
C235   C237    1.529   .     S
C235   H398    1.112   1_455 S
C235   H399    1.111   1_455 S
C236   H264    1.075   .     S
C236   C864    1.389   1_554 S
C236   C877    1.417   1_554 S
C237   H254    1.111   .     S
C237   H255    1.110   .     S
C237   H253    1.111   .     S
C238   C239    1.426   .     A
C238   C875    1.417   .     S
C238   C879    1.427   .     S
C239   C243    1.414   .     A
C240   C877    1.427   1_554 S
C240   C880    1.424   1_554 S
C241   C242    1.390   .     A
C241   C879    1.424   .     S
C241   C867    1.400   .     S
C242   C243    1.383   .     A
C242   H261    1.084   .     S
C243   F246    1.358   .     S
H256   C306    1.112   .     S
H257   C306    1.111   .     S
H258   C435    1.086   .     S
O268   Zn281   1.965   .     S
O268   Zn282   1.951   .     S
O268   Zn283   1.935   .     S
O268   Zn284   1.931   .     S
O269   Zn282   1.929   .     S
O270   Zn284   1.942   .     S
O271   Zn283   1.937   .     S
O272   Zn281   1.925   .     S
O273   Zn281   1.926   .     S
O274   Zn284   1.929   .     S
O275   Zn282   1.938   .     S
O276   Zn283   1.951   .     S
O277   Zn284   1.948   .     S
O278   Zn281   1.936   .     S
O279   Zn282   1.934   .     S
O280   Zn283   1.927   .     S
C285   O346    1.271   .     A
C285   O348    1.261   .     A
C285   C291    1.440   .     S
C286   F316    1.357   .     S
C286   C311    1.416   .     A
C286   C300    1.396   .     A
C287   C299    1.385   .     A
C287   H318    1.084   .     S
C287   C300    1.395   .     A
C288   O347    1.290   .     A
C288   O349    1.279   .     A
C288   C290    1.481   .     S
C289   C298    1.471   .     S
C289   C301    1.402   .     A
C289   C310    1.419   .     A
C290   C362    1.375   .     S
C290   C376    1.546   .     S
C292   C295    1.451   .     S
C292   C506    1.332   .     S
C292   F528    1.363   .     S
C293   C294    1.434   .     S
C294   O344    1.282   .     A
C294   O350    1.281   .     A
C295   O345    1.272   .     A
C295   O351    1.270   .     A
C296   C301    1.385   .     A
C296   H336    1.083   .     S
C296   C946    1.389   .     S
C297   O340    1.271   .     A
C297   C300    1.447   .     S
C297   O342    1.279   .     A
C298   O343    1.286   .     A
C298   O341    1.282   .     A
C299   H333    1.084   .     S
C299   C951    1.400   1_554 S
C301   H334    1.083   .     S
C302   H323    1.112   .     S
C302   H322    1.112   .     S
C302   C362    1.539   .     S
C302   C374    1.542   .     S
C303   H320    1.112   .     S
C303   H321    1.111   .     S
C304   H338    1.111   .     S
C304   H319    1.110   .     S
C304   H337    1.111   .     S
C304   C374    1.528   .     S
C305   C306    1.537   .     S
C305   H330    1.113   .     S
C305   H331    1.112   .     S
C306   C308    1.529   .     S
C307   H335    1.075   .     S
C307   C935    1.389   1_554 S
C307   C948    1.417   1_554 S
C308   H325    1.111   .     S
C308   H326    1.110   .     S
C308   H324    1.111   .     S
C309   C310    1.426   .     A
C309   C946    1.417   .     S
C309   C950    1.427   .     S
C310   C314    1.414   .     A
C311   C948    1.427   1_554 S
C311   C951    1.424   1_554 S
C312   C313    1.390   .     A
C312   C950    1.424   .     S
C312   C938    1.400   .     S
C313   C314    1.383   .     A
C313   H332    1.084   .     S
C314   F317    1.358   .     S
H327   C377    1.112   .     S
H328   C377    1.111   .     S
H329   C506    1.086   .     S
O339   Zn352   1.965   .     S
O339   Zn353   1.951   .     S
O339   Zn354   1.935   .     S
O339   Zn355   1.931   .     S
O340   Zn353   1.929   .     S
O341   Zn355   1.942   .     S
O342   Zn354   1.937   .     S
O343   Zn352   1.925   .     S
O344   Zn352   1.926   .     S
O345   Zn355   1.929   .     S
O346   Zn353   1.938   .     S
O347   Zn354   1.951   .     S
O348   Zn355   1.948   .     S
O349   Zn352   1.936   .     S
O350   Zn353   1.934   .     S
O351   Zn354   1.927   .     S
C356   O417    1.271   .     A
C356   O419    1.261   .     A
C356   C362    1.440   .     S
C357   F387    1.357   .     S
C357   C382    1.416   .     A
C357   C371    1.396   .     A
C358   C370    1.385   .     A
C358   H389    1.084   .     S
C358   C371    1.395   .     A
C359   O418    1.290   .     A
C359   O420    1.279   .     A
C359   C361    1.481   .     S
C360   C369    1.471   .     S
C360   C372    1.402   .     A
C360   C381    1.419   .     A
C361   C220    1.375   1_655 S
C361   C234    1.546   1_655 S
C363   C366    1.451   .     S
C363   C577    1.332   .     S
C363   F599    1.363   .     S
C364   C365    1.434   .     S
C365   O415    1.282   .     A
C365   O421    1.281   .     A
C366   O416    1.272   .     A
C366   O422    1.270   .     A
C367   C372    1.385   .     A
C367   H407    1.083   .     S
C367   C1017   1.389   .     S
C368   O411    1.271   .     A
C368   C371    1.447   .     S
C368   O413    1.279   .     A
C369   O414    1.286   .     A
C369   O412    1.282   .     A
C370   H404    1.084   .     S
C370   C1022   1.400   1_554 S
C372   H405    1.083   .     S
C373   H394    1.112   .     S
C373   H393    1.112   .     S
C373   C220    1.539   1_655 S
C373   C232    1.542   1_655 S
C374   H391    1.112   .     S
C374   H392    1.111   .     S
C375   H409    1.111   .     S
C375   H390    1.110   .     S
C375   H408    1.111   .     S
C375   C232    1.528   1_655 S
C376   C377    1.537   .     S
C376   H401    1.113   .     S
C376   H402    1.112   .     S
C377   C379    1.529   .     S
C378   H406    1.075   .     S
C378   C1006   1.389   1_554 S
C378   C1019   1.417   1_554 S
C379   H396    1.111   .     S
C379   H397    1.110   .     S
C379   H395    1.111   .     S
C380   C381    1.426   .     A
C380   C1017   1.417   .     S
C380   C1021   1.427   .     S
C381   C385    1.414   .     A
C382   C1019   1.427   1_554 S
C382   C1022   1.424   1_554 S
C383   C384    1.390   .     A
C383   C1021   1.424   .     S
C383   C1009   1.400   .     S
C384   C385    1.383   .     A
C384   H403    1.084   .     S
C385   F388    1.358   .     S
H398   C235    1.112   1_655 S
H399   C235    1.111   1_655 S
H400   C577    1.086   .     S
O410   Zn423   1.965   .     S
O410   Zn424   1.951   .     S
O410   Zn425   1.935   .     S
O410   Zn426   1.931   .     S
O411   Zn424   1.929   .     S
O412   Zn426   1.942   .     S
O413   Zn425   1.937   .     S
O414   Zn423   1.925   .     S
O415   Zn423   1.926   .     S
O416   Zn426   1.929   .     S
O417   Zn424   1.938   .     S
O418   Zn425   1.951   .     S
O419   Zn426   1.948   .     S
O420   Zn423   1.936   .     S
O421   Zn424   1.934   .     S
O422   Zn425   1.927   .     S
C427   O488    1.271   .     A
C427   O490    1.261   .     A
C427   C433    1.440   .     S
C428   F458    1.357   .     S
C428   C453    1.416   .     A
C428   C442    1.396   .     A
C429   C441    1.385   .     A
C429   H460    1.084   .     S
C429   C442    1.395   .     A
C430   O489    1.290   .     A
C430   O491    1.279   .     A
C430   C432    1.481   .     S
C431   C440    1.471   .     S
C431   C443    1.402   .     A
C431   C452    1.419   .     A
C432   C504    1.375   .     S
C432   C518    1.546   .     S
C433   C574    1.375   1_455 S
C433   C586    1.539   1_455 S
C434   C437    1.451   .     S
C434   C9      1.332   1_565 S
C434   F31     1.363   1_565 S
C435   C436    1.434   .     S
C436   O486    1.282   .     A
C436   O492    1.281   .     A
C437   O487    1.272   .     A
C437   O493    1.270   .     A
C438   C443    1.385   .     A
C438   H478    1.083   .     S
C438   C1088   1.389   .     S
C439   O482    1.271   .     A
C439   C442    1.447   .     S
C439   O484    1.279   .     A
C440   O485    1.286   .     A
C440   O483    1.282   .     A
C441   H475    1.084   .     S
C441   C1093   1.400   1_554 S
C443   H476    1.083   .     S
C444   H465    1.112   .     S
C444   H464    1.112   .     S
C444   C504    1.539   .     S
C444   C516    1.542   .     S
C445   H462    1.112   .     S
C445   H463    1.111   .     S
C445   C586    1.542   1_455 S
C445   C588    1.528   1_455 S
C446   H480    1.111   .     S
C446   H461    1.110   .     S
C446   H479    1.111   .     S
C446   C516    1.528   .     S
C447   C448    1.537   .     S
C447   H472    1.113   .     S
C447   H473    1.112   .     S
C447   C574    1.546   1_455 S
C448   C450    1.529   .     S
C448   H611    1.112   1_455 S
C448   H612    1.111   1_455 S
C449   H477    1.075   .     S
C449   C1077   1.389   1_554 S
C449   C1090   1.417   1_554 S
C450   H467    1.111   .     S
C450   H468    1.110   .     S
C450   H466    1.111   .     S
C451   C452    1.426   .     A
C451   C1088   1.417   .     S
C451   C1092   1.427   .     S
C452   C456    1.414   .     A
C453   C1090   1.427   1_554 S
C453   C1093   1.424   1_554 S
C454   C455    1.390   .     A
C454   C1092   1.424   .     S
C454   C1080   1.400   .     S
C455   C456    1.383   .     A
C455   H474    1.084   .     S
C456   F459    1.358   .     S
H469   C519    1.112   .     S
H470   C519    1.111   .     S
H471   C9      1.086   1_565 S
O481   Zn494   1.965   .     S
O481   Zn495   1.951   .     S
O481   Zn496   1.935   .     S
O481   Zn497   1.931   .     S
O482   Zn495   1.929   .     S
O483   Zn497   1.942   .     S
O484   Zn496   1.937   .     S
O485   Zn494   1.925   .     S
O486   Zn494   1.926   .     S
O487   Zn497   1.929   .     S
O488   Zn495   1.938   .     S
O489   Zn496   1.951   .     S
O490   Zn497   1.948   .     S
O491   Zn494   1.936   .     S
O492   Zn495   1.934   .     S
O493   Zn496   1.927   .     S
C498   O559    1.271   .     A
C498   O561    1.261   .     A
C498   C504    1.440   .     S
C499   F529    1.357   .     S
C499   C524    1.416   .     A
C499   C513    1.396   .     A
C500   C512    1.385   .     A
C500   H531    1.084   .     S
C500   C513    1.395   .     A
C501   O560    1.290   .     A
C501   O562    1.279   .     A
C501   C503    1.481   .     S
C502   C511    1.471   .     S
C502   C514    1.402   .     A
C502   C523    1.419   .     A
C503   C575    1.375   .     S
C503   C589    1.546   .     S
C505   C508    1.451   .     S
C505   C80     1.332   1_565 S
C505   F102    1.363   1_565 S
C506   C507    1.434   .     S
C507   O557    1.282   .     A
C507   O563    1.281   .     A
C508   O558    1.272   .     A
C508   O564    1.270   .     A
C509   C514    1.385   .     A
C509   H549    1.083   .     S
C509   C1159   1.389   .     S
C510   O553    1.271   .     A
C510   C513    1.447   .     S
C510   O555    1.279   .     A
C511   O556    1.286   .     A
C511   O554    1.282   .     A
C512   H546    1.084   .     S
C512   C1164   1.400   1_554 S
C514   H547    1.083   .     S
C515   H536    1.112   .     S
C515   H535    1.112   .     S
C515   C575    1.539   .     S
C515   C587    1.542   .     S
C516   H533    1.112   .     S
C516   H534    1.111   .     S
C517   H551    1.111   .     S
C517   H532    1.110   .     S
C517   H550    1.111   .     S
C517   C587    1.528   .     S
C518   C519    1.537   .     S
C518   H543    1.113   .     S
C518   H544    1.112   .     S
C519   C521    1.529   .     S
C520   H548    1.075   .     S
C520   C1148   1.389   1_554 S
C520   C1161   1.417   1_554 S
C521   H538    1.111   .     S
C521   H539    1.110   .     S
C521   H537    1.111   .     S
C522   C523    1.426   .     A
C522   C1159   1.417   .     S
C522   C1163   1.427   .     S
C523   C527    1.414   .     A
C524   C1161   1.427   1_554 S
C524   C1164   1.424   1_554 S
C525   C526    1.390   .     A
C525   C1163   1.424   .     S
C525   C1151   1.400   .     S
C526   C527    1.383   .     A
C526   H545    1.084   .     S
C527   F530    1.358   .     S
H540   C590    1.112   .     S
H541   C590    1.111   .     S
H542   C80     1.086   1_565 S
O552   Zn565   1.965   .     S
O552   Zn566   1.951   .     S
O552   Zn567   1.935   .     S
O552   Zn568   1.931   .     S
O553   Zn566   1.929   .     S
O554   Zn568   1.942   .     S
O555   Zn567   1.937   .     S
O556   Zn565   1.925   .     S
O557   Zn565   1.926   .     S
O558   Zn568   1.929   .     S
O559   Zn566   1.938   .     S
O560   Zn567   1.951   .     S
O561   Zn568   1.948   .     S
O562   Zn565   1.936   .     S
O563   Zn566   1.934   .     S
O564   Zn567   1.927   .     S
C569   O630    1.271   .     A
C569   O632    1.261   .     A
C569   C575    1.440   .     S
C570   F600    1.357   .     S
C570   C595    1.416   .     A
C570   C584    1.396   .     A
C571   C583    1.385   .     A
C571   H602    1.084   .     S
C571   C584    1.395   .     A
C572   O631    1.290   .     A
C572   O633    1.279   .     A
C572   C574    1.481   .     S
C573   C582    1.471   .     S
C573   C585    1.402   .     A
C573   C594    1.419   .     A
C574   C433    1.375   1_655 S
C574   C447    1.546   1_655 S
C576   C579    1.451   .     S
C576   C151    1.332   1_565 S
C576   F173    1.363   1_565 S
C577   C578    1.434   .     S
C578   O628    1.282   .     A
C578   O634    1.281   .     A
C579   O629    1.272   .     A
C579   O635    1.270   .     A
C580   C585    1.385   .     A
C580   H620    1.083   .     S
C580   C1230   1.389   .     S
C581   O624    1.271   .     A
C581   C584    1.447   .     S
C581   O626    1.279   .     A
C582   O627    1.286   .     A
C582   O625    1.282   .     A
C583   H617    1.084   .     S
C583   C1235   1.400   1_554 S
C585   H618    1.083   .     S
C586   H607    1.112   .     S
C586   H606    1.112   .     S
C586   C433    1.539   1_655 S
C586   C445    1.542   1_655 S
C587   H604    1.112   .     S
C587   H605    1.111   .     S
C588   H622    1.111   .     S
C588   H603    1.110   .     S
C588   H621    1.111   .     S
C588   C445    1.528   1_655 S
C589   C590    1.537   .     S
C589   H614    1.113   .     S
C589   H615    1.112   .     S
C590   C592    1.529   .     S
C591   H619    1.075   .     S
C591   C1219   1.389   1_554 S
C591   C1232   1.417   1_554 S
C592   H609    1.111   .     S
C592   H610    1.110   .     S
C592   H608    1.111   .     S
C593   C594    1.426   .     A
C593   C1230   1.417   .     S
C593   C1234   1.427   .     S
C594   C598    1.414   .     A
C595   C1232   1.427   1_554 S
C595   C1235   1.424   1_554 S
C596   C597    1.390   .     A
C596   C1234   1.424   .     S
C596   C1222   1.400   .     S
C597   C598    1.383   .     A
C597   H616    1.084   .     S
C598   F601    1.358   .     S
H611   C448    1.112   1_655 S
H612   C448    1.111   1_655 S
H613   C151    1.086   1_565 S
O623   Zn636   1.965   .     S
O623   Zn637   1.951   .     S
O623   Zn638   1.935   .     S
O623   Zn639   1.931   .     S
O624   Zn637   1.929   .     S
O625   Zn639   1.942   .     S
O626   Zn638   1.937   .     S
O627   Zn636   1.925   .     S
O628   Zn636   1.926   .     S
O629   Zn639   1.929   .     S
O630   Zn637   1.938   .     S
O631   Zn638   1.951   .     S
O632   Zn639   1.948   .     S
O633   Zn636   1.936   .     S
O634   Zn637   1.934   .     S
O635   Zn638   1.927   .     S
C640   O701    1.271   .     A
C640   O703    1.261   .     A
C640   C646    1.440   .     S
C641   F671    1.357   .     S
C641   C666    1.416   .     A
C641   C655    1.396   .     A
C642   C654    1.385   .     A
C642   H673    1.084   .     S
C642   C655    1.395   .     A
C643   O702    1.290   .     A
C643   O704    1.279   .     A
C643   C645    1.481   .     S
C644   C653    1.471   .     S
C644   C656    1.402   .     A
C644   C665    1.419   .     A
C645   C717    1.375   .     S
C645   C731    1.546   .     S
C646   C787    1.375   1_455 S
C646   C799    1.539   1_455 S
C647   C650    1.451   .     S
C647   C861    1.332   .     S
C647   F883    1.363   .     S
C648   C649    1.434   .     S
C648   C1073   1.332   1_545 S
C648   H1110   1.086   1_545 S
C649   O699    1.282   .     A
C649   O705    1.281   .     A
C650   O700    1.272   .     A
C650   O706    1.270   .     A
C651   C656    1.385   .     A
C651   H691    1.083   .     S
C651   C23     1.389   1_556 S
C652   O695    1.271   .     A
C652   C655    1.447   .     S
C652   O697    1.279   .     A
C653   O698    1.286   .     A
C653   O696    1.282   .     A
C654   H688    1.084   .     S
C656   H689    1.083   .     S
C657   H678    1.112   .     S
C657   H677    1.112   .     S
C657   C717    1.539   .     S
C657   C729    1.542   .     S
C658   H675    1.112   .     S
C658   H676    1.111   .     S
C658   C799    1.542   1_455 S
C658   C801    1.528   1_455 S
C659   H693    1.111   .     S
C659   H674    1.110   .     S
C659   H692    1.111   .     S
C659   C729    1.528   .     S
C660   C661    1.537   .     S
C660   H685    1.113   .     S
C660   H686    1.112   .     S
C660   C787    1.546   1_455 S
C661   C663    1.529   .     S
C661   H824    1.112   1_455 S
C661   H825    1.111   1_455 S
C662   H690    1.075   .     S
C663   H680    1.111   .     S
C663   H681    1.110   .     S
C663   H679    1.111   .     S
C664   C665    1.426   .     A
C664   C23     1.417   1_556 S
C664   C27     1.427   1_556 S
C665   C669    1.414   .     A
C667   C668    1.390   .     A
C667   C27     1.424   1_556 S
C667   C15     1.400   1_556 S
C668   C669    1.383   .     A
C668   H687    1.084   .     S
C669   F672    1.358   .     S
F670   C1073   1.363   1_545 S
H682   C732    1.112   .     S
H683   C732    1.111   .     S
H684   C861    1.086   .     S
O694   Zn707   1.965   .     S
O694   Zn708   1.951   .     S
O694   Zn709   1.935   .     S
O694   Zn710   1.931   .     S
O695   Zn708   1.929   .     S
O696   Zn710   1.942   .     S
O697   Zn709   1.937   .     S
O698   Zn707   1.925   .     S
O699   Zn707   1.926   .     S
O700   Zn710   1.929   .     S
O701   Zn708   1.938   .     S
O702   Zn709   1.951   .     S
O703   Zn710   1.948   .     S
O704   Zn707   1.936   .     S
O705   Zn708   1.934   .     S
O706   Zn709   1.927   .     S
C711   O772    1.271   .     A
C711   O774    1.261   .     A
C711   C717    1.440   .     S
C712   F742    1.357   .     S
C712   C737    1.416   .     A
C712   C726    1.396   .     A
C713   C725    1.385   .     A
C713   H744    1.084   .     S
C713   C726    1.395   .     A
C714   O773    1.290   .     A
C714   O775    1.279   .     A
C714   C716    1.481   .     S
C715   C724    1.471   .     S
C715   C727    1.402   .     A
C715   C736    1.419   .     A
C716   C788    1.375   .     S
C716   C802    1.546   .     S
C718   C721    1.451   .     S
C718   C932    1.332   .     S
C718   F954    1.363   .     S
C719   C720    1.434   .     S
C719   C1144   1.332   1_545 S
C719   H1181   1.086   1_545 S
C720   O770    1.282   .     A
C720   O776    1.281   .     A
C721   O771    1.272   .     A
C721   O777    1.270   .     A
C722   C727    1.385   .     A
C722   H762    1.083   .     S
C722   C94     1.389   1_556 S
C723   O766    1.271   .     A
C723   C726    1.447   .     S
C723   O768    1.279   .     A
C724   O769    1.286   .     A
C724   O767    1.282   .     A
C725   H759    1.084   .     S
C727   H760    1.083   .     S
C728   H749    1.112   .     S
C728   H748    1.112   .     S
C728   C788    1.539   .     S
C728   C800    1.542   .     S
C729   H746    1.112   .     S
C729   H747    1.111   .     S
C730   H764    1.111   .     S
C730   H745    1.110   .     S
C730   H763    1.111   .     S
C730   C800    1.528   .     S
C731   C732    1.537   .     S
C731   H756    1.113   .     S
C731   H757    1.112   .     S
C732   C734    1.529   .     S
C733   H761    1.075   .     S
C734   H751    1.111   .     S
C734   H752    1.110   .     S
C734   H750    1.111   .     S
C735   C736    1.426   .     A
C735   C94     1.417   1_556 S
C735   C98     1.427   1_556 S
C736   C740    1.414   .     A
C738   C739    1.390   .     A
C738   C98     1.424   1_556 S
C738   C86     1.400   1_556 S
C739   C740    1.383   .     A
C739   H758    1.084   .     S
C740   F743    1.358   .     S
F741   C1144   1.363   1_545 S
H753   C803    1.112   .     S
H754   C803    1.111   .     S
H755   C932    1.086   .     S
O765   Zn778   1.965   .     S
O765   Zn779   1.951   .     S
O765   Zn780   1.935   .     S
O765   Zn781   1.931   .     S
O766   Zn779   1.929   .     S
O767   Zn781   1.942   .     S
O768   Zn780   1.937   .     S
O769   Zn778   1.925   .     S
O770   Zn778   1.926   .     S
O771   Zn781   1.929   .     S
O772   Zn779   1.938   .     S
O773   Zn780   1.951   .     S
O774   Zn781   1.948   .     S
O775   Zn778   1.936   .     S
O776   Zn779   1.934   .     S
O777   Zn780   1.927   .     S
C782   O843    1.271   .     A
C782   O845    1.261   .     A
C782   C788    1.440   .     S
C783   F813    1.357   .     S
C783   C808    1.416   .     A
C783   C797    1.396   .     A
C784   C796    1.385   .     A
C784   H815    1.084   .     S
C784   C797    1.395   .     A
C785   O844    1.290   .     A
C785   O846    1.279   .     A
C785   C787    1.481   .     S
C786   C795    1.471   .     S
C786   C798    1.402   .     A
C786   C807    1.419   .     A
C787   C646    1.375   1_655 S
C787   C660    1.546   1_655 S
C789   C792    1.451   .     S
C789   C1003   1.332   .     S
C789   F1025   1.363   .     S
C790   C791    1.434   .     S
C790   C1215   1.332   1_545 S
C790   H1252   1.086   1_545 S
C791   O841    1.282   .     A
C791   O847    1.281   .     A
C792   O842    1.272   .     A
C792   O848    1.270   .     A
C793   C798    1.385   .     A
C793   H833    1.083   .     S
C793   C165    1.389   1_556 S
C794   O837    1.271   .     A
C794   C797    1.447   .     S
C794   O839    1.279   .     A
C795   O840    1.286   .     A
C795   O838    1.282   .     A
C796   H830    1.084   .     S
C798   H831    1.083   .     S
C799   H820    1.112   .     S
C799   H819    1.112   .     S
C799   C646    1.539   1_655 S
C799   C658    1.542   1_655 S
C800   H817    1.112   .     S
C800   H818    1.111   .     S
C801   H835    1.111   .     S
C801   H816    1.110   .     S
C801   H834    1.111   .     S
C801   C658    1.528   1_655 S
C802   C803    1.537   .     S
C802   H827    1.113   .     S
C802   H828    1.112   .     S
C803   C805    1.529   .     S
C804   H832    1.075   .     S
C805   H822    1.111   .     S
C805   H823    1.110   .     S
C805   H821    1.111   .     S
C806   C807    1.426   .     A
C806   C165    1.417   1_556 S
C806   C169    1.427   1_556 S
C807   C811    1.414   .     A
C809   C810    1.390   .     A
C809   C169    1.424   1_556 S
C809   C157    1.400   1_556 S
C810   C811    1.383   .     A
C810   H829    1.084   .     S
C811   F814    1.358   .     S
F812   C1215   1.363   1_545 S
H824   C661    1.112   1_655 S
H825   C661    1.111   1_655 S
H826   C1003   1.086   .     S
O836   Zn849   1.965   .     S
O836   Zn850   1.951   .     S
O836   Zn851   1.935   .     S
O836   Zn852   1.931   .     S
O837   Zn850   1.929   .     S
O838   Zn852   1.942   .     S
O839   Zn851   1.937   .     S
O840   Zn849   1.925   .     S
O841   Zn849   1.926   .     S
O842   Zn852   1.929   .     S
O843   Zn850   1.938   .     S
O844   Zn851   1.951   .     S
O845   Zn852   1.948   .     S
O846   Zn849   1.936   .     S
O847   Zn850   1.934   .     S
O848   Zn851   1.927   .     S
C853   O914    1.271   .     A
C853   O916    1.261   .     A
C853   C859    1.440   .     S
C854   F884    1.357   .     S
C854   C879    1.416   .     A
C854   C868    1.396   .     A
C855   C867    1.385   .     A
C855   H886    1.084   .     S
C855   C868    1.395   .     A
C856   O915    1.290   .     A
C856   O917    1.279   .     A
C856   C858    1.481   .     S
C857   C866    1.471   .     S
C857   C869    1.402   .     A
C857   C878    1.419   .     A
C858   C930    1.375   .     S
C858   C944    1.546   .     S
C859   C1000   1.375   1_455 S
C859   C1012   1.539   1_455 S
C860   C863    1.451   .     S
C860   C1074   1.332   .     S
C860   F1096   1.363   .     S
C861   C862    1.434   .     S
C862   O912    1.282   .     A
C862   O918    1.281   .     A
C863   O913    1.272   .     A
C863   O919    1.270   .     A
C864   C869    1.385   .     A
C864   H904    1.083   .     S
C864   C236    1.389   1_556 S
C865   O908    1.271   .     A
C865   C868    1.447   .     S
C865   O910    1.279   .     A
C866   O911    1.286   .     A
C866   O909    1.282   .     A
C867   H901    1.084   .     S
C869   H902    1.083   .     S
C870   H891    1.112   .     S
C870   H890    1.112   .     S
C870   C930    1.539   .     S
C870   C942    1.542   .     S
C871   H888    1.112   .     S
C871   H889    1.111   .     S
C871   C1012   1.542   1_455 S
C871   C1014   1.528   1_455 S
C872   H906    1.111   .     S
C872   H887    1.110   .     S
C872   H905    1.111   .     S
C872   C942    1.528   .     S
C873   C874    1.537   .     S
C873   H898    1.113   .     S
C873   H899    1.112   .     S
C873   C1000   1.546   1_455 S
C874   C876    1.529   .     S
C874   H1037   1.112   1_455 S
C874   H1038   1.111   1_455 S
C875   H903    1.075   .     S
C876   H893    1.111   .     S
C876   H894    1.110   .     S
C876   H892    1.111   .     S
C877   C878    1.426   .     A
C877   C236    1.417   1_556 S
C877   C240    1.427   1_556 S
C878   C882    1.414   .     A
C880   C881    1.390   .     A
C880   C240    1.424   1_556 S
C880   C228    1.400   1_556 S
C881   C882    1.383   .     A
C881   H900    1.084   .     S
C882   F885    1.358   .     S
H895   C945    1.112   .     S
H896   C945    1.111   .     S
H897   C1074   1.086   .     S
O907   Zn920   1.965   .     S
O907   Zn921   1.951   .     S
O907   Zn922   1.935   .     S
O907   Zn923   1.931   .     S
O908   Zn921   1.929   .     S
O909   Zn923   1.942   .     S
O910   Zn922   1.937   .     S
O911   Zn920   1.925   .     S
O912   Zn920   1.926   .     S
O913   Zn923   1.929   .     S
O914   Zn921   1.938   .     S
O915   Zn922   1.951   .     S
O916   Zn923   1.948   .     S
O917   Zn920   1.936   .     S
O918   Zn921   1.934   .     S
O919   Zn922   1.927   .     S
C924   O985    1.271   .     A
C924   O987    1.261   .     A
C924   C930    1.440   .     S
C925   F955    1.357   .     S
C925   C950    1.416   .     A
C925   C939    1.396   .     A
C926   C938    1.385   .     A
C926   H957    1.084   .     S
C926   C939    1.395   .     A
C927   O986    1.290   .     A
C927   O988    1.279   .     A
C927   C929    1.481   .     S
C928   C937    1.471   .     S
C928   C940    1.402   .     A
C928   C949    1.419   .     A
C929   C1001   1.375   .     S
C929   C1015   1.546   .     S
C931   C934    1.451   .     S
C931   C1145   1.332   .     S
C931   F1167   1.363   .     S
C932   C933    1.434   .     S
C933   O983    1.282   .     A
C933   O989    1.281   .     A
C934   O984    1.272   .     A
C934   O990    1.270   .     A
C935   C940    1.385   .     A
C935   H975    1.083   .     S
C935   C307    1.389   1_556 S
C936   O979    1.271   .     A
C936   C939    1.447   .     S
C936   O981    1.279   .     A
C937   O982    1.286   .     A
C937   O980    1.282   .     A
C938   H972    1.084   .     S
C940   H973    1.083   .     S
C941   H962    1.112   .     S
C941   H961    1.112   .     S
C941   C1001   1.539   .     S
C941   C1013   1.542   .     S
C942   H959    1.112   .     S
C942   H960    1.111   .     S
C943   H977    1.111   .     S
C943   H958    1.110   .     S
C943   H976    1.111   .     S
C943   C1013   1.528   .     S
C944   C945    1.537   .     S
C944   H969    1.113   .     S
C944   H970    1.112   .     S
C945   C947    1.529   .     S
C946   H974    1.075   .     S
C947   H964    1.111   .     S
C947   H965    1.110   .     S
C947   H963    1.111   .     S
C948   C949    1.426   .     A
C948   C307    1.417   1_556 S
C948   C311    1.427   1_556 S
C949   C953    1.414   .     A
C951   C952    1.390   .     A
C951   C311    1.424   1_556 S
C951   C299    1.400   1_556 S
C952   C953    1.383   .     A
C952   H971    1.084   .     S
C953   F956    1.358   .     S
H966   C1016   1.112   .     S
H967   C1016   1.111   .     S
H968   C1145   1.086   .     S
O978   Zn991   1.965   .     S
O978   Zn992   1.951   .     S
O978   Zn993   1.935   .     S
O978   Zn994   1.931   .     S
O979   Zn992   1.929   .     S
O980   Zn994   1.942   .     S
O981   Zn993   1.937   .     S
O982   Zn991   1.925   .     S
O983   Zn991   1.926   .     S
O984   Zn994   1.929   .     S
O985   Zn992   1.938   .     S
O986   Zn993   1.951   .     S
O987   Zn994   1.948   .     S
O988   Zn991   1.936   .     S
O989   Zn992   1.934   .     S
O990   Zn993   1.927   .     S
C995   O1056   1.271   .     A
C995   O1058   1.261   .     A
C995   C1001   1.440   .     S
C996   F1026   1.357   .     S
C996   C1021   1.416   .     A
C996   C1010   1.396   .     A
C997   C1009   1.385   .     A
C997   H1028   1.084   .     S
C997   C1010   1.395   .     A
C998   O1057   1.290   .     A
C998   O1059   1.279   .     A
C998   C1000   1.481   .     S
C999   C1008   1.471   .     S
C999   C1011   1.402   .     A
C999   C1020   1.419   .     A
C1000  C859    1.375   1_655 S
C1000  C873    1.546   1_655 S
C1002  C1005   1.451   .     S
C1002  C1216   1.332   .     S
C1002  F1238   1.363   .     S
C1003  C1004   1.434   .     S
C1004  O1054   1.282   .     A
C1004  O1060   1.281   .     A
C1005  O1055   1.272   .     A
C1005  O1061   1.270   .     A
C1006  C1011   1.385   .     A
C1006  H1046   1.083   .     S
C1006  C378    1.389   1_556 S
C1007  O1050   1.271   .     A
C1007  C1010   1.447   .     S
C1007  O1052   1.279   .     A
C1008  O1053   1.286   .     A
C1008  O1051   1.282   .     A
C1009  H1043   1.084   .     S
C1011  H1044   1.083   .     S
C1012  H1033   1.112   .     S
C1012  H1032   1.112   .     S
C1012  C859    1.539   1_655 S
C1012  C871    1.542   1_655 S
C1013  H1030   1.112   .     S
C1013  H1031   1.111   .     S
C1014  H1048   1.111   .     S
C1014  H1029   1.110   .     S
C1014  H1047   1.111   .     S
C1014  C871    1.528   1_655 S
C1015  C1016   1.537   .     S
C1015  H1040   1.113   .     S
C1015  H1041   1.112   .     S
C1016  C1018   1.529   .     S
C1017  H1045   1.075   .     S
C1018  H1035   1.111   .     S
C1018  H1036   1.110   .     S
C1018  H1034   1.111   .     S
C1019  C1020   1.426   .     A
C1019  C378    1.417   1_556 S
C1019  C382    1.427   1_556 S
C1020  C1024   1.414   .     A
C1022  C1023   1.390   .     A
C1022  C382    1.424   1_556 S
C1022  C370    1.400   1_556 S
C1023  C1024   1.383   .     A
C1023  H1042   1.084   .     S
C1024  F1027   1.358   .     S
H1037  C874    1.112   1_655 S
H1038  C874    1.111   1_655 S
H1039  C1216   1.086   .     S
O1049  Zn1062  1.965   .     S
O1049  Zn1063  1.951   .     S
O1049  Zn1064  1.935   .     S
O1049  Zn1065  1.931   .     S
O1050  Zn1063  1.929   .     S
O1051  Zn1065  1.942   .     S
O1052  Zn1064  1.937   .     S
O1053  Zn1062  1.925   .     S
O1054  Zn1062  1.926   .     S
O1055  Zn1065  1.929   .     S
O1056  Zn1063  1.938   .     S
O1057  Zn1064  1.951   .     S
O1058  Zn1065  1.948   .     S
O1059  Zn1062  1.936   .     S
O1060  Zn1063  1.934   .     S
O1061  Zn1064  1.927   .     S
C1066  O1127   1.271   .     A
C1066  O1129   1.261   .     A
C1066  C1072   1.440   .     S
C1067  F1097   1.357   .     S
C1067  C1092   1.416   .     A
C1067  C1081   1.396   .     A
C1068  C1080   1.385   .     A
C1068  H1099   1.084   .     S
C1068  C1081   1.395   .     A
C1069  O1128   1.290   .     A
C1069  O1130   1.279   .     A
C1069  C1071   1.481   .     S
C1070  C1079   1.471   .     S
C1070  C1082   1.402   .     A
C1070  C1091   1.419   .     A
C1071  C1143   1.375   .     S
C1071  C1157   1.546   .     S
C1072  C1213   1.375   1_455 S
C1072  C1225   1.539   1_455 S
C1073  C1076   1.451   .     S
C1073  C648    1.332   1_565 S
C1073  F670    1.363   1_565 S
C1074  C1075   1.434   .     S
C1075  O1125   1.282   .     A
C1075  O1131   1.281   .     A
C1076  O1126   1.272   .     A
C1076  O1132   1.270   .     A
C1077  C1082   1.385   .     A
C1077  H1117   1.083   .     S
C1077  C449    1.389   1_556 S
C1078  O1121   1.271   .     A
C1078  C1081   1.447   .     S
C1078  O1123   1.279   .     A
C1079  O1124   1.286   .     A
C1079  O1122   1.282   .     A
C1080  H1114   1.084   .     S
C1082  H1115   1.083   .     S
C1083  H1104   1.112   .     S
C1083  H1103   1.112   .     S
C1083  C1143   1.539   .     S
C1083  C1155   1.542   .     S
C1084  H1101   1.112   .     S
C1084  H1102   1.111   .     S
C1084  C1225   1.542   1_455 S
C1084  C1227   1.528   1_455 S
C1085  H1119   1.111   .     S
C1085  H1100   1.110   .     S
C1085  H1118   1.111   .     S
C1085  C1155   1.528   .     S
C1086  C1087   1.537   .     S
C1086  H1111   1.113   .     S
C1086  H1112   1.112   .     S
C1086  C1213   1.546   1_455 S
C1087  C1089   1.529   .     S
C1087  H1250   1.112   1_455 S
C1087  H1251   1.111   1_455 S
C1088  H1116   1.075   .     S
C1089  H1106   1.111   .     S
C1089  H1107   1.110   .     S
C1089  H1105   1.111   .     S
C1090  C1091   1.426   .     A
C1090  C449    1.417   1_556 S
C1090  C453    1.427   1_556 S
C1091  C1095   1.414   .     A
C1093  C1094   1.390   .     A
C1093  C453    1.424   1_556 S
C1093  C441    1.400   1_556 S
C1094  C1095   1.383   .     A
C1094  H1113   1.084   .     S
C1095  F1098   1.358   .     S
H1108  C1158   1.112   .     S
H1109  C1158   1.111   .     S
H1110  C648    1.086   1_565 S
O1120  Zn1133  1.965   .     S
O1120  Zn1134  1.951   .     S
O1120  Zn1135  1.935   .     S
O1120  Zn1136  1.931   .     S
O1121  Zn1134  1.929   .     S
O1122  Zn1136  1.942   .     S
O1123  Zn1135  1.937   .     S
O1124  Zn1133  1.925   .     S
O1125  Zn1133  1.926   .     S
O1126  Zn1136  1.929   .     S
O1127  Zn1134  1.938   .     S
O1128  Zn1135  1.951   .     S
O1129  Zn1136  1.948   .     S
O1130  Zn1133  1.936   .     S
O1131  Zn1134  1.934   .     S
O1132  Zn1135  1.927   .     S
C1137  O1198   1.271   .     A
C1137  O1200   1.261   .     A
C1137  C1143   1.440   .     S
C1138  F1168   1.357   .     S
C1138  C1163   1.416   .     A
C1138  C1152   1.396   .     A
C1139  C1151   1.385   .     A
C1139  H1170   1.084   .     S
C1139  C1152   1.395   .     A
C1140  O1199   1.290   .     A
C1140  O1201   1.279   .     A
C1140  C1142   1.481   .     S
C1141  C1150   1.471   .     S
C1141  C1153   1.402   .     A
C1141  C1162   1.419   .     A
C1142  C1214   1.375   .     S
C1142  C1228   1.546   .     S
C1144  C1147   1.451   .     S
C1144  C719    1.332   1_565 S
C1144  F741    1.363   1_565 S
C1145  C1146   1.434   .     S
C1146  O1196   1.282   .     A
C1146  O1202   1.281   .     A
C1147  O1197   1.272   .     A
C1147  O1203   1.270   .     A
C1148  C1153   1.385   .     A
C1148  H1188   1.083   .     S
C1148  C520    1.389   1_556 S
C1149  O1192   1.271   .     A
C1149  C1152   1.447   .     S
C1149  O1194   1.279   .     A
C1150  O1195   1.286   .     A
C1150  O1193   1.282   .     A
C1151  H1185   1.084   .     S
C1153  H1186   1.083   .     S
C1154  H1175   1.112   .     S
C1154  H1174   1.112   .     S
C1154  C1214   1.539   .     S
C1154  C1226   1.542   .     S
C1155  H1172   1.112   .     S
C1155  H1173   1.111   .     S
C1156  H1190   1.111   .     S
C1156  H1171   1.110   .     S
C1156  H1189   1.111   .     S
C1156  C1226   1.528   .     S
C1157  C1158   1.537   .     S
C1157  H1182   1.113   .     S
C1157  H1183   1.112   .     S
C1158  C1160   1.529   .     S
C1159  H1187   1.075   .     S
C1160  H1177   1.111   .     S
C1160  H1178   1.110   .     S
C1160  H1176   1.111   .     S
C1161  C1162   1.426   .     A
C1161  C520    1.417   1_556 S
C1161  C524    1.427   1_556 S
C1162  C1166   1.414   .     A
C1164  C1165   1.390   .     A
C1164  C524    1.424   1_556 S
C1164  C512    1.400   1_556 S
C1165  C1166   1.383   .     A
C1165  H1184   1.084   .     S
C1166  F1169   1.358   .     S
H1179  C1229   1.112   .     S
H1180  C1229   1.111   .     S
H1181  C719    1.086   1_565 S
O1191  Zn1204  1.965   .     S
O1191  Zn1205  1.951   .     S
O1191  Zn1206  1.935   .     S
O1191  Zn1207  1.931   .     S
O1192  Zn1205  1.929   .     S
O1193  Zn1207  1.942   .     S
O1194  Zn1206  1.937   .     S
O1195  Zn1204  1.925   .     S
O1196  Zn1204  1.926   .     S
O1197  Zn1207  1.929   .     S
O1198  Zn1205  1.938   .     S
O1199  Zn1206  1.951   .     S
O1200  Zn1207  1.948   .     S
O1201  Zn1204  1.936   .     S
O1202  Zn1205  1.934   .     S
O1203  Zn1206  1.927   .     S
C1208  O1269   1.271   .     A
C1208  O1271   1.261   .     A
C1208  C1214   1.440   .     S
C1209  F1239   1.357   .     S
C1209  C1234   1.416   .     A
C1209  C1223   1.396   .     A
C1210  C1222   1.385   .     A
C1210  H1241   1.084   .     S
C1210  C1223   1.395   .     A
C1211  O1270   1.290   .     A
C1211  O1272   1.279   .     A
C1211  C1213   1.481   .     S
C1212  C1221   1.471   .     S
C1212  C1224   1.402   .     A
C1212  C1233   1.419   .     A
C1213  C1072   1.375   1_655 S
C1213  C1086   1.546   1_655 S
C1215  C1218   1.451   .     S
C1215  C790    1.332   1_565 S
C1215  F812    1.363   1_565 S
C1216  C1217   1.434   .     S
C1217  O1267   1.282   .     A
C1217  O1273   1.281   .     A
C1218  O1268   1.272   .     A
C1218  O1274   1.270   .     A
C1219  C1224   1.385   .     A
C1219  H1259   1.083   .     S
C1219  C591    1.389   1_556 S
C1220  O1263   1.271   .     A
C1220  C1223   1.447   .     S
C1220  O1265   1.279   .     A
C1221  O1266   1.286   .     A
C1221  O1264   1.282   .     A
C1222  H1256   1.084   .     S
C1224  H1257   1.083   .     S
C1225  H1246   1.112   .     S
C1225  H1245   1.112   .     S
C1225  C1072   1.539   1_655 S
C1225  C1084   1.542   1_655 S
C1226  H1243   1.112   .     S
C1226  H1244   1.111   .     S
C1227  H1261   1.111   .     S
C1227  H1242   1.110   .     S
C1227  H1260   1.111   .     S
C1227  C1084   1.528   1_655 S
C1228  C1229   1.537   .     S
C1228  H1253   1.113   .     S
C1228  H1254   1.112   .     S
C1229  C1231   1.529   .     S
C1230  H1258   1.075   .     S
C1231  H1248   1.111   .     S
C1231  H1249   1.110   .     S
C1231  H1247   1.111   .     S
C1232  C1233   1.426   .     A
C1232  C591    1.417   1_556 S
C1232  C595    1.427   1_556 S
C1233  C1237   1.414   .     A
C1235  C1236   1.390   .     A
C1235  C595    1.424   1_556 S
C1235  C583    1.400   1_556 S
C1236  C1237   1.383   .     A
C1236  H1255   1.084   .     S
C1237  F1240   1.358   .     S
H1250  C1087   1.112   1_655 S
H1251  C1087   1.111   1_655 S
H1252  C790    1.086   1_565 S
O1262  Zn1275  1.965   .     S
O1262  Zn1276  1.951   .     S
O1262  Zn1277  1.935   .     S
O1262  Zn1278  1.931   .     S
O1263  Zn1276  1.929   .     S
O1264  Zn1278  1.942   .     S
O1265  Zn1277  1.937   .     S
O1266  Zn1275  1.925   .     S
O1267  Zn1275  1.926   .     S
O1268  Zn1278  1.929   .     S
O1269  Zn1276  1.938   .     S
O1270  Zn1277  1.951   .     S
O1271  Zn1278  1.948   .     S
O1272  Zn1275  1.936   .     S
O1273  Zn1276  1.934   .     S
O1274  Zn1277  1.927   .     S
