data_str_m1_o10_o16_pcu_sym.230
_audit_creation_date              2020-01-03
_audit_creation_method            'Materials Studio'
_symmetry_space_group_name_H-M    'P1'
_symmetry_Int_Tables_number       1
_symmetry_cell_setting            triclinic
loop_
_symmetry_equiv_pos_as_xyz
  x,y,z
_cell_length_a                    32.5365
_cell_length_b                    32.5182
_cell_length_c                    31.1855
_cell_angle_alpha                 96.8107
_cell_angle_beta                  74.7856
_cell_angle_gamma                 98.6453
loop_
_atom_site_label
_atom_site_type_symbol
_atom_site_fract_x
_atom_site_fract_y
_atom_site_fract_z
_atom_site_U_iso_or_equiv
_atom_site_adp_type
_atom_site_occupancy
C1     C     0.05273   0.15967   0.25991   0.00000  Uiso   1.00
C2     C     0.17502   0.16837   0.05931   0.00000  Uiso   1.00
C3     C     0.20068   0.10207   0.06099   0.00000  Uiso   1.00
C4     C     0.28073   0.17380   0.24000   0.00000  Uiso   1.00
C5     C     0.14474   0.19614   0.41839   0.00000  Uiso   1.00
C6     C     0.32663   0.17648   0.23591   0.00000  Uiso   1.00
C7     C     0.00744   0.15720   0.26373   0.00000  Uiso   1.00
C8     C     0.18034   0.32245   0.23660   0.00000  Uiso   1.00
C9     C     0.15162   0.01173   0.26367   0.00000  Uiso   1.00
C10    C     0.15604   0.05587   0.26014   0.00000  Uiso   1.00
C11    C     0.17652   0.27788   0.24020   0.00000  Uiso   1.00
C12    C     0.15717   0.25487   0.47066   0.00000  Uiso   1.00
C13    C     0.18528   0.14781   0.12952   0.00000  Uiso   1.00
C14    C     0.14817   0.18439   0.37080   0.00000  Uiso   1.00
C15    C     0.19361   0.08892   0.01935   0.00000  Uiso   1.00
C16    C     0.18990   0.14081   0.08169   0.00000  Uiso   1.00
C17    C     0.14483   0.23879   0.43220   0.00000  Uiso   1.00
C18    C     0.15400   0.20268   0.08590   0.00000  Uiso   1.00
C19    C     0.12220   0.10285   0.40634   0.00000  Uiso   1.00
C20    C     0.16868   0.22860   0.49628   0.00000  Uiso   1.00
C21    C     0.16329   0.18474   0.48693   0.00000  Uiso   1.00
C22    C     0.15097   0.16804   0.44709   0.00000  Uiso   1.00
C23    C     0.17274   0.15719   0.01440   0.00000  Uiso   1.00
C24    C     0.17789   0.11537   0.49690   0.00000  Uiso   1.00
C25    C     0.16385   0.09908   0.45915   0.00000  Uiso   1.00
C26    C     0.14676   0.12406   0.43682   0.00000  Uiso   1.00
H27    H     0.21105   0.08051   0.07879   0.00000  Uiso   1.00
H28    H     0.01569   0.19419   0.21018   0.00000  Uiso   1.00
H29    H     0.31906   0.13950   0.28983   0.00000  Uiso   1.00
H30    H     0.20685   0.00367   0.21170   0.00000  Uiso   1.00
H31    H     0.12472   0.33130   0.28865   0.00000  Uiso   1.00
H32    H     0.16350   0.06596   0.44884   0.00000  Uiso   1.00
H33    H     0.19871   0.05736   0.00551   0.00000  Uiso   1.00
H34    H     0.13969   0.26051   0.41088   0.00000  Uiso   1.00
H35    H     0.18372   0.24358   0.02199   0.00000  Uiso   1.00
H36    H     0.16060   0.28828   0.47907   0.00000  Uiso   1.00
N37    N     0.13716   0.22983   0.10736   0.00000  Uiso   1.00
N38    N     0.10250   0.08574   0.38208   0.00000  Uiso   1.00
O39    O     0.16667   0.16667   0.25000   0.00000  Uiso   1.00
O40    O     0.15451   0.12637   0.15459   0.00000  Uiso   1.00
O41    O     0.12940   0.20391   0.34968   0.00000  Uiso   1.00
O42    O     0.20824   0.17759   0.14606   0.00000  Uiso   1.00
O43    O     0.17451   0.15880   0.34968   0.00000  Uiso   1.00
O44    O     0.17930   0.08019   0.28214   0.00000  Uiso   1.00
O45    O     0.14632   0.26085   0.27014   0.00000  Uiso   1.00
O46    O     0.07412   0.13291   0.23413   0.00000  Uiso   1.00
O47    O     0.26693   0.19272   0.21361   0.00000  Uiso   1.00
O48    O     0.07071   0.18878   0.28213   0.00000  Uiso   1.00
O49    O     0.25491   0.15226   0.27014   0.00000  Uiso   1.00
O50    O     0.13760   0.06944   0.23413   0.00000  Uiso   1.00
O51    O     0.20345   0.25620   0.21361   0.00000  Uiso   1.00
Zn52   Zn    0.19338   0.13994   0.28734   0.00000  Uiso   1.00
Zn53   Zn    0.13379   0.12458   0.21876   0.00000  Uiso   1.00
Zn54   Zn    0.21056   0.19775   0.20657   0.00000  Uiso   1.00
Zn55   Zn    0.12893   0.20439   0.28734   0.00000  Uiso   1.00
C56    C     0.38606   0.15967   0.25991   0.00000  Uiso   1.00
C57    C     0.50835   0.16837   0.05931   0.00000  Uiso   1.00
C58    C     0.53401   0.10207   0.06099   0.00000  Uiso   1.00
C59    C     0.61407   0.17380   0.24000   0.00000  Uiso   1.00
C60    C     0.47807   0.19614   0.41839   0.00000  Uiso   1.00
C61    C     0.65997   0.17648   0.23591   0.00000  Uiso   1.00
C62    C     0.34077   0.15720   0.26373   0.00000  Uiso   1.00
C63    C     0.51368   0.32245   0.23660   0.00000  Uiso   1.00
C64    C     0.48495   0.01173   0.26367   0.00000  Uiso   1.00
C65    C     0.48938   0.05587   0.26014   0.00000  Uiso   1.00
C66    C     0.50985   0.27788   0.24020   0.00000  Uiso   1.00
C67    C     0.49050   0.25487   0.47066   0.00000  Uiso   1.00
C68    C     0.51861   0.14781   0.12952   0.00000  Uiso   1.00
C69    C     0.48150   0.18439   0.37080   0.00000  Uiso   1.00
C70    C     0.52695   0.08892   0.01935   0.00000  Uiso   1.00
C71    C     0.52324   0.14081   0.08169   0.00000  Uiso   1.00
C72    C     0.47816   0.23879   0.43220   0.00000  Uiso   1.00
C73    C     0.48733   0.20268   0.08590   0.00000  Uiso   1.00
C74    C     0.45554   0.10285   0.40634   0.00000  Uiso   1.00
C75    C     0.50201   0.22860   0.49628   0.00000  Uiso   1.00
C76    C     0.49662   0.18474   0.48693   0.00000  Uiso   1.00
C77    C     0.48430   0.16804   0.44709   0.00000  Uiso   1.00
C78    C     0.50607   0.15719   0.01440   0.00000  Uiso   1.00
C79    C     0.51122   0.11537   0.49690   0.00000  Uiso   1.00
C80    C     0.49718   0.09908   0.45915   0.00000  Uiso   1.00
C81    C     0.48009   0.12406   0.43682   0.00000  Uiso   1.00
H82    H     0.54438   0.08051   0.07879   0.00000  Uiso   1.00
H83    H     0.34903   0.19419   0.21018   0.00000  Uiso   1.00
H84    H     0.65239   0.13950   0.28983   0.00000  Uiso   1.00
H85    H     0.54018   0.00367   0.21170   0.00000  Uiso   1.00
H86    H     0.45806   0.33130   0.28865   0.00000  Uiso   1.00
H87    H     0.49683   0.06596   0.44884   0.00000  Uiso   1.00
H88    H     0.53204   0.05736   0.00551   0.00000  Uiso   1.00
H89    H     0.47302   0.26051   0.41088   0.00000  Uiso   1.00
H90    H     0.51705   0.24358   0.02199   0.00000  Uiso   1.00
H91    H     0.49394   0.28828   0.47907   0.00000  Uiso   1.00
N92    N     0.47049   0.22983   0.10736   0.00000  Uiso   1.00
N93    N     0.43583   0.08574   0.38208   0.00000  Uiso   1.00
O94    O     0.50000   0.16667   0.25000   0.00000  Uiso   1.00
O95    O     0.48784   0.12637   0.15459   0.00000  Uiso   1.00
O96    O     0.46274   0.20391   0.34968   0.00000  Uiso   1.00
O97    O     0.54157   0.17759   0.14606   0.00000  Uiso   1.00
O98    O     0.50785   0.15880   0.34968   0.00000  Uiso   1.00
O99    O     0.51264   0.08019   0.28214   0.00000  Uiso   1.00
O100   O     0.47965   0.26085   0.27014   0.00000  Uiso   1.00
O101   O     0.40745   0.13291   0.23413   0.00000  Uiso   1.00
O102   O     0.60026   0.19272   0.21361   0.00000  Uiso   1.00
O103   O     0.40405   0.18878   0.28213   0.00000  Uiso   1.00
O104   O     0.58824   0.15226   0.27014   0.00000  Uiso   1.00
O105   O     0.47093   0.06944   0.23413   0.00000  Uiso   1.00
O106   O     0.53678   0.25620   0.21361   0.00000  Uiso   1.00
Zn107  Zn    0.52672   0.13994   0.28734   0.00000  Uiso   1.00
Zn108  Zn    0.46713   0.12458   0.21876   0.00000  Uiso   1.00
Zn109  Zn    0.54389   0.19775   0.20657   0.00000  Uiso   1.00
Zn110  Zn    0.46226   0.20439   0.28734   0.00000  Uiso   1.00
C111   C     0.71939   0.15967   0.25991   0.00000  Uiso   1.00
C112   C     0.84169   0.16837   0.05931   0.00000  Uiso   1.00
C113   C     0.86734   0.10207   0.06099   0.00000  Uiso   1.00
C114   C     0.94740   0.17380   0.24000   0.00000  Uiso   1.00
C115   C     0.81141   0.19614   0.41839   0.00000  Uiso   1.00
C116   C     0.99330   0.17648   0.23591   0.00000  Uiso   1.00
C117   C     0.67410   0.15720   0.26373   0.00000  Uiso   1.00
C118   C     0.84701   0.32245   0.23660   0.00000  Uiso   1.00
C119   C     0.81829   0.01173   0.26367   0.00000  Uiso   1.00
C120   C     0.82271   0.05587   0.26014   0.00000  Uiso   1.00
C121   C     0.84319   0.27788   0.24020   0.00000  Uiso   1.00
C122   C     0.82383   0.25487   0.47066   0.00000  Uiso   1.00
C123   C     0.85195   0.14781   0.12952   0.00000  Uiso   1.00
C124   C     0.81483   0.18439   0.37080   0.00000  Uiso   1.00
C125   C     0.86028   0.08892   0.01935   0.00000  Uiso   1.00
C126   C     0.85657   0.14081   0.08169   0.00000  Uiso   1.00
C127   C     0.81150   0.23879   0.43220   0.00000  Uiso   1.00
C128   C     0.82067   0.20268   0.08590   0.00000  Uiso   1.00
C129   C     0.78887   0.10285   0.40634   0.00000  Uiso   1.00
C130   C     0.83534   0.22860   0.49628   0.00000  Uiso   1.00
C131   C     0.82996   0.18474   0.48693   0.00000  Uiso   1.00
C132   C     0.81764   0.16804   0.44709   0.00000  Uiso   1.00
C133   C     0.83941   0.15719   0.01440   0.00000  Uiso   1.00
C134   C     0.84456   0.11537   0.49690   0.00000  Uiso   1.00
C135   C     0.83051   0.09908   0.45915   0.00000  Uiso   1.00
C136   C     0.81342   0.12406   0.43682   0.00000  Uiso   1.00
H137   H     0.87772   0.08051   0.07879   0.00000  Uiso   1.00
H138   H     0.68236   0.19419   0.21018   0.00000  Uiso   1.00
H139   H     0.98573   0.13950   0.28983   0.00000  Uiso   1.00
H140   H     0.87352   0.00367   0.21170   0.00000  Uiso   1.00
H141   H     0.79139   0.33130   0.28865   0.00000  Uiso   1.00
H142   H     0.83016   0.06596   0.44884   0.00000  Uiso   1.00
H143   H     0.86538   0.05736   0.00551   0.00000  Uiso   1.00
H144   H     0.80635   0.26051   0.41088   0.00000  Uiso   1.00
H145   H     0.85038   0.24358   0.02199   0.00000  Uiso   1.00
H146   H     0.82727   0.28828   0.47907   0.00000  Uiso   1.00
N147   N     0.80383   0.22983   0.10736   0.00000  Uiso   1.00
N148   N     0.76917   0.08574   0.38208   0.00000  Uiso   1.00
O149   O     0.83333   0.16667   0.25000   0.00000  Uiso   1.00
O150   O     0.82118   0.12637   0.15459   0.00000  Uiso   1.00
O151   O     0.79607   0.20391   0.34968   0.00000  Uiso   1.00
O152   O     0.87491   0.17759   0.14606   0.00000  Uiso   1.00
O153   O     0.84118   0.15880   0.34968   0.00000  Uiso   1.00
O154   O     0.84597   0.08019   0.28214   0.00000  Uiso   1.00
O155   O     0.81298   0.26085   0.27014   0.00000  Uiso   1.00
O156   O     0.74078   0.13291   0.23413   0.00000  Uiso   1.00
O157   O     0.93360   0.19272   0.21361   0.00000  Uiso   1.00
O158   O     0.73738   0.18878   0.28213   0.00000  Uiso   1.00
O159   O     0.92158   0.15226   0.27014   0.00000  Uiso   1.00
O160   O     0.80426   0.06944   0.23413   0.00000  Uiso   1.00
O161   O     0.87012   0.25620   0.21361   0.00000  Uiso   1.00
Zn162  Zn    0.86005   0.13994   0.28734   0.00000  Uiso   1.00
Zn163  Zn    0.80046   0.12458   0.21876   0.00000  Uiso   1.00
Zn164  Zn    0.87723   0.19775   0.20657   0.00000  Uiso   1.00
Zn165  Zn    0.79560   0.20439   0.28734   0.00000  Uiso   1.00
C166   C     0.05273   0.49301   0.25991   0.00000  Uiso   1.00
C167   C     0.17502   0.50170   0.05931   0.00000  Uiso   1.00
C168   C     0.20068   0.43540   0.06099   0.00000  Uiso   1.00
C169   C     0.28073   0.50714   0.24000   0.00000  Uiso   1.00
C170   C     0.14474   0.52947   0.41839   0.00000  Uiso   1.00
C171   C     0.32663   0.50982   0.23591   0.00000  Uiso   1.00
C172   C     0.00744   0.49054   0.26373   0.00000  Uiso   1.00
C173   C     0.18034   0.65578   0.23660   0.00000  Uiso   1.00
C174   C     0.15162   0.34506   0.26367   0.00000  Uiso   1.00
C175   C     0.15604   0.38921   0.26014   0.00000  Uiso   1.00
C176   C     0.17652   0.61121   0.24020   0.00000  Uiso   1.00
C177   C     0.15717   0.58821   0.47066   0.00000  Uiso   1.00
C178   C     0.18528   0.48114   0.12952   0.00000  Uiso   1.00
C179   C     0.14817   0.51772   0.37080   0.00000  Uiso   1.00
C180   C     0.19361   0.42226   0.01935   0.00000  Uiso   1.00
C181   C     0.18990   0.47415   0.08169   0.00000  Uiso   1.00
C182   C     0.14483   0.57212   0.43220   0.00000  Uiso   1.00
C183   C     0.15400   0.53601   0.08590   0.00000  Uiso   1.00
C184   C     0.12220   0.43618   0.40634   0.00000  Uiso   1.00
C185   C     0.16868   0.56193   0.49628   0.00000  Uiso   1.00
C186   C     0.16329   0.51807   0.48693   0.00000  Uiso   1.00
C187   C     0.15097   0.50138   0.44709   0.00000  Uiso   1.00
C188   C     0.17274   0.49052   0.01440   0.00000  Uiso   1.00
C189   C     0.17789   0.44870   0.49690   0.00000  Uiso   1.00
C190   C     0.16385   0.43241   0.45915   0.00000  Uiso   1.00
C191   C     0.14676   0.45740   0.43682   0.00000  Uiso   1.00
H192   H     0.21105   0.41384   0.07879   0.00000  Uiso   1.00
H193   H     0.01569   0.52752   0.21018   0.00000  Uiso   1.00
H194   H     0.31906   0.47284   0.28983   0.00000  Uiso   1.00
H195   H     0.20685   0.33700   0.21170   0.00000  Uiso   1.00
H196   H     0.12472   0.66463   0.28865   0.00000  Uiso   1.00
H197   H     0.16350   0.39929   0.44884   0.00000  Uiso   1.00
H198   H     0.19871   0.39070   0.00551   0.00000  Uiso   1.00
H199   H     0.13969   0.59384   0.41088   0.00000  Uiso   1.00
H200   H     0.18372   0.57691   0.02199   0.00000  Uiso   1.00
H201   H     0.16060   0.62162   0.47907   0.00000  Uiso   1.00
N202   N     0.13716   0.56317   0.10736   0.00000  Uiso   1.00
N203   N     0.10250   0.41907   0.38208   0.00000  Uiso   1.00
O204   O     0.16667   0.50000   0.25000   0.00000  Uiso   1.00
O205   O     0.15451   0.45970   0.15459   0.00000  Uiso   1.00
O206   O     0.12940   0.53724   0.34968   0.00000  Uiso   1.00
O207   O     0.20824   0.51092   0.14606   0.00000  Uiso   1.00
O208   O     0.17451   0.49213   0.34968   0.00000  Uiso   1.00
O209   O     0.17930   0.41352   0.28214   0.00000  Uiso   1.00
O210   O     0.14632   0.59418   0.27014   0.00000  Uiso   1.00
O211   O     0.07412   0.46625   0.23413   0.00000  Uiso   1.00
O212   O     0.26693   0.52605   0.21361   0.00000  Uiso   1.00
O213   O     0.07071   0.52211   0.28213   0.00000  Uiso   1.00
O214   O     0.25491   0.48559   0.27014   0.00000  Uiso   1.00
O215   O     0.13760   0.40277   0.23413   0.00000  Uiso   1.00
O216   O     0.20345   0.58953   0.21361   0.00000  Uiso   1.00
Zn217  Zn    0.19338   0.47327   0.28734   0.00000  Uiso   1.00
Zn218  Zn    0.13379   0.45791   0.21876   0.00000  Uiso   1.00
Zn219  Zn    0.21056   0.53109   0.20657   0.00000  Uiso   1.00
Zn220  Zn    0.12893   0.53773   0.28734   0.00000  Uiso   1.00
C221   C     0.38606   0.49301   0.25991   0.00000  Uiso   1.00
C222   C     0.50835   0.50170   0.05931   0.00000  Uiso   1.00
C223   C     0.53401   0.43540   0.06099   0.00000  Uiso   1.00
C224   C     0.61407   0.50714   0.24000   0.00000  Uiso   1.00
C225   C     0.47807   0.52947   0.41839   0.00000  Uiso   1.00
C226   C     0.65997   0.50982   0.23591   0.00000  Uiso   1.00
C227   C     0.34077   0.49054   0.26373   0.00000  Uiso   1.00
C228   C     0.51368   0.65578   0.23660   0.00000  Uiso   1.00
C229   C     0.48495   0.34506   0.26367   0.00000  Uiso   1.00
C230   C     0.48938   0.38921   0.26014   0.00000  Uiso   1.00
C231   C     0.50985   0.61121   0.24020   0.00000  Uiso   1.00
C232   C     0.49050   0.58821   0.47066   0.00000  Uiso   1.00
C233   C     0.51861   0.48114   0.12952   0.00000  Uiso   1.00
C234   C     0.48150   0.51772   0.37080   0.00000  Uiso   1.00
C235   C     0.52695   0.42226   0.01935   0.00000  Uiso   1.00
C236   C     0.52324   0.47415   0.08169   0.00000  Uiso   1.00
C237   C     0.47816   0.57212   0.43220   0.00000  Uiso   1.00
C238   C     0.48733   0.53601   0.08590   0.00000  Uiso   1.00
C239   C     0.45554   0.43618   0.40634   0.00000  Uiso   1.00
C240   C     0.50201   0.56193   0.49628   0.00000  Uiso   1.00
C241   C     0.49662   0.51807   0.48693   0.00000  Uiso   1.00
C242   C     0.48430   0.50138   0.44709   0.00000  Uiso   1.00
C243   C     0.50607   0.49052   0.01440   0.00000  Uiso   1.00
C244   C     0.51122   0.44870   0.49690   0.00000  Uiso   1.00
C245   C     0.49718   0.43241   0.45915   0.00000  Uiso   1.00
C246   C     0.48009   0.45740   0.43682   0.00000  Uiso   1.00
H247   H     0.54438   0.41384   0.07879   0.00000  Uiso   1.00
H248   H     0.34903   0.52752   0.21018   0.00000  Uiso   1.00
H249   H     0.65239   0.47284   0.28983   0.00000  Uiso   1.00
H250   H     0.54018   0.33700   0.21170   0.00000  Uiso   1.00
H251   H     0.45806   0.66463   0.28865   0.00000  Uiso   1.00
H252   H     0.49683   0.39929   0.44884   0.00000  Uiso   1.00
H253   H     0.53204   0.39070   0.00551   0.00000  Uiso   1.00
H254   H     0.47302   0.59384   0.41088   0.00000  Uiso   1.00
H255   H     0.51705   0.57691   0.02199   0.00000  Uiso   1.00
H256   H     0.49394   0.62162   0.47907   0.00000  Uiso   1.00
N257   N     0.47049   0.56317   0.10736   0.00000  Uiso   1.00
N258   N     0.43583   0.41907   0.38208   0.00000  Uiso   1.00
O259   O     0.50000   0.50000   0.25000   0.00000  Uiso   1.00
O260   O     0.48784   0.45970   0.15459   0.00000  Uiso   1.00
O261   O     0.46274   0.53724   0.34968   0.00000  Uiso   1.00
O262   O     0.54157   0.51092   0.14606   0.00000  Uiso   1.00
O263   O     0.50785   0.49213   0.34968   0.00000  Uiso   1.00
O264   O     0.51264   0.41352   0.28214   0.00000  Uiso   1.00
O265   O     0.47965   0.59418   0.27014   0.00000  Uiso   1.00
O266   O     0.40745   0.46625   0.23413   0.00000  Uiso   1.00
O267   O     0.60026   0.52605   0.21361   0.00000  Uiso   1.00
O268   O     0.40405   0.52211   0.28213   0.00000  Uiso   1.00
O269   O     0.58824   0.48559   0.27014   0.00000  Uiso   1.00
O270   O     0.47093   0.40277   0.23413   0.00000  Uiso   1.00
O271   O     0.53678   0.58953   0.21361   0.00000  Uiso   1.00
Zn272  Zn    0.52672   0.47327   0.28734   0.00000  Uiso   1.00
Zn273  Zn    0.46713   0.45791   0.21876   0.00000  Uiso   1.00
Zn274  Zn    0.54389   0.53109   0.20657   0.00000  Uiso   1.00
Zn275  Zn    0.46226   0.53773   0.28734   0.00000  Uiso   1.00
C276   C     0.71939   0.49301   0.25991   0.00000  Uiso   1.00
C277   C     0.84169   0.50170   0.05931   0.00000  Uiso   1.00
C278   C     0.86734   0.43540   0.06099   0.00000  Uiso   1.00
C279   C     0.94740   0.50714   0.24000   0.00000  Uiso   1.00
C280   C     0.81141   0.52947   0.41839   0.00000  Uiso   1.00
C281   C     0.99330   0.50982   0.23591   0.00000  Uiso   1.00
C282   C     0.67410   0.49054   0.26373   0.00000  Uiso   1.00
C283   C     0.84701   0.65578   0.23660   0.00000  Uiso   1.00
C284   C     0.81829   0.34506   0.26367   0.00000  Uiso   1.00
C285   C     0.82271   0.38921   0.26014   0.00000  Uiso   1.00
C286   C     0.84319   0.61121   0.24020   0.00000  Uiso   1.00
C287   C     0.82383   0.58821   0.47066   0.00000  Uiso   1.00
C288   C     0.85195   0.48114   0.12952   0.00000  Uiso   1.00
C289   C     0.81483   0.51772   0.37080   0.00000  Uiso   1.00
C290   C     0.86028   0.42226   0.01935   0.00000  Uiso   1.00
C291   C     0.85657   0.47415   0.08169   0.00000  Uiso   1.00
C292   C     0.81150   0.57212   0.43220   0.00000  Uiso   1.00
C293   C     0.82067   0.53601   0.08590   0.00000  Uiso   1.00
C294   C     0.78887   0.43618   0.40634   0.00000  Uiso   1.00
C295   C     0.83534   0.56193   0.49628   0.00000  Uiso   1.00
C296   C     0.82996   0.51807   0.48693   0.00000  Uiso   1.00
C297   C     0.81764   0.50138   0.44709   0.00000  Uiso   1.00
C298   C     0.83941   0.49052   0.01440   0.00000  Uiso   1.00
C299   C     0.84456   0.44870   0.49690   0.00000  Uiso   1.00
C300   C     0.83051   0.43241   0.45915   0.00000  Uiso   1.00
C301   C     0.81342   0.45740   0.43682   0.00000  Uiso   1.00
H302   H     0.87772   0.41384   0.07879   0.00000  Uiso   1.00
H303   H     0.68236   0.52752   0.21018   0.00000  Uiso   1.00
H304   H     0.98573   0.47284   0.28983   0.00000  Uiso   1.00
H305   H     0.87352   0.33700   0.21170   0.00000  Uiso   1.00
H306   H     0.79139   0.66463   0.28865   0.00000  Uiso   1.00
H307   H     0.83016   0.39929   0.44884   0.00000  Uiso   1.00
H308   H     0.86538   0.39070   0.00551   0.00000  Uiso   1.00
H309   H     0.80635   0.59384   0.41088   0.00000  Uiso   1.00
H310   H     0.85038   0.57691   0.02199   0.00000  Uiso   1.00
H311   H     0.82727   0.62162   0.47907   0.00000  Uiso   1.00
N312   N     0.80383   0.56317   0.10736   0.00000  Uiso   1.00
N313   N     0.76917   0.41907   0.38208   0.00000  Uiso   1.00
O314   O     0.83333   0.50000   0.25000   0.00000  Uiso   1.00
O315   O     0.82118   0.45970   0.15459   0.00000  Uiso   1.00
O316   O     0.79607   0.53724   0.34968   0.00000  Uiso   1.00
O317   O     0.87491   0.51092   0.14606   0.00000  Uiso   1.00
O318   O     0.84118   0.49213   0.34968   0.00000  Uiso   1.00
O319   O     0.84597   0.41352   0.28214   0.00000  Uiso   1.00
O320   O     0.81298   0.59418   0.27014   0.00000  Uiso   1.00
O321   O     0.74078   0.46625   0.23413   0.00000  Uiso   1.00
O322   O     0.93360   0.52605   0.21361   0.00000  Uiso   1.00
O323   O     0.73738   0.52211   0.28213   0.00000  Uiso   1.00
O324   O     0.92158   0.48559   0.27014   0.00000  Uiso   1.00
O325   O     0.80426   0.40277   0.23413   0.00000  Uiso   1.00
O326   O     0.87012   0.58953   0.21361   0.00000  Uiso   1.00
Zn327  Zn    0.86005   0.47327   0.28734   0.00000  Uiso   1.00
Zn328  Zn    0.80046   0.45791   0.21876   0.00000  Uiso   1.00
Zn329  Zn    0.87723   0.53109   0.20657   0.00000  Uiso   1.00
Zn330  Zn    0.79560   0.53773   0.28734   0.00000  Uiso   1.00
C331   C     0.05273   0.82634   0.25991   0.00000  Uiso   1.00
C332   C     0.17502   0.83503   0.05931   0.00000  Uiso   1.00
C333   C     0.20068   0.76873   0.06099   0.00000  Uiso   1.00
C334   C     0.28073   0.84047   0.24000   0.00000  Uiso   1.00
C335   C     0.14474   0.86280   0.41839   0.00000  Uiso   1.00
C336   C     0.32663   0.84315   0.23591   0.00000  Uiso   1.00
C337   C     0.00744   0.82387   0.26373   0.00000  Uiso   1.00
C338   C     0.18034   0.98911   0.23660   0.00000  Uiso   1.00
C339   C     0.15162   0.67839   0.26367   0.00000  Uiso   1.00
C340   C     0.15604   0.72254   0.26014   0.00000  Uiso   1.00
C341   C     0.17652   0.94455   0.24020   0.00000  Uiso   1.00
C342   C     0.15717   0.92154   0.47066   0.00000  Uiso   1.00
C343   C     0.18528   0.81448   0.12952   0.00000  Uiso   1.00
C344   C     0.14817   0.85106   0.37080   0.00000  Uiso   1.00
C345   C     0.19361   0.75559   0.01935   0.00000  Uiso   1.00
C346   C     0.18990   0.80748   0.08169   0.00000  Uiso   1.00
C347   C     0.14483   0.90546   0.43220   0.00000  Uiso   1.00
C348   C     0.15400   0.86935   0.08590   0.00000  Uiso   1.00
C349   C     0.12220   0.76951   0.40634   0.00000  Uiso   1.00
C350   C     0.16868   0.89526   0.49628   0.00000  Uiso   1.00
C351   C     0.16329   0.85141   0.48693   0.00000  Uiso   1.00
C352   C     0.15097   0.83471   0.44709   0.00000  Uiso   1.00
C353   C     0.17274   0.82385   0.01440   0.00000  Uiso   1.00
C354   C     0.17789   0.78203   0.49690   0.00000  Uiso   1.00
C355   C     0.16385   0.76574   0.45915   0.00000  Uiso   1.00
C356   C     0.14676   0.79073   0.43682   0.00000  Uiso   1.00
H357   H     0.21105   0.74718   0.07879   0.00000  Uiso   1.00
H358   H     0.01569   0.86086   0.21018   0.00000  Uiso   1.00
H359   H     0.31906   0.80617   0.28983   0.00000  Uiso   1.00
H360   H     0.20685   0.67033   0.21170   0.00000  Uiso   1.00
H361   H     0.12472   0.99797   0.28865   0.00000  Uiso   1.00
H362   H     0.16350   0.73263   0.44884   0.00000  Uiso   1.00
H363   H     0.19871   0.72403   0.00551   0.00000  Uiso   1.00
H364   H     0.13969   0.92718   0.41088   0.00000  Uiso   1.00
H365   H     0.18372   0.91024   0.02199   0.00000  Uiso   1.00
H366   H     0.16060   0.95495   0.47907   0.00000  Uiso   1.00
N367   N     0.13716   0.89650   0.10736   0.00000  Uiso   1.00
N368   N     0.10250   0.75241   0.38208   0.00000  Uiso   1.00
O369   O     0.16667   0.83333   0.25000   0.00000  Uiso   1.00
O370   O     0.15451   0.79304   0.15459   0.00000  Uiso   1.00
O371   O     0.12940   0.87058   0.34968   0.00000  Uiso   1.00
O372   O     0.20824   0.84425   0.14606   0.00000  Uiso   1.00
O373   O     0.17451   0.82546   0.34968   0.00000  Uiso   1.00
O374   O     0.17930   0.74686   0.28214   0.00000  Uiso   1.00
O375   O     0.14632   0.92751   0.27014   0.00000  Uiso   1.00
O376   O     0.07412   0.79958   0.23413   0.00000  Uiso   1.00
O377   O     0.26693   0.85939   0.21361   0.00000  Uiso   1.00
O378   O     0.07071   0.85544   0.28213   0.00000  Uiso   1.00
O379   O     0.25491   0.81892   0.27014   0.00000  Uiso   1.00
O380   O     0.13760   0.73610   0.23413   0.00000  Uiso   1.00
O381   O     0.20345   0.92286   0.21361   0.00000  Uiso   1.00
Zn382  Zn    0.19338   0.80661   0.28734   0.00000  Uiso   1.00
Zn383  Zn    0.13379   0.79124   0.21876   0.00000  Uiso   1.00
Zn384  Zn    0.21056   0.86442   0.20657   0.00000  Uiso   1.00
Zn385  Zn    0.12893   0.87106   0.28734   0.00000  Uiso   1.00
C386   C     0.38606   0.82634   0.25991   0.00000  Uiso   1.00
C387   C     0.50835   0.83503   0.05931   0.00000  Uiso   1.00
C388   C     0.53401   0.76873   0.06099   0.00000  Uiso   1.00
C389   C     0.61407   0.84047   0.24000   0.00000  Uiso   1.00
C390   C     0.47807   0.86280   0.41839   0.00000  Uiso   1.00
C391   C     0.65997   0.84315   0.23591   0.00000  Uiso   1.00
C392   C     0.34077   0.82387   0.26373   0.00000  Uiso   1.00
C393   C     0.51368   0.98911   0.23660   0.00000  Uiso   1.00
C394   C     0.48495   0.67839   0.26367   0.00000  Uiso   1.00
C395   C     0.48938   0.72254   0.26014   0.00000  Uiso   1.00
C396   C     0.50985   0.94455   0.24020   0.00000  Uiso   1.00
C397   C     0.49050   0.92154   0.47066   0.00000  Uiso   1.00
C398   C     0.51861   0.81448   0.12952   0.00000  Uiso   1.00
C399   C     0.48150   0.85106   0.37080   0.00000  Uiso   1.00
C400   C     0.52695   0.75559   0.01935   0.00000  Uiso   1.00
C401   C     0.52324   0.80748   0.08169   0.00000  Uiso   1.00
C402   C     0.47816   0.90546   0.43220   0.00000  Uiso   1.00
C403   C     0.48733   0.86935   0.08590   0.00000  Uiso   1.00
C404   C     0.45554   0.76951   0.40634   0.00000  Uiso   1.00
C405   C     0.50201   0.89526   0.49628   0.00000  Uiso   1.00
C406   C     0.49662   0.85141   0.48693   0.00000  Uiso   1.00
C407   C     0.48430   0.83471   0.44709   0.00000  Uiso   1.00
C408   C     0.50607   0.82385   0.01440   0.00000  Uiso   1.00
C409   C     0.51122   0.78203   0.49690   0.00000  Uiso   1.00
C410   C     0.49718   0.76574   0.45915   0.00000  Uiso   1.00
C411   C     0.48009   0.79073   0.43682   0.00000  Uiso   1.00
H412   H     0.54438   0.74718   0.07879   0.00000  Uiso   1.00
H413   H     0.34903   0.86086   0.21018   0.00000  Uiso   1.00
H414   H     0.65239   0.80617   0.28983   0.00000  Uiso   1.00
H415   H     0.54018   0.67033   0.21170   0.00000  Uiso   1.00
H416   H     0.45806   0.99797   0.28865   0.00000  Uiso   1.00
H417   H     0.49683   0.73263   0.44884   0.00000  Uiso   1.00
H418   H     0.53204   0.72403   0.00551   0.00000  Uiso   1.00
H419   H     0.47302   0.92718   0.41088   0.00000  Uiso   1.00
H420   H     0.51705   0.91024   0.02199   0.00000  Uiso   1.00
H421   H     0.49394   0.95495   0.47907   0.00000  Uiso   1.00
N422   N     0.47049   0.89650   0.10736   0.00000  Uiso   1.00
N423   N     0.43583   0.75241   0.38208   0.00000  Uiso   1.00
O424   O     0.50000   0.83333   0.25000   0.00000  Uiso   1.00
O425   O     0.48784   0.79304   0.15459   0.00000  Uiso   1.00
O426   O     0.46274   0.87058   0.34968   0.00000  Uiso   1.00
O427   O     0.54157   0.84425   0.14606   0.00000  Uiso   1.00
O428   O     0.50785   0.82546   0.34968   0.00000  Uiso   1.00
O429   O     0.51264   0.74686   0.28214   0.00000  Uiso   1.00
O430   O     0.47965   0.92751   0.27014   0.00000  Uiso   1.00
O431   O     0.40745   0.79958   0.23413   0.00000  Uiso   1.00
O432   O     0.60026   0.85939   0.21361   0.00000  Uiso   1.00
O433   O     0.40405   0.85544   0.28213   0.00000  Uiso   1.00
O434   O     0.58824   0.81892   0.27014   0.00000  Uiso   1.00
O435   O     0.47093   0.73610   0.23413   0.00000  Uiso   1.00
O436   O     0.53678   0.92286   0.21361   0.00000  Uiso   1.00
Zn437  Zn    0.52672   0.80661   0.28734   0.00000  Uiso   1.00
Zn438  Zn    0.46713   0.79124   0.21876   0.00000  Uiso   1.00
Zn439  Zn    0.54389   0.86442   0.20657   0.00000  Uiso   1.00
Zn440  Zn    0.46226   0.87106   0.28734   0.00000  Uiso   1.00
C441   C     0.71939   0.82634   0.25991   0.00000  Uiso   1.00
C442   C     0.84169   0.83503   0.05931   0.00000  Uiso   1.00
C443   C     0.86734   0.76873   0.06099   0.00000  Uiso   1.00
C444   C     0.94740   0.84047   0.24000   0.00000  Uiso   1.00
C445   C     0.81141   0.86280   0.41839   0.00000  Uiso   1.00
C446   C     0.99330   0.84315   0.23591   0.00000  Uiso   1.00
C447   C     0.67410   0.82387   0.26373   0.00000  Uiso   1.00
C448   C     0.84701   0.98911   0.23660   0.00000  Uiso   1.00
C449   C     0.81829   0.67839   0.26367   0.00000  Uiso   1.00
C450   C     0.82271   0.72254   0.26014   0.00000  Uiso   1.00
C451   C     0.84319   0.94455   0.24020   0.00000  Uiso   1.00
C452   C     0.82383   0.92154   0.47066   0.00000  Uiso   1.00
C453   C     0.85195   0.81448   0.12952   0.00000  Uiso   1.00
C454   C     0.81483   0.85106   0.37080   0.00000  Uiso   1.00
C455   C     0.86028   0.75559   0.01935   0.00000  Uiso   1.00
C456   C     0.85657   0.80748   0.08169   0.00000  Uiso   1.00
C457   C     0.81150   0.90546   0.43220   0.00000  Uiso   1.00
C458   C     0.82067   0.86935   0.08590   0.00000  Uiso   1.00
C459   C     0.78887   0.76951   0.40634   0.00000  Uiso   1.00
C460   C     0.83534   0.89526   0.49628   0.00000  Uiso   1.00
C461   C     0.82996   0.85141   0.48693   0.00000  Uiso   1.00
C462   C     0.81764   0.83471   0.44709   0.00000  Uiso   1.00
C463   C     0.83941   0.82385   0.01440   0.00000  Uiso   1.00
C464   C     0.84456   0.78203   0.49690   0.00000  Uiso   1.00
C465   C     0.83051   0.76574   0.45915   0.00000  Uiso   1.00
C466   C     0.81342   0.79073   0.43682   0.00000  Uiso   1.00
H467   H     0.87772   0.74718   0.07879   0.00000  Uiso   1.00
H468   H     0.68236   0.86086   0.21018   0.00000  Uiso   1.00
H469   H     0.98573   0.80617   0.28983   0.00000  Uiso   1.00
H470   H     0.87352   0.67033   0.21170   0.00000  Uiso   1.00
H471   H     0.79139   0.99797   0.28865   0.00000  Uiso   1.00
H472   H     0.83016   0.73263   0.44884   0.00000  Uiso   1.00
H473   H     0.86538   0.72403   0.00551   0.00000  Uiso   1.00
H474   H     0.80635   0.92718   0.41088   0.00000  Uiso   1.00
H475   H     0.85038   0.91024   0.02199   0.00000  Uiso   1.00
H476   H     0.82727   0.95495   0.47907   0.00000  Uiso   1.00
N477   N     0.80383   0.89650   0.10736   0.00000  Uiso   1.00
N478   N     0.76917   0.75241   0.38208   0.00000  Uiso   1.00
O479   O     0.83333   0.83333   0.25000   0.00000  Uiso   1.00
O480   O     0.82118   0.79304   0.15459   0.00000  Uiso   1.00
O481   O     0.79607   0.87058   0.34968   0.00000  Uiso   1.00
O482   O     0.87491   0.84425   0.14606   0.00000  Uiso   1.00
O483   O     0.84118   0.82546   0.34968   0.00000  Uiso   1.00
O484   O     0.84597   0.74686   0.28214   0.00000  Uiso   1.00
O485   O     0.81298   0.92751   0.27014   0.00000  Uiso   1.00
O486   O     0.74078   0.79958   0.23413   0.00000  Uiso   1.00
O487   O     0.93360   0.85939   0.21361   0.00000  Uiso   1.00
O488   O     0.73738   0.85544   0.28213   0.00000  Uiso   1.00
O489   O     0.92158   0.81892   0.27014   0.00000  Uiso   1.00
O490   O     0.80426   0.73610   0.23413   0.00000  Uiso   1.00
O491   O     0.87012   0.92286   0.21361   0.00000  Uiso   1.00
Zn492  Zn    0.86005   0.80661   0.28734   0.00000  Uiso   1.00
Zn493  Zn    0.80046   0.79124   0.21876   0.00000  Uiso   1.00
Zn494  Zn    0.87723   0.86442   0.20657   0.00000  Uiso   1.00
Zn495  Zn    0.79560   0.87106   0.28734   0.00000  Uiso   1.00
C496   C     0.05273   0.15967   0.75991   0.00000  Uiso   1.00
C497   C     0.17502   0.16837   0.55931   0.00000  Uiso   1.00
C498   C     0.20068   0.10207   0.56099   0.00000  Uiso   1.00
C499   C     0.28073   0.17380   0.74000   0.00000  Uiso   1.00
C500   C     0.14474   0.19614   0.91839   0.00000  Uiso   1.00
C501   C     0.32663   0.17648   0.73591   0.00000  Uiso   1.00
C502   C     0.00744   0.15720   0.76373   0.00000  Uiso   1.00
C503   C     0.18034   0.32245   0.73660   0.00000  Uiso   1.00
C504   C     0.15162   0.01173   0.76367   0.00000  Uiso   1.00
C505   C     0.15604   0.05587   0.76014   0.00000  Uiso   1.00
C506   C     0.17652   0.27788   0.74020   0.00000  Uiso   1.00
C507   C     0.15717   0.25487   0.97066   0.00000  Uiso   1.00
C508   C     0.18528   0.14781   0.62952   0.00000  Uiso   1.00
C509   C     0.14817   0.18439   0.87080   0.00000  Uiso   1.00
C510   C     0.19361   0.08892   0.51935   0.00000  Uiso   1.00
C511   C     0.18990   0.14081   0.58169   0.00000  Uiso   1.00
C512   C     0.14483   0.23879   0.93220   0.00000  Uiso   1.00
C513   C     0.15400   0.20268   0.58590   0.00000  Uiso   1.00
C514   C     0.12220   0.10285   0.90634   0.00000  Uiso   1.00
C515   C     0.16868   0.22860   0.99628   0.00000  Uiso   1.00
C516   C     0.16329   0.18474   0.98693   0.00000  Uiso   1.00
C517   C     0.15097   0.16804   0.94709   0.00000  Uiso   1.00
C518   C     0.17274   0.15719   0.51440   0.00000  Uiso   1.00
C519   C     0.17789   0.11537   0.99690   0.00000  Uiso   1.00
C520   C     0.16385   0.09908   0.95915   0.00000  Uiso   1.00
C521   C     0.14676   0.12406   0.93682   0.00000  Uiso   1.00
H522   H     0.21105   0.08051   0.57879   0.00000  Uiso   1.00
H523   H     0.01569   0.19419   0.71018   0.00000  Uiso   1.00
H524   H     0.31906   0.13950   0.78983   0.00000  Uiso   1.00
H525   H     0.20685   0.00367   0.71170   0.00000  Uiso   1.00
H526   H     0.12472   0.33130   0.78865   0.00000  Uiso   1.00
H527   H     0.16350   0.06596   0.94884   0.00000  Uiso   1.00
H528   H     0.19871   0.05736   0.50551   0.00000  Uiso   1.00
H529   H     0.13969   0.26051   0.91088   0.00000  Uiso   1.00
H530   H     0.18372   0.24358   0.52199   0.00000  Uiso   1.00
H531   H     0.16060   0.28828   0.97907   0.00000  Uiso   1.00
N532   N     0.13716   0.22983   0.60736   0.00000  Uiso   1.00
N533   N     0.10250   0.08574   0.88208   0.00000  Uiso   1.00
O534   O     0.16667   0.16667   0.75000   0.00000  Uiso   1.00
O535   O     0.15451   0.12637   0.65459   0.00000  Uiso   1.00
O536   O     0.12940   0.20391   0.84968   0.00000  Uiso   1.00
O537   O     0.20824   0.17759   0.64606   0.00000  Uiso   1.00
O538   O     0.17451   0.15880   0.84968   0.00000  Uiso   1.00
O539   O     0.17930   0.08019   0.78214   0.00000  Uiso   1.00
O540   O     0.14632   0.26085   0.77014   0.00000  Uiso   1.00
O541   O     0.07412   0.13291   0.73413   0.00000  Uiso   1.00
O542   O     0.26693   0.19272   0.71361   0.00000  Uiso   1.00
O543   O     0.07071   0.18878   0.78213   0.00000  Uiso   1.00
O544   O     0.25491   0.15226   0.77014   0.00000  Uiso   1.00
O545   O     0.13760   0.06944   0.73413   0.00000  Uiso   1.00
O546   O     0.20345   0.25620   0.71361   0.00000  Uiso   1.00
Zn547  Zn    0.19338   0.13994   0.78734   0.00000  Uiso   1.00
Zn548  Zn    0.13379   0.12458   0.71876   0.00000  Uiso   1.00
Zn549  Zn    0.21056   0.19775   0.70657   0.00000  Uiso   1.00
Zn550  Zn    0.12893   0.20439   0.78734   0.00000  Uiso   1.00
C551   C     0.38606   0.15967   0.75991   0.00000  Uiso   1.00
C552   C     0.50835   0.16837   0.55931   0.00000  Uiso   1.00
C553   C     0.53401   0.10207   0.56099   0.00000  Uiso   1.00
C554   C     0.61407   0.17380   0.74000   0.00000  Uiso   1.00
C555   C     0.47807   0.19614   0.91839   0.00000  Uiso   1.00
C556   C     0.65997   0.17648   0.73591   0.00000  Uiso   1.00
C557   C     0.34077   0.15720   0.76373   0.00000  Uiso   1.00
C558   C     0.51368   0.32245   0.73660   0.00000  Uiso   1.00
C559   C     0.48495   0.01173   0.76367   0.00000  Uiso   1.00
C560   C     0.48938   0.05587   0.76014   0.00000  Uiso   1.00
C561   C     0.50985   0.27788   0.74020   0.00000  Uiso   1.00
C562   C     0.49050   0.25487   0.97066   0.00000  Uiso   1.00
C563   C     0.51861   0.14781   0.62952   0.00000  Uiso   1.00
C564   C     0.48150   0.18439   0.87080   0.00000  Uiso   1.00
C565   C     0.52695   0.08892   0.51935   0.00000  Uiso   1.00
C566   C     0.52324   0.14081   0.58169   0.00000  Uiso   1.00
C567   C     0.47816   0.23879   0.93220   0.00000  Uiso   1.00
C568   C     0.48733   0.20268   0.58590   0.00000  Uiso   1.00
C569   C     0.45554   0.10285   0.90634   0.00000  Uiso   1.00
C570   C     0.50201   0.22860   0.99628   0.00000  Uiso   1.00
C571   C     0.49662   0.18474   0.98693   0.00000  Uiso   1.00
C572   C     0.48430   0.16804   0.94709   0.00000  Uiso   1.00
C573   C     0.50607   0.15719   0.51440   0.00000  Uiso   1.00
C574   C     0.51122   0.11537   0.99690   0.00000  Uiso   1.00
C575   C     0.49718   0.09908   0.95915   0.00000  Uiso   1.00
C576   C     0.48009   0.12406   0.93682   0.00000  Uiso   1.00
H577   H     0.54438   0.08051   0.57879   0.00000  Uiso   1.00
H578   H     0.34903   0.19419   0.71018   0.00000  Uiso   1.00
H579   H     0.65239   0.13950   0.78983   0.00000  Uiso   1.00
H580   H     0.54018   0.00367   0.71170   0.00000  Uiso   1.00
H581   H     0.45806   0.33130   0.78865   0.00000  Uiso   1.00
H582   H     0.49683   0.06596   0.94884   0.00000  Uiso   1.00
H583   H     0.53204   0.05736   0.50551   0.00000  Uiso   1.00
H584   H     0.47302   0.26051   0.91088   0.00000  Uiso   1.00
H585   H     0.51705   0.24358   0.52199   0.00000  Uiso   1.00
H586   H     0.49394   0.28828   0.97907   0.00000  Uiso   1.00
N587   N     0.47049   0.22983   0.60736   0.00000  Uiso   1.00
N588   N     0.43583   0.08574   0.88208   0.00000  Uiso   1.00
O589   O     0.50000   0.16667   0.75000   0.00000  Uiso   1.00
O590   O     0.48784   0.12637   0.65459   0.00000  Uiso   1.00
O591   O     0.46274   0.20391   0.84968   0.00000  Uiso   1.00
O592   O     0.54157   0.17759   0.64606   0.00000  Uiso   1.00
O593   O     0.50785   0.15880   0.84968   0.00000  Uiso   1.00
O594   O     0.51264   0.08019   0.78214   0.00000  Uiso   1.00
O595   O     0.47965   0.26085   0.77014   0.00000  Uiso   1.00
O596   O     0.40745   0.13291   0.73413   0.00000  Uiso   1.00
O597   O     0.60026   0.19272   0.71361   0.00000  Uiso   1.00
O598   O     0.40405   0.18878   0.78213   0.00000  Uiso   1.00
O599   O     0.58824   0.15226   0.77014   0.00000  Uiso   1.00
O600   O     0.47093   0.06944   0.73413   0.00000  Uiso   1.00
O601   O     0.53678   0.25620   0.71361   0.00000  Uiso   1.00
Zn602  Zn    0.52672   0.13994   0.78734   0.00000  Uiso   1.00
Zn603  Zn    0.46713   0.12458   0.71876   0.00000  Uiso   1.00
Zn604  Zn    0.54389   0.19775   0.70657   0.00000  Uiso   1.00
Zn605  Zn    0.46226   0.20439   0.78734   0.00000  Uiso   1.00
C606   C     0.71939   0.15967   0.75991   0.00000  Uiso   1.00
C607   C     0.84169   0.16837   0.55931   0.00000  Uiso   1.00
C608   C     0.86734   0.10207   0.56099   0.00000  Uiso   1.00
C609   C     0.94740   0.17380   0.74000   0.00000  Uiso   1.00
C610   C     0.81141   0.19614   0.91839   0.00000  Uiso   1.00
C611   C     0.99330   0.17648   0.73591   0.00000  Uiso   1.00
C612   C     0.67410   0.15720   0.76373   0.00000  Uiso   1.00
C613   C     0.84701   0.32245   0.73660   0.00000  Uiso   1.00
C614   C     0.81829   0.01173   0.76367   0.00000  Uiso   1.00
C615   C     0.82271   0.05587   0.76014   0.00000  Uiso   1.00
C616   C     0.84319   0.27788   0.74020   0.00000  Uiso   1.00
C617   C     0.82383   0.25487   0.97066   0.00000  Uiso   1.00
C618   C     0.85195   0.14781   0.62952   0.00000  Uiso   1.00
C619   C     0.81483   0.18439   0.87080   0.00000  Uiso   1.00
C620   C     0.86028   0.08892   0.51935   0.00000  Uiso   1.00
C621   C     0.85657   0.14081   0.58169   0.00000  Uiso   1.00
C622   C     0.81150   0.23879   0.93220   0.00000  Uiso   1.00
C623   C     0.82067   0.20268   0.58590   0.00000  Uiso   1.00
C624   C     0.78887   0.10285   0.90634   0.00000  Uiso   1.00
C625   C     0.83534   0.22860   0.99628   0.00000  Uiso   1.00
C626   C     0.82996   0.18474   0.98693   0.00000  Uiso   1.00
C627   C     0.81764   0.16804   0.94709   0.00000  Uiso   1.00
C628   C     0.83941   0.15719   0.51440   0.00000  Uiso   1.00
C629   C     0.84456   0.11537   0.99690   0.00000  Uiso   1.00
C630   C     0.83051   0.09908   0.95915   0.00000  Uiso   1.00
C631   C     0.81342   0.12406   0.93682   0.00000  Uiso   1.00
H632   H     0.87772   0.08051   0.57879   0.00000  Uiso   1.00
H633   H     0.68236   0.19419   0.71018   0.00000  Uiso   1.00
H634   H     0.98573   0.13950   0.78983   0.00000  Uiso   1.00
H635   H     0.87352   0.00367   0.71170   0.00000  Uiso   1.00
H636   H     0.79139   0.33130   0.78865   0.00000  Uiso   1.00
H637   H     0.83016   0.06596   0.94884   0.00000  Uiso   1.00
H638   H     0.86538   0.05736   0.50551   0.00000  Uiso   1.00
H639   H     0.80635   0.26051   0.91088   0.00000  Uiso   1.00
H640   H     0.85038   0.24358   0.52199   0.00000  Uiso   1.00
H641   H     0.82727   0.28828   0.97907   0.00000  Uiso   1.00
N642   N     0.80383   0.22983   0.60736   0.00000  Uiso   1.00
N643   N     0.76917   0.08574   0.88208   0.00000  Uiso   1.00
O644   O     0.83333   0.16667   0.75000   0.00000  Uiso   1.00
O645   O     0.82118   0.12637   0.65459   0.00000  Uiso   1.00
O646   O     0.79607   0.20391   0.84968   0.00000  Uiso   1.00
O647   O     0.87491   0.17759   0.64606   0.00000  Uiso   1.00
O648   O     0.84118   0.15880   0.84968   0.00000  Uiso   1.00
O649   O     0.84597   0.08019   0.78214   0.00000  Uiso   1.00
O650   O     0.81298   0.26085   0.77014   0.00000  Uiso   1.00
O651   O     0.74078   0.13291   0.73413   0.00000  Uiso   1.00
O652   O     0.93360   0.19272   0.71361   0.00000  Uiso   1.00
O653   O     0.73738   0.18878   0.78213   0.00000  Uiso   1.00
O654   O     0.92158   0.15226   0.77014   0.00000  Uiso   1.00
O655   O     0.80426   0.06944   0.73413   0.00000  Uiso   1.00
O656   O     0.87012   0.25620   0.71361   0.00000  Uiso   1.00
Zn657  Zn    0.86005   0.13994   0.78734   0.00000  Uiso   1.00
Zn658  Zn    0.80046   0.12458   0.71876   0.00000  Uiso   1.00
Zn659  Zn    0.87723   0.19775   0.70657   0.00000  Uiso   1.00
Zn660  Zn    0.79560   0.20439   0.78734   0.00000  Uiso   1.00
C661   C     0.05273   0.49301   0.75991   0.00000  Uiso   1.00
C662   C     0.17502   0.50170   0.55931   0.00000  Uiso   1.00
C663   C     0.20068   0.43540   0.56099   0.00000  Uiso   1.00
C664   C     0.28073   0.50714   0.74000   0.00000  Uiso   1.00
C665   C     0.14474   0.52947   0.91839   0.00000  Uiso   1.00
C666   C     0.32663   0.50982   0.73591   0.00000  Uiso   1.00
C667   C     0.00744   0.49054   0.76373   0.00000  Uiso   1.00
C668   C     0.18034   0.65578   0.73660   0.00000  Uiso   1.00
C669   C     0.15162   0.34506   0.76367   0.00000  Uiso   1.00
C670   C     0.15604   0.38921   0.76014   0.00000  Uiso   1.00
C671   C     0.17652   0.61121   0.74020   0.00000  Uiso   1.00
C672   C     0.15717   0.58821   0.97066   0.00000  Uiso   1.00
C673   C     0.18528   0.48114   0.62952   0.00000  Uiso   1.00
C674   C     0.14817   0.51772   0.87080   0.00000  Uiso   1.00
C675   C     0.19361   0.42226   0.51935   0.00000  Uiso   1.00
C676   C     0.18990   0.47415   0.58169   0.00000  Uiso   1.00
C677   C     0.14483   0.57212   0.93220   0.00000  Uiso   1.00
C678   C     0.15400   0.53601   0.58590   0.00000  Uiso   1.00
C679   C     0.12220   0.43618   0.90634   0.00000  Uiso   1.00
C680   C     0.16868   0.56193   0.99628   0.00000  Uiso   1.00
C681   C     0.16329   0.51807   0.98693   0.00000  Uiso   1.00
C682   C     0.15097   0.50138   0.94709   0.00000  Uiso   1.00
C683   C     0.17274   0.49052   0.51440   0.00000  Uiso   1.00
C684   C     0.17789   0.44870   0.99690   0.00000  Uiso   1.00
C685   C     0.16385   0.43241   0.95915   0.00000  Uiso   1.00
C686   C     0.14676   0.45740   0.93682   0.00000  Uiso   1.00
H687   H     0.21105   0.41384   0.57879   0.00000  Uiso   1.00
H688   H     0.01569   0.52752   0.71018   0.00000  Uiso   1.00
H689   H     0.31906   0.47284   0.78983   0.00000  Uiso   1.00
H690   H     0.20685   0.33700   0.71170   0.00000  Uiso   1.00
H691   H     0.12472   0.66463   0.78865   0.00000  Uiso   1.00
H692   H     0.16350   0.39929   0.94884   0.00000  Uiso   1.00
H693   H     0.19871   0.39070   0.50551   0.00000  Uiso   1.00
H694   H     0.13969   0.59384   0.91088   0.00000  Uiso   1.00
H695   H     0.18372   0.57691   0.52199   0.00000  Uiso   1.00
H696   H     0.16060   0.62162   0.97907   0.00000  Uiso   1.00
N697   N     0.13716   0.56317   0.60736   0.00000  Uiso   1.00
N698   N     0.10250   0.41907   0.88208   0.00000  Uiso   1.00
O699   O     0.16667   0.50000   0.75000   0.00000  Uiso   1.00
O700   O     0.15451   0.45970   0.65459   0.00000  Uiso   1.00
O701   O     0.12940   0.53724   0.84968   0.00000  Uiso   1.00
O702   O     0.20824   0.51092   0.64606   0.00000  Uiso   1.00
O703   O     0.17451   0.49213   0.84968   0.00000  Uiso   1.00
O704   O     0.17930   0.41352   0.78214   0.00000  Uiso   1.00
O705   O     0.14632   0.59418   0.77014   0.00000  Uiso   1.00
O706   O     0.07412   0.46625   0.73413   0.00000  Uiso   1.00
O707   O     0.26693   0.52605   0.71361   0.00000  Uiso   1.00
O708   O     0.07071   0.52211   0.78213   0.00000  Uiso   1.00
O709   O     0.25491   0.48559   0.77014   0.00000  Uiso   1.00
O710   O     0.13760   0.40277   0.73413   0.00000  Uiso   1.00
O711   O     0.20345   0.58953   0.71361   0.00000  Uiso   1.00
Zn712  Zn    0.19338   0.47327   0.78734   0.00000  Uiso   1.00
Zn713  Zn    0.13379   0.45791   0.71876   0.00000  Uiso   1.00
Zn714  Zn    0.21056   0.53109   0.70657   0.00000  Uiso   1.00
Zn715  Zn    0.12893   0.53773   0.78734   0.00000  Uiso   1.00
C716   C     0.38606   0.49301   0.75991   0.00000  Uiso   1.00
C717   C     0.50835   0.50170   0.55931   0.00000  Uiso   1.00
C718   C     0.53401   0.43540   0.56099   0.00000  Uiso   1.00
C719   C     0.61407   0.50714   0.74000   0.00000  Uiso   1.00
C720   C     0.47807   0.52947   0.91839   0.00000  Uiso   1.00
C721   C     0.65997   0.50982   0.73591   0.00000  Uiso   1.00
C722   C     0.34077   0.49054   0.76373   0.00000  Uiso   1.00
C723   C     0.51368   0.65578   0.73660   0.00000  Uiso   1.00
C724   C     0.48495   0.34506   0.76367   0.00000  Uiso   1.00
C725   C     0.48938   0.38921   0.76014   0.00000  Uiso   1.00
C726   C     0.50985   0.61121   0.74020   0.00000  Uiso   1.00
C727   C     0.49050   0.58821   0.97066   0.00000  Uiso   1.00
C728   C     0.51861   0.48114   0.62952   0.00000  Uiso   1.00
C729   C     0.48150   0.51772   0.87080   0.00000  Uiso   1.00
C730   C     0.52695   0.42226   0.51935   0.00000  Uiso   1.00
C731   C     0.52324   0.47415   0.58169   0.00000  Uiso   1.00
C732   C     0.47816   0.57212   0.93220   0.00000  Uiso   1.00
C733   C     0.48733   0.53601   0.58590   0.00000  Uiso   1.00
C734   C     0.45554   0.43618   0.90634   0.00000  Uiso   1.00
C735   C     0.50201   0.56193   0.99628   0.00000  Uiso   1.00
C736   C     0.49662   0.51807   0.98693   0.00000  Uiso   1.00
C737   C     0.48430   0.50138   0.94709   0.00000  Uiso   1.00
C738   C     0.50607   0.49052   0.51440   0.00000  Uiso   1.00
C739   C     0.51122   0.44870   0.99690   0.00000  Uiso   1.00
C740   C     0.49718   0.43241   0.95915   0.00000  Uiso   1.00
C741   C     0.48009   0.45740   0.93682   0.00000  Uiso   1.00
H742   H     0.54438   0.41384   0.57879   0.00000  Uiso   1.00
H743   H     0.34903   0.52752   0.71018   0.00000  Uiso   1.00
H744   H     0.65239   0.47284   0.78983   0.00000  Uiso   1.00
H745   H     0.54018   0.33700   0.71170   0.00000  Uiso   1.00
H746   H     0.45806   0.66463   0.78865   0.00000  Uiso   1.00
H747   H     0.49683   0.39929   0.94884   0.00000  Uiso   1.00
H748   H     0.53204   0.39070   0.50551   0.00000  Uiso   1.00
H749   H     0.47302   0.59384   0.91088   0.00000  Uiso   1.00
H750   H     0.51705   0.57691   0.52199   0.00000  Uiso   1.00
H751   H     0.49394   0.62162   0.97907   0.00000  Uiso   1.00
N752   N     0.47049   0.56317   0.60736   0.00000  Uiso   1.00
N753   N     0.43583   0.41907   0.88208   0.00000  Uiso   1.00
O754   O     0.50000   0.50000   0.75000   0.00000  Uiso   1.00
O755   O     0.48784   0.45970   0.65459   0.00000  Uiso   1.00
O756   O     0.46274   0.53724   0.84968   0.00000  Uiso   1.00
O757   O     0.54157   0.51092   0.64606   0.00000  Uiso   1.00
O758   O     0.50785   0.49213   0.84968   0.00000  Uiso   1.00
O759   O     0.51264   0.41352   0.78214   0.00000  Uiso   1.00
O760   O     0.47965   0.59418   0.77014   0.00000  Uiso   1.00
O761   O     0.40745   0.46625   0.73413   0.00000  Uiso   1.00
O762   O     0.60026   0.52605   0.71361   0.00000  Uiso   1.00
O763   O     0.40405   0.52211   0.78213   0.00000  Uiso   1.00
O764   O     0.58824   0.48559   0.77014   0.00000  Uiso   1.00
O765   O     0.47093   0.40277   0.73413   0.00000  Uiso   1.00
O766   O     0.53678   0.58953   0.71361   0.00000  Uiso   1.00
Zn767  Zn    0.52672   0.47327   0.78734   0.00000  Uiso   1.00
Zn768  Zn    0.46713   0.45791   0.71876   0.00000  Uiso   1.00
Zn769  Zn    0.54389   0.53109   0.70657   0.00000  Uiso   1.00
Zn770  Zn    0.46226   0.53773   0.78734   0.00000  Uiso   1.00
C771   C     0.71939   0.49301   0.75991   0.00000  Uiso   1.00
C772   C     0.84169   0.50170   0.55931   0.00000  Uiso   1.00
C773   C     0.86734   0.43540   0.56099   0.00000  Uiso   1.00
C774   C     0.94740   0.50714   0.74000   0.00000  Uiso   1.00
C775   C     0.81141   0.52947   0.91839   0.00000  Uiso   1.00
C776   C     0.99330   0.50982   0.73591   0.00000  Uiso   1.00
C777   C     0.67410   0.49054   0.76373   0.00000  Uiso   1.00
C778   C     0.84701   0.65578   0.73660   0.00000  Uiso   1.00
C779   C     0.81829   0.34506   0.76367   0.00000  Uiso   1.00
C780   C     0.82271   0.38921   0.76014   0.00000  Uiso   1.00
C781   C     0.84319   0.61121   0.74020   0.00000  Uiso   1.00
C782   C     0.82383   0.58821   0.97066   0.00000  Uiso   1.00
C783   C     0.85195   0.48114   0.62952   0.00000  Uiso   1.00
C784   C     0.81483   0.51772   0.87080   0.00000  Uiso   1.00
C785   C     0.86028   0.42226   0.51935   0.00000  Uiso   1.00
C786   C     0.85657   0.47415   0.58169   0.00000  Uiso   1.00
C787   C     0.81150   0.57212   0.93220   0.00000  Uiso   1.00
C788   C     0.82067   0.53601   0.58590   0.00000  Uiso   1.00
C789   C     0.78887   0.43618   0.90634   0.00000  Uiso   1.00
C790   C     0.83534   0.56193   0.99628   0.00000  Uiso   1.00
C791   C     0.82996   0.51807   0.98693   0.00000  Uiso   1.00
C792   C     0.81764   0.50138   0.94709   0.00000  Uiso   1.00
C793   C     0.83941   0.49052   0.51440   0.00000  Uiso   1.00
C794   C     0.84456   0.44870   0.99690   0.00000  Uiso   1.00
C795   C     0.83051   0.43241   0.95915   0.00000  Uiso   1.00
C796   C     0.81342   0.45740   0.93682   0.00000  Uiso   1.00
H797   H     0.87772   0.41384   0.57879   0.00000  Uiso   1.00
H798   H     0.68236   0.52752   0.71018   0.00000  Uiso   1.00
H799   H     0.98573   0.47284   0.78983   0.00000  Uiso   1.00
H800   H     0.87352   0.33700   0.71170   0.00000  Uiso   1.00
H801   H     0.79139   0.66463   0.78865   0.00000  Uiso   1.00
H802   H     0.83016   0.39929   0.94884   0.00000  Uiso   1.00
H803   H     0.86538   0.39070   0.50551   0.00000  Uiso   1.00
H804   H     0.80635   0.59384   0.91088   0.00000  Uiso   1.00
H805   H     0.85038   0.57691   0.52199   0.00000  Uiso   1.00
H806   H     0.82727   0.62162   0.97907   0.00000  Uiso   1.00
N807   N     0.80383   0.56317   0.60736   0.00000  Uiso   1.00
N808   N     0.76917   0.41907   0.88208   0.00000  Uiso   1.00
O809   O     0.83333   0.50000   0.75000   0.00000  Uiso   1.00
O810   O     0.82118   0.45970   0.65459   0.00000  Uiso   1.00
O811   O     0.79607   0.53724   0.84968   0.00000  Uiso   1.00
O812   O     0.87491   0.51092   0.64606   0.00000  Uiso   1.00
O813   O     0.84118   0.49213   0.84968   0.00000  Uiso   1.00
O814   O     0.84597   0.41352   0.78214   0.00000  Uiso   1.00
O815   O     0.81298   0.59418   0.77014   0.00000  Uiso   1.00
O816   O     0.74078   0.46625   0.73413   0.00000  Uiso   1.00
O817   O     0.93360   0.52605   0.71361   0.00000  Uiso   1.00
O818   O     0.73738   0.52211   0.78213   0.00000  Uiso   1.00
O819   O     0.92158   0.48559   0.77014   0.00000  Uiso   1.00
O820   O     0.80426   0.40277   0.73413   0.00000  Uiso   1.00
O821   O     0.87012   0.58953   0.71361   0.00000  Uiso   1.00
Zn822  Zn    0.86005   0.47327   0.78734   0.00000  Uiso   1.00
Zn823  Zn    0.80046   0.45791   0.71876   0.00000  Uiso   1.00
Zn824  Zn    0.87723   0.53109   0.70657   0.00000  Uiso   1.00
Zn825  Zn    0.79560   0.53773   0.78734   0.00000  Uiso   1.00
C826   C     0.05273   0.82634   0.75991   0.00000  Uiso   1.00
C827   C     0.17502   0.83503   0.55931   0.00000  Uiso   1.00
C828   C     0.20068   0.76873   0.56099   0.00000  Uiso   1.00
C829   C     0.28073   0.84047   0.74000   0.00000  Uiso   1.00
C830   C     0.14474   0.86280   0.91839   0.00000  Uiso   1.00
C831   C     0.32663   0.84315   0.73591   0.00000  Uiso   1.00
C832   C     0.00744   0.82387   0.76373   0.00000  Uiso   1.00
C833   C     0.18034   0.98911   0.73660   0.00000  Uiso   1.00
C834   C     0.15162   0.67839   0.76367   0.00000  Uiso   1.00
C835   C     0.15604   0.72254   0.76014   0.00000  Uiso   1.00
C836   C     0.17652   0.94455   0.74020   0.00000  Uiso   1.00
C837   C     0.15717   0.92154   0.97066   0.00000  Uiso   1.00
C838   C     0.18528   0.81448   0.62952   0.00000  Uiso   1.00
C839   C     0.14817   0.85106   0.87080   0.00000  Uiso   1.00
C840   C     0.19361   0.75559   0.51935   0.00000  Uiso   1.00
C841   C     0.18990   0.80748   0.58169   0.00000  Uiso   1.00
C842   C     0.14483   0.90546   0.93220   0.00000  Uiso   1.00
C843   C     0.15400   0.86935   0.58590   0.00000  Uiso   1.00
C844   C     0.12220   0.76951   0.90634   0.00000  Uiso   1.00
C845   C     0.16868   0.89526   0.99628   0.00000  Uiso   1.00
C846   C     0.16329   0.85141   0.98693   0.00000  Uiso   1.00
C847   C     0.15097   0.83471   0.94709   0.00000  Uiso   1.00
C848   C     0.17274   0.82385   0.51440   0.00000  Uiso   1.00
C849   C     0.17789   0.78203   0.99690   0.00000  Uiso   1.00
C850   C     0.16385   0.76574   0.95915   0.00000  Uiso   1.00
C851   C     0.14676   0.79073   0.93682   0.00000  Uiso   1.00
H852   H     0.21105   0.74718   0.57879   0.00000  Uiso   1.00
H853   H     0.01569   0.86086   0.71018   0.00000  Uiso   1.00
H854   H     0.31906   0.80617   0.78983   0.00000  Uiso   1.00
H855   H     0.20685   0.67033   0.71170   0.00000  Uiso   1.00
H856   H     0.12472   0.99797   0.78865   0.00000  Uiso   1.00
H857   H     0.16350   0.73263   0.94884   0.00000  Uiso   1.00
H858   H     0.19871   0.72403   0.50551   0.00000  Uiso   1.00
H859   H     0.13969   0.92718   0.91088   0.00000  Uiso   1.00
H860   H     0.18372   0.91024   0.52199   0.00000  Uiso   1.00
H861   H     0.16060   0.95495   0.97907   0.00000  Uiso   1.00
N862   N     0.13716   0.89650   0.60736   0.00000  Uiso   1.00
N863   N     0.10250   0.75241   0.88208   0.00000  Uiso   1.00
O864   O     0.16667   0.83333   0.75000   0.00000  Uiso   1.00
O865   O     0.15451   0.79304   0.65459   0.00000  Uiso   1.00
O866   O     0.12940   0.87058   0.84968   0.00000  Uiso   1.00
O867   O     0.20824   0.84425   0.64606   0.00000  Uiso   1.00
O868   O     0.17451   0.82546   0.84968   0.00000  Uiso   1.00
O869   O     0.17930   0.74686   0.78214   0.00000  Uiso   1.00
O870   O     0.14632   0.92751   0.77014   0.00000  Uiso   1.00
O871   O     0.07412   0.79958   0.73413   0.00000  Uiso   1.00
O872   O     0.26693   0.85939   0.71361   0.00000  Uiso   1.00
O873   O     0.07071   0.85544   0.78213   0.00000  Uiso   1.00
O874   O     0.25491   0.81892   0.77014   0.00000  Uiso   1.00
O875   O     0.13760   0.73610   0.73413   0.00000  Uiso   1.00
O876   O     0.20345   0.92286   0.71361   0.00000  Uiso   1.00
Zn877  Zn    0.19338   0.80661   0.78734   0.00000  Uiso   1.00
Zn878  Zn    0.13379   0.79124   0.71876   0.00000  Uiso   1.00
Zn879  Zn    0.21056   0.86442   0.70657   0.00000  Uiso   1.00
Zn880  Zn    0.12893   0.87106   0.78734   0.00000  Uiso   1.00
C881   C     0.38606   0.82634   0.75991   0.00000  Uiso   1.00
C882   C     0.50835   0.83503   0.55931   0.00000  Uiso   1.00
C883   C     0.53401   0.76873   0.56099   0.00000  Uiso   1.00
C884   C     0.61407   0.84047   0.74000   0.00000  Uiso   1.00
C885   C     0.47807   0.86280   0.91839   0.00000  Uiso   1.00
C886   C     0.65997   0.84315   0.73591   0.00000  Uiso   1.00
C887   C     0.34077   0.82387   0.76373   0.00000  Uiso   1.00
C888   C     0.51368   0.98911   0.73660   0.00000  Uiso   1.00
C889   C     0.48495   0.67839   0.76367   0.00000  Uiso   1.00
C890   C     0.48938   0.72254   0.76014   0.00000  Uiso   1.00
C891   C     0.50985   0.94455   0.74020   0.00000  Uiso   1.00
C892   C     0.49050   0.92154   0.97066   0.00000  Uiso   1.00
C893   C     0.51861   0.81448   0.62952   0.00000  Uiso   1.00
C894   C     0.48150   0.85106   0.87080   0.00000  Uiso   1.00
C895   C     0.52695   0.75559   0.51935   0.00000  Uiso   1.00
C896   C     0.52324   0.80748   0.58169   0.00000  Uiso   1.00
C897   C     0.47816   0.90546   0.93220   0.00000  Uiso   1.00
C898   C     0.48733   0.86935   0.58590   0.00000  Uiso   1.00
C899   C     0.45554   0.76951   0.90634   0.00000  Uiso   1.00
C900   C     0.50201   0.89526   0.99628   0.00000  Uiso   1.00
C901   C     0.49662   0.85141   0.98693   0.00000  Uiso   1.00
C902   C     0.48430   0.83471   0.94709   0.00000  Uiso   1.00
C903   C     0.50607   0.82385   0.51440   0.00000  Uiso   1.00
C904   C     0.51122   0.78203   0.99690   0.00000  Uiso   1.00
C905   C     0.49718   0.76574   0.95915   0.00000  Uiso   1.00
C906   C     0.48009   0.79073   0.93682   0.00000  Uiso   1.00
H907   H     0.54438   0.74718   0.57879   0.00000  Uiso   1.00
H908   H     0.34903   0.86086   0.71018   0.00000  Uiso   1.00
H909   H     0.65239   0.80617   0.78983   0.00000  Uiso   1.00
H910   H     0.54018   0.67033   0.71170   0.00000  Uiso   1.00
H911   H     0.45806   0.99797   0.78865   0.00000  Uiso   1.00
H912   H     0.49683   0.73263   0.94884   0.00000  Uiso   1.00
H913   H     0.53204   0.72403   0.50551   0.00000  Uiso   1.00
H914   H     0.47302   0.92718   0.91088   0.00000  Uiso   1.00
H915   H     0.51705   0.91024   0.52199   0.00000  Uiso   1.00
H916   H     0.49394   0.95495   0.97907   0.00000  Uiso   1.00
N917   N     0.47049   0.89650   0.60736   0.00000  Uiso   1.00
N918   N     0.43583   0.75241   0.88208   0.00000  Uiso   1.00
O919   O     0.50000   0.83333   0.75000   0.00000  Uiso   1.00
O920   O     0.48784   0.79304   0.65459   0.00000  Uiso   1.00
O921   O     0.46274   0.87058   0.84968   0.00000  Uiso   1.00
O922   O     0.54157   0.84425   0.64606   0.00000  Uiso   1.00
O923   O     0.50785   0.82546   0.84968   0.00000  Uiso   1.00
O924   O     0.51264   0.74686   0.78214   0.00000  Uiso   1.00
O925   O     0.47965   0.92751   0.77014   0.00000  Uiso   1.00
O926   O     0.40745   0.79958   0.73413   0.00000  Uiso   1.00
O927   O     0.60026   0.85939   0.71361   0.00000  Uiso   1.00
O928   O     0.40405   0.85544   0.78213   0.00000  Uiso   1.00
O929   O     0.58824   0.81892   0.77014   0.00000  Uiso   1.00
O930   O     0.47093   0.73610   0.73413   0.00000  Uiso   1.00
O931   O     0.53678   0.92286   0.71361   0.00000  Uiso   1.00
Zn932  Zn    0.52672   0.80661   0.78734   0.00000  Uiso   1.00
Zn933  Zn    0.46713   0.79124   0.71876   0.00000  Uiso   1.00
Zn934  Zn    0.54389   0.86442   0.70657   0.00000  Uiso   1.00
Zn935  Zn    0.46226   0.87106   0.78734   0.00000  Uiso   1.00
C936   C     0.71939   0.82634   0.75991   0.00000  Uiso   1.00
C937   C     0.84169   0.83503   0.55931   0.00000  Uiso   1.00
C938   C     0.86734   0.76873   0.56099   0.00000  Uiso   1.00
C939   C     0.94740   0.84047   0.74000   0.00000  Uiso   1.00
C940   C     0.81141   0.86280   0.91839   0.00000  Uiso   1.00
C941   C     0.99330   0.84315   0.73591   0.00000  Uiso   1.00
C942   C     0.67410   0.82387   0.76373   0.00000  Uiso   1.00
C943   C     0.84701   0.98911   0.73660   0.00000  Uiso   1.00
C944   C     0.81829   0.67839   0.76367   0.00000  Uiso   1.00
C945   C     0.82271   0.72254   0.76014   0.00000  Uiso   1.00
C946   C     0.84319   0.94455   0.74020   0.00000  Uiso   1.00
C947   C     0.82383   0.92154   0.97066   0.00000  Uiso   1.00
C948   C     0.85195   0.81448   0.62952   0.00000  Uiso   1.00
C949   C     0.81483   0.85106   0.87080   0.00000  Uiso   1.00
C950   C     0.86028   0.75559   0.51935   0.00000  Uiso   1.00
C951   C     0.85657   0.80748   0.58169   0.00000  Uiso   1.00
C952   C     0.81150   0.90546   0.93220   0.00000  Uiso   1.00
C953   C     0.82067   0.86935   0.58590   0.00000  Uiso   1.00
C954   C     0.78887   0.76951   0.90634   0.00000  Uiso   1.00
C955   C     0.83534   0.89526   0.99628   0.00000  Uiso   1.00
C956   C     0.82996   0.85141   0.98693   0.00000  Uiso   1.00
C957   C     0.81764   0.83471   0.94709   0.00000  Uiso   1.00
C958   C     0.83941   0.82385   0.51440   0.00000  Uiso   1.00
C959   C     0.84456   0.78203   0.99690   0.00000  Uiso   1.00
C960   C     0.83051   0.76574   0.95915   0.00000  Uiso   1.00
C961   C     0.81342   0.79073   0.93682   0.00000  Uiso   1.00
H962   H     0.87772   0.74718   0.57879   0.00000  Uiso   1.00
H963   H     0.68236   0.86086   0.71018   0.00000  Uiso   1.00
H964   H     0.98573   0.80617   0.78983   0.00000  Uiso   1.00
H965   H     0.87352   0.67033   0.71170   0.00000  Uiso   1.00
H966   H     0.79139   0.99797   0.78865   0.00000  Uiso   1.00
H967   H     0.83016   0.73263   0.94884   0.00000  Uiso   1.00
H968   H     0.86538   0.72403   0.50551   0.00000  Uiso   1.00
H969   H     0.80635   0.92718   0.91088   0.00000  Uiso   1.00
H970   H     0.85038   0.91024   0.52199   0.00000  Uiso   1.00
H971   H     0.82727   0.95495   0.97907   0.00000  Uiso   1.00
N972   N     0.80383   0.89650   0.60736   0.00000  Uiso   1.00
N973   N     0.76917   0.75241   0.88208   0.00000  Uiso   1.00
O974   O     0.83333   0.83333   0.75000   0.00000  Uiso   1.00
O975   O     0.82118   0.79304   0.65459   0.00000  Uiso   1.00
O976   O     0.79607   0.87058   0.84968   0.00000  Uiso   1.00
O977   O     0.87491   0.84425   0.64606   0.00000  Uiso   1.00
O978   O     0.84118   0.82546   0.84968   0.00000  Uiso   1.00
O979   O     0.84597   0.74686   0.78214   0.00000  Uiso   1.00
O980   O     0.81298   0.92751   0.77014   0.00000  Uiso   1.00
O981   O     0.74078   0.79958   0.73413   0.00000  Uiso   1.00
O982   O     0.93360   0.85939   0.71361   0.00000  Uiso   1.00
O983   O     0.73738   0.85544   0.78213   0.00000  Uiso   1.00
O984   O     0.92158   0.81892   0.77014   0.00000  Uiso   1.00
O985   O     0.80426   0.73610   0.73413   0.00000  Uiso   1.00
O986   O     0.87012   0.92286   0.71361   0.00000  Uiso   1.00
Zn987  Zn    0.86005   0.80661   0.78734   0.00000  Uiso   1.00
Zn988  Zn    0.80046   0.79124   0.71876   0.00000  Uiso   1.00
Zn989  Zn    0.87723   0.86442   0.70657   0.00000  Uiso   1.00
Zn990  Zn    0.79560   0.87106   0.78734   0.00000  Uiso   1.00
loop_
_geom_bond_atom_site_label_1
_geom_bond_atom_site_label_2
_geom_bond_distance
_geom_bond_site_symmetry_2
_ccdc_geom_bond_type
C1     O48     1.269   .     A
C1     O46     1.269   .     A
C1     C7      1.438   .     S
C2     C16     1.407   .     A
C2     C23     1.423   .     A
C2     C18     1.454   .     S
C3     H27     1.084   .     S
C3     C15     1.385   .     A
C3     C16     1.396   .     A
C4     O49     1.283   .     A
C4     C6      1.455   .     S
C4     O47     1.286   .     A
C5     C14     1.467   .     S
C5     C17     1.402   .     A
C5     C22     1.422   .     A
C6     C62     1.335   .     S
C6     H83     1.088   .     S
C7     C116    1.335   1_455 S
C7     H139    1.086   1_455 S
C8     C11     1.451   .     S
C8     C174    1.331   .     S
C8     H195    1.088   .     S
C9     C10     1.436   .     S
C9     C338    1.331   1_545 S
C9     H361    1.086   1_545 S
C10    O44     1.278   .     A
C10    O50     1.278   .     A
C11    O45     1.273   .     A
C11    O51     1.272   .     A
C12    C17     1.384   .     A
C12    H36     1.083   .     S
C12    C20     1.387   .     A
C13    C16     1.453   .     S
C13    O42     1.276   .     A
C13    O40     1.268   .     A
C14    O41     1.279   .     A
C14    O43     1.284   .     A
C15    H33     1.084   .     S
C15    C519    1.398   1_554 S
C17    H34     1.084   .     S
C18    N37     1.158   .     T
C19    N38     1.158   .     T
C19    C26     1.447   .     S
C20    C21     1.415   .     A
C20    H530    1.078   .     S
C21    C22     1.427   .     A
C21    C518    1.426   .     S
C22    C26     1.422   .     A
C23    C516    1.426   1_554 S
C23    C519    1.421   1_554 S
C24    C25     1.392   .     A
C24    C518    1.421   .     S
C24    C510    1.398   .     S
C25    H32     1.086   .     S
C25    C26     1.388   .     A
H28    C116    1.088   1_455 S
H29    C62     1.086   .     S
H30    C338    1.088   1_545 S
H31    C174    1.086   .     S
H35    C515    1.078   1_554 S
O39    Zn52    1.966   .     S
O39    Zn53    1.938   .     S
O39    Zn55    1.932   .     S
O39    Zn54    1.942   .     S
O40    Zn53    1.942   .     S
O41    Zn55    1.950   .     S
O42    Zn54    1.940   .     S
O43    Zn52    1.933   .     S
O44    Zn52    1.926   .     S
O45    Zn55    1.934   .     S
O46    Zn53    1.927   .     S
O47    Zn54    1.936   .     S
O48    Zn55    1.930   .     S
O49    Zn52    1.924   .     S
O50    Zn53    1.940   .     S
O51    Zn54    1.929   .     S
C56    O103    1.269   .     A
C56    O101    1.269   .     A
C56    C62     1.438   .     S
C57    C71     1.407   .     A
C57    C78     1.423   .     A
C57    C73     1.454   .     S
C58    H82     1.084   .     S
C58    C70     1.385   .     A
C58    C71     1.396   .     A
C59    O104    1.283   .     A
C59    C61     1.455   .     S
C59    O102    1.286   .     A
C60    C69     1.467   .     S
C60    C72     1.402   .     A
C60    C77     1.422   .     A
C61    C117    1.335   .     S
C61    H138    1.088   .     S
C63    C66     1.451   .     S
C63    C229    1.331   .     S
C63    H250    1.088   .     S
C64    C65     1.436   .     S
C64    C393    1.331   1_545 S
C64    H416    1.086   1_545 S
C65    O99     1.278   .     A
C65    O105    1.278   .     A
C66    O100    1.273   .     A
C66    O106    1.272   .     A
C67    C72     1.384   .     A
C67    H91     1.083   .     S
C67    C75     1.387   .     A
C68    C71     1.453   .     S
C68    O97     1.276   .     A
C68    O95     1.268   .     A
C69    O96     1.279   .     A
C69    O98     1.284   .     A
C70    H88     1.084   .     S
C70    C574    1.398   1_554 S
C72    H89     1.084   .     S
C73    N92     1.158   .     T
C74    N93     1.158   .     T
C74    C81     1.447   .     S
C75    C76     1.415   .     A
C75    H585    1.078   .     S
C76    C77     1.427   .     A
C76    C573    1.426   .     S
C77    C81     1.422   .     A
C78    C571    1.426   1_554 S
C78    C574    1.421   1_554 S
C79    C80     1.392   .     A
C79    C573    1.421   .     S
C79    C565    1.398   .     S
C80    H87     1.086   .     S
C80    C81     1.388   .     A
H84    C117    1.086   .     S
H85    C393    1.088   1_545 S
H86    C229    1.086   .     S
H90    C570    1.078   1_554 S
O94    Zn107   1.966   .     S
O94    Zn108   1.938   .     S
O94    Zn110   1.932   .     S
O94    Zn109   1.942   .     S
O95    Zn108   1.942   .     S
O96    Zn110   1.950   .     S
O97    Zn109   1.940   .     S
O98    Zn107   1.933   .     S
O99    Zn107   1.926   .     S
O100   Zn110   1.934   .     S
O101   Zn108   1.927   .     S
O102   Zn109   1.936   .     S
O103   Zn110   1.930   .     S
O104   Zn107   1.924   .     S
O105   Zn108   1.940   .     S
O106   Zn109   1.929   .     S
C111   O158    1.269   .     A
C111   O156    1.269   .     A
C111   C117    1.438   .     S
C112   C126    1.407   .     A
C112   C133    1.423   .     A
C112   C128    1.454   .     S
C113   H137    1.084   .     S
C113   C125    1.385   .     A
C113   C126    1.396   .     A
C114   O159    1.283   .     A
C114   C116    1.455   .     S
C114   O157    1.286   .     A
C115   C124    1.467   .     S
C115   C127    1.402   .     A
C115   C132    1.422   .     A
C116   C7      1.335   1_655 S
C116   H28     1.088   1_655 S
C118   C121    1.451   .     S
C118   C284    1.331   .     S
C118   H305    1.088   .     S
C119   C120    1.436   .     S
C119   C448    1.331   1_545 S
C119   H471    1.086   1_545 S
C120   O154    1.278   .     A
C120   O160    1.278   .     A
C121   O155    1.273   .     A
C121   O161    1.272   .     A
C122   C127    1.384   .     A
C122   H146    1.083   .     S
C122   C130    1.387   .     A
C123   C126    1.453   .     S
C123   O152    1.276   .     A
C123   O150    1.268   .     A
C124   O151    1.279   .     A
C124   O153    1.284   .     A
C125   H143    1.084   .     S
C125   C629    1.398   1_554 S
C127   H144    1.084   .     S
C128   N147    1.158   .     T
C129   N148    1.158   .     T
C129   C136    1.447   .     S
C130   C131    1.415   .     A
C130   H640    1.078   .     S
C131   C132    1.427   .     A
C131   C628    1.426   .     S
C132   C136    1.422   .     A
C133   C626    1.426   1_554 S
C133   C629    1.421   1_554 S
C134   C135    1.392   .     A
C134   C628    1.421   .     S
C134   C620    1.398   .     S
C135   H142    1.086   .     S
C135   C136    1.388   .     A
H139   C7      1.086   1_655 S
H140   C448    1.088   1_545 S
H141   C284    1.086   .     S
H145   C625    1.078   1_554 S
O149   Zn162   1.966   .     S
O149   Zn163   1.938   .     S
O149   Zn165   1.932   .     S
O149   Zn164   1.942   .     S
O150   Zn163   1.942   .     S
O151   Zn165   1.950   .     S
O152   Zn164   1.940   .     S
O153   Zn162   1.933   .     S
O154   Zn162   1.926   .     S
O155   Zn165   1.934   .     S
O156   Zn163   1.927   .     S
O157   Zn164   1.936   .     S
O158   Zn165   1.930   .     S
O159   Zn162   1.924   .     S
O160   Zn163   1.940   .     S
O161   Zn164   1.929   .     S
C166   O213    1.269   .     A
C166   O211    1.269   .     A
C166   C172    1.438   .     S
C167   C181    1.407   .     A
C167   C188    1.423   .     A
C167   C183    1.454   .     S
C168   H192    1.084   .     S
C168   C180    1.385   .     A
C168   C181    1.396   .     A
C169   O214    1.283   .     A
C169   C171    1.455   .     S
C169   O212    1.286   .     A
C170   C179    1.467   .     S
C170   C182    1.402   .     A
C170   C187    1.422   .     A
C171   C227    1.335   .     S
C171   H248    1.088   .     S
C172   C281    1.335   1_455 S
C172   H304    1.086   1_455 S
C173   C176    1.451   .     S
C173   C339    1.331   .     S
C173   H360    1.088   .     S
C174   C175    1.436   .     S
C175   O209    1.278   .     A
C175   O215    1.278   .     A
C176   O210    1.273   .     A
C176   O216    1.272   .     A
C177   C182    1.384   .     A
C177   H201    1.083   .     S
C177   C185    1.387   .     A
C178   C181    1.453   .     S
C178   O207    1.276   .     A
C178   O205    1.268   .     A
C179   O206    1.279   .     A
C179   O208    1.284   .     A
C180   H198    1.084   .     S
C180   C684    1.398   1_554 S
C182   H199    1.084   .     S
C183   N202    1.158   .     T
C184   N203    1.158   .     T
C184   C191    1.447   .     S
C185   C186    1.415   .     A
C185   H695    1.078   .     S
C186   C187    1.427   .     A
C186   C683    1.426   .     S
C187   C191    1.422   .     A
C188   C681    1.426   1_554 S
C188   C684    1.421   1_554 S
C189   C190    1.392   .     A
C189   C683    1.421   .     S
C189   C675    1.398   .     S
C190   H197    1.086   .     S
C190   C191    1.388   .     A
H193   C281    1.088   1_455 S
H194   C227    1.086   .     S
H196   C339    1.086   .     S
H200   C680    1.078   1_554 S
O204   Zn217   1.966   .     S
O204   Zn218   1.938   .     S
O204   Zn220   1.932   .     S
O204   Zn219   1.942   .     S
O205   Zn218   1.942   .     S
O206   Zn220   1.950   .     S
O207   Zn219   1.940   .     S
O208   Zn217   1.933   .     S
O209   Zn217   1.926   .     S
O210   Zn220   1.934   .     S
O211   Zn218   1.927   .     S
O212   Zn219   1.936   .     S
O213   Zn220   1.930   .     S
O214   Zn217   1.924   .     S
O215   Zn218   1.940   .     S
O216   Zn219   1.929   .     S
C221   O268    1.269   .     A
C221   O266    1.269   .     A
C221   C227    1.438   .     S
C222   C236    1.407   .     A
C222   C243    1.423   .     A
C222   C238    1.454   .     S
C223   H247    1.084   .     S
C223   C235    1.385   .     A
C223   C236    1.396   .     A
C224   O269    1.283   .     A
C224   C226    1.455   .     S
C224   O267    1.286   .     A
C225   C234    1.467   .     S
C225   C237    1.402   .     A
C225   C242    1.422   .     A
C226   C282    1.335   .     S
C226   H303    1.088   .     S
C228   C231    1.451   .     S
C228   C394    1.331   .     S
C228   H415    1.088   .     S
C229   C230    1.436   .     S
C230   O264    1.278   .     A
C230   O270    1.278   .     A
C231   O265    1.273   .     A
C231   O271    1.272   .     A
C232   C237    1.384   .     A
C232   H256    1.083   .     S
C232   C240    1.387   .     A
C233   C236    1.453   .     S
C233   O262    1.276   .     A
C233   O260    1.268   .     A
C234   O261    1.279   .     A
C234   O263    1.284   .     A
C235   H253    1.084   .     S
C235   C739    1.398   1_554 S
C237   H254    1.084   .     S
C238   N257    1.158   .     T
C239   N258    1.158   .     T
C239   C246    1.447   .     S
C240   C241    1.415   .     A
C240   H750    1.078   .     S
C241   C242    1.427   .     A
C241   C738    1.426   .     S
C242   C246    1.422   .     A
C243   C736    1.426   1_554 S
C243   C739    1.421   1_554 S
C244   C245    1.392   .     A
C244   C738    1.421   .     S
C244   C730    1.398   .     S
C245   H252    1.086   .     S
C245   C246    1.388   .     A
H249   C282    1.086   .     S
H251   C394    1.086   .     S
H255   C735    1.078   1_554 S
O259   Zn272   1.966   .     S
O259   Zn273   1.938   .     S
O259   Zn275   1.932   .     S
O259   Zn274   1.942   .     S
O260   Zn273   1.942   .     S
O261   Zn275   1.950   .     S
O262   Zn274   1.940   .     S
O263   Zn272   1.933   .     S
O264   Zn272   1.926   .     S
O265   Zn275   1.934   .     S
O266   Zn273   1.927   .     S
O267   Zn274   1.936   .     S
O268   Zn275   1.930   .     S
O269   Zn272   1.924   .     S
O270   Zn273   1.940   .     S
O271   Zn274   1.929   .     S
C276   O323    1.269   .     A
C276   O321    1.269   .     A
C276   C282    1.438   .     S
C277   C291    1.407   .     A
C277   C298    1.423   .     A
C277   C293    1.454   .     S
C278   H302    1.084   .     S
C278   C290    1.385   .     A
C278   C291    1.396   .     A
C279   O324    1.283   .     A
C279   C281    1.455   .     S
C279   O322    1.286   .     A
C280   C289    1.467   .     S
C280   C292    1.402   .     A
C280   C297    1.422   .     A
C281   C172    1.335   1_655 S
C281   H193    1.088   1_655 S
C283   C286    1.451   .     S
C283   C449    1.331   .     S
C283   H470    1.088   .     S
C284   C285    1.436   .     S
C285   O319    1.278   .     A
C285   O325    1.278   .     A
C286   O320    1.273   .     A
C286   O326    1.272   .     A
C287   C292    1.384   .     A
C287   H311    1.083   .     S
C287   C295    1.387   .     A
C288   C291    1.453   .     S
C288   O317    1.276   .     A
C288   O315    1.268   .     A
C289   O316    1.279   .     A
C289   O318    1.284   .     A
C290   H308    1.084   .     S
C290   C794    1.398   1_554 S
C292   H309    1.084   .     S
C293   N312    1.158   .     T
C294   N313    1.158   .     T
C294   C301    1.447   .     S
C295   C296    1.415   .     A
C295   H805    1.078   .     S
C296   C297    1.427   .     A
C296   C793    1.426   .     S
C297   C301    1.422   .     A
C298   C791    1.426   1_554 S
C298   C794    1.421   1_554 S
C299   C300    1.392   .     A
C299   C793    1.421   .     S
C299   C785    1.398   .     S
C300   H307    1.086   .     S
C300   C301    1.388   .     A
H304   C172    1.086   1_655 S
H306   C449    1.086   .     S
H310   C790    1.078   1_554 S
O314   Zn327   1.966   .     S
O314   Zn328   1.938   .     S
O314   Zn330   1.932   .     S
O314   Zn329   1.942   .     S
O315   Zn328   1.942   .     S
O316   Zn330   1.950   .     S
O317   Zn329   1.940   .     S
O318   Zn327   1.933   .     S
O319   Zn327   1.926   .     S
O320   Zn330   1.934   .     S
O321   Zn328   1.927   .     S
O322   Zn329   1.936   .     S
O323   Zn330   1.930   .     S
O324   Zn327   1.924   .     S
O325   Zn328   1.940   .     S
O326   Zn329   1.929   .     S
C331   O378    1.269   .     A
C331   O376    1.269   .     A
C331   C337    1.438   .     S
C332   C346    1.407   .     A
C332   C353    1.423   .     A
C332   C348    1.454   .     S
C333   H357    1.084   .     S
C333   C345    1.385   .     A
C333   C346    1.396   .     A
C334   O379    1.283   .     A
C334   C336    1.455   .     S
C334   O377    1.286   .     A
C335   C344    1.467   .     S
C335   C347    1.402   .     A
C335   C352    1.422   .     A
C336   C392    1.335   .     S
C336   H413    1.088   .     S
C337   C446    1.335   1_455 S
C337   H469    1.086   1_455 S
C338   C341    1.451   .     S
C338   C9      1.331   1_565 S
C338   H30     1.088   1_565 S
C339   C340    1.436   .     S
C340   O374    1.278   .     A
C340   O380    1.278   .     A
C341   O375    1.273   .     A
C341   O381    1.272   .     A
C342   C347    1.384   .     A
C342   H366    1.083   .     S
C342   C350    1.387   .     A
C343   C346    1.453   .     S
C343   O372    1.276   .     A
C343   O370    1.268   .     A
C344   O371    1.279   .     A
C344   O373    1.284   .     A
C345   H363    1.084   .     S
C345   C849    1.398   1_554 S
C347   H364    1.084   .     S
C348   N367    1.158   .     T
C349   N368    1.158   .     T
C349   C356    1.447   .     S
C350   C351    1.415   .     A
C350   H860    1.078   .     S
C351   C352    1.427   .     A
C351   C848    1.426   .     S
C352   C356    1.422   .     A
C353   C846    1.426   1_554 S
C353   C849    1.421   1_554 S
C354   C355    1.392   .     A
C354   C848    1.421   .     S
C354   C840    1.398   .     S
C355   H362    1.086   .     S
C355   C356    1.388   .     A
H358   C446    1.088   1_455 S
H359   C392    1.086   .     S
H361   C9      1.086   1_565 S
H365   C845    1.078   1_554 S
O369   Zn382   1.966   .     S
O369   Zn383   1.938   .     S
O369   Zn385   1.932   .     S
O369   Zn384   1.942   .     S
O370   Zn383   1.942   .     S
O371   Zn385   1.950   .     S
O372   Zn384   1.940   .     S
O373   Zn382   1.933   .     S
O374   Zn382   1.926   .     S
O375   Zn385   1.934   .     S
O376   Zn383   1.927   .     S
O377   Zn384   1.936   .     S
O378   Zn385   1.930   .     S
O379   Zn382   1.924   .     S
O380   Zn383   1.940   .     S
O381   Zn384   1.929   .     S
C386   O433    1.269   .     A
C386   O431    1.269   .     A
C386   C392    1.438   .     S
C387   C401    1.407   .     A
C387   C408    1.423   .     A
C387   C403    1.454   .     S
C388   H412    1.084   .     S
C388   C400    1.385   .     A
C388   C401    1.396   .     A
C389   O434    1.283   .     A
C389   C391    1.455   .     S
C389   O432    1.286   .     A
C390   C399    1.467   .     S
C390   C402    1.402   .     A
C390   C407    1.422   .     A
C391   C447    1.335   .     S
C391   H468    1.088   .     S
C393   C396    1.451   .     S
C393   C64     1.331   1_565 S
C393   H85     1.088   1_565 S
C394   C395    1.436   .     S
C395   O429    1.278   .     A
C395   O435    1.278   .     A
C396   O430    1.273   .     A
C396   O436    1.272   .     A
C397   C402    1.384   .     A
C397   H421    1.083   .     S
C397   C405    1.387   .     A
C398   C401    1.453   .     S
C398   O427    1.276   .     A
C398   O425    1.268   .     A
C399   O426    1.279   .     A
C399   O428    1.284   .     A
C400   H418    1.084   .     S
C400   C904    1.398   1_554 S
C402   H419    1.084   .     S
C403   N422    1.158   .     T
C404   N423    1.158   .     T
C404   C411    1.447   .     S
C405   C406    1.415   .     A
C405   H915    1.078   .     S
C406   C407    1.427   .     A
C406   C903    1.426   .     S
C407   C411    1.422   .     A
C408   C901    1.426   1_554 S
C408   C904    1.421   1_554 S
C409   C410    1.392   .     A
C409   C903    1.421   .     S
C409   C895    1.398   .     S
C410   H417    1.086   .     S
C410   C411    1.388   .     A
H414   C447    1.086   .     S
H416   C64     1.086   1_565 S
H420   C900    1.078   1_554 S
O424   Zn437   1.966   .     S
O424   Zn438   1.938   .     S
O424   Zn440   1.932   .     S
O424   Zn439   1.942   .     S
O425   Zn438   1.942   .     S
O426   Zn440   1.950   .     S
O427   Zn439   1.940   .     S
O428   Zn437   1.933   .     S
O429   Zn437   1.926   .     S
O430   Zn440   1.934   .     S
O431   Zn438   1.927   .     S
O432   Zn439   1.936   .     S
O433   Zn440   1.930   .     S
O434   Zn437   1.924   .     S
O435   Zn438   1.940   .     S
O436   Zn439   1.929   .     S
C441   O488    1.269   .     A
C441   O486    1.269   .     A
C441   C447    1.438   .     S
C442   C456    1.407   .     A
C442   C463    1.423   .     A
C442   C458    1.454   .     S
C443   H467    1.084   .     S
C443   C455    1.385   .     A
C443   C456    1.396   .     A
C444   O489    1.283   .     A
C444   C446    1.455   .     S
C444   O487    1.286   .     A
C445   C454    1.467   .     S
C445   C457    1.402   .     A
C445   C462    1.422   .     A
C446   C337    1.335   1_655 S
C446   H358    1.088   1_655 S
C448   C451    1.451   .     S
C448   C119    1.331   1_565 S
C448   H140    1.088   1_565 S
C449   C450    1.436   .     S
C450   O484    1.278   .     A
C450   O490    1.278   .     A
C451   O485    1.273   .     A
C451   O491    1.272   .     A
C452   C457    1.384   .     A
C452   H476    1.083   .     S
C452   C460    1.387   .     A
C453   C456    1.453   .     S
C453   O482    1.276   .     A
C453   O480    1.268   .     A
C454   O481    1.279   .     A
C454   O483    1.284   .     A
C455   H473    1.084   .     S
C455   C959    1.398   1_554 S
C457   H474    1.084   .     S
C458   N477    1.158   .     T
C459   N478    1.158   .     T
C459   C466    1.447   .     S
C460   C461    1.415   .     A
C460   H970    1.078   .     S
C461   C462    1.427   .     A
C461   C958    1.426   .     S
C462   C466    1.422   .     A
C463   C956    1.426   1_554 S
C463   C959    1.421   1_554 S
C464   C465    1.392   .     A
C464   C958    1.421   .     S
C464   C950    1.398   .     S
C465   H472    1.086   .     S
C465   C466    1.388   .     A
H469   C337    1.086   1_655 S
H471   C119    1.086   1_565 S
H475   C955    1.078   1_554 S
O479   Zn492   1.966   .     S
O479   Zn493   1.938   .     S
O479   Zn495   1.932   .     S
O479   Zn494   1.942   .     S
O480   Zn493   1.942   .     S
O481   Zn495   1.950   .     S
O482   Zn494   1.940   .     S
O483   Zn492   1.933   .     S
O484   Zn492   1.926   .     S
O485   Zn495   1.934   .     S
O486   Zn493   1.927   .     S
O487   Zn494   1.936   .     S
O488   Zn495   1.930   .     S
O489   Zn492   1.924   .     S
O490   Zn493   1.940   .     S
O491   Zn494   1.929   .     S
C496   O543    1.269   .     A
C496   O541    1.269   .     A
C496   C502    1.438   .     S
C497   C511    1.407   .     A
C497   C518    1.423   .     A
C497   C513    1.454   .     S
C498   H522    1.084   .     S
C498   C510    1.385   .     A
C498   C511    1.396   .     A
C499   O544    1.283   .     A
C499   C501    1.455   .     S
C499   O542    1.286   .     A
C500   C509    1.467   .     S
C500   C512    1.402   .     A
C500   C517    1.422   .     A
C501   C557    1.335   .     S
C501   H578    1.088   .     S
C502   C611    1.335   1_455 S
C502   H634    1.086   1_455 S
C503   C506    1.451   .     S
C503   C669    1.331   .     S
C503   H690    1.088   .     S
C504   C505    1.436   .     S
C504   C833    1.331   1_545 S
C504   H856    1.086   1_545 S
C505   O539    1.278   .     A
C505   O545    1.278   .     A
C506   O540    1.273   .     A
C506   O546    1.272   .     A
C507   C512    1.384   .     A
C507   H531    1.083   .     S
C507   C515    1.387   .     A
C508   C511    1.453   .     S
C508   O537    1.276   .     A
C508   O535    1.268   .     A
C509   O536    1.279   .     A
C509   O538    1.284   .     A
C510   H528    1.084   .     S
C512   H529    1.084   .     S
C513   N532    1.158   .     T
C514   N533    1.158   .     T
C514   C521    1.447   .     S
C515   C516    1.415   .     A
C515   H35     1.078   1_556 S
C516   C517    1.427   .     A
C516   C23     1.426   1_556 S
C517   C521    1.422   .     A
C519   C520    1.392   .     A
C519   C23     1.421   1_556 S
C519   C15     1.398   1_556 S
C520   H527    1.086   .     S
C520   C521    1.388   .     A
H523   C611    1.088   1_455 S
H524   C557    1.086   .     S
H525   C833    1.088   1_545 S
H526   C669    1.086   .     S
O534   Zn547   1.966   .     S
O534   Zn548   1.938   .     S
O534   Zn550   1.932   .     S
O534   Zn549   1.942   .     S
O535   Zn548   1.942   .     S
O536   Zn550   1.950   .     S
O537   Zn549   1.940   .     S
O538   Zn547   1.933   .     S
O539   Zn547   1.926   .     S
O540   Zn550   1.934   .     S
O541   Zn548   1.927   .     S
O542   Zn549   1.936   .     S
O543   Zn550   1.930   .     S
O544   Zn547   1.924   .     S
O545   Zn548   1.940   .     S
O546   Zn549   1.929   .     S
C551   O598    1.269   .     A
C551   O596    1.269   .     A
C551   C557    1.438   .     S
C552   C566    1.407   .     A
C552   C573    1.423   .     A
C552   C568    1.454   .     S
C553   H577    1.084   .     S
C553   C565    1.385   .     A
C553   C566    1.396   .     A
C554   O599    1.283   .     A
C554   C556    1.455   .     S
C554   O597    1.286   .     A
C555   C564    1.467   .     S
C555   C567    1.402   .     A
C555   C572    1.422   .     A
C556   C612    1.335   .     S
C556   H633    1.088   .     S
C558   C561    1.451   .     S
C558   C724    1.331   .     S
C558   H745    1.088   .     S
C559   C560    1.436   .     S
C559   C888    1.331   1_545 S
C559   H911    1.086   1_545 S
C560   O594    1.278   .     A
C560   O600    1.278   .     A
C561   O595    1.273   .     A
C561   O601    1.272   .     A
C562   C567    1.384   .     A
C562   H586    1.083   .     S
C562   C570    1.387   .     A
C563   C566    1.453   .     S
C563   O592    1.276   .     A
C563   O590    1.268   .     A
C564   O591    1.279   .     A
C564   O593    1.284   .     A
C565   H583    1.084   .     S
C567   H584    1.084   .     S
C568   N587    1.158   .     T
C569   N588    1.158   .     T
C569   C576    1.447   .     S
C570   C571    1.415   .     A
C570   H90     1.078   1_556 S
C571   C572    1.427   .     A
C571   C78     1.426   1_556 S
C572   C576    1.422   .     A
C574   C575    1.392   .     A
C574   C78     1.421   1_556 S
C574   C70     1.398   1_556 S
C575   H582    1.086   .     S
C575   C576    1.388   .     A
H579   C612    1.086   .     S
H580   C888    1.088   1_545 S
H581   C724    1.086   .     S
O589   Zn602   1.966   .     S
O589   Zn603   1.938   .     S
O589   Zn605   1.932   .     S
O589   Zn604   1.942   .     S
O590   Zn603   1.942   .     S
O591   Zn605   1.950   .     S
O592   Zn604   1.940   .     S
O593   Zn602   1.933   .     S
O594   Zn602   1.926   .     S
O595   Zn605   1.934   .     S
O596   Zn603   1.927   .     S
O597   Zn604   1.936   .     S
O598   Zn605   1.930   .     S
O599   Zn602   1.924   .     S
O600   Zn603   1.940   .     S
O601   Zn604   1.929   .     S
C606   O653    1.269   .     A
C606   O651    1.269   .     A
C606   C612    1.438   .     S
C607   C621    1.407   .     A
C607   C628    1.423   .     A
C607   C623    1.454   .     S
C608   H632    1.084   .     S
C608   C620    1.385   .     A
C608   C621    1.396   .     A
C609   O654    1.283   .     A
C609   C611    1.455   .     S
C609   O652    1.286   .     A
C610   C619    1.467   .     S
C610   C622    1.402   .     A
C610   C627    1.422   .     A
C611   C502    1.335   1_655 S
C611   H523    1.088   1_655 S
C613   C616    1.451   .     S
C613   C779    1.331   .     S
C613   H800    1.088   .     S
C614   C615    1.436   .     S
C614   C943    1.331   1_545 S
C614   H966    1.086   1_545 S
C615   O649    1.278   .     A
C615   O655    1.278   .     A
C616   O650    1.273   .     A
C616   O656    1.272   .     A
C617   C622    1.384   .     A
C617   H641    1.083   .     S
C617   C625    1.387   .     A
C618   C621    1.453   .     S
C618   O647    1.276   .     A
C618   O645    1.268   .     A
C619   O646    1.279   .     A
C619   O648    1.284   .     A
C620   H638    1.084   .     S
C622   H639    1.084   .     S
C623   N642    1.158   .     T
C624   N643    1.158   .     T
C624   C631    1.447   .     S
C625   C626    1.415   .     A
C625   H145    1.078   1_556 S
C626   C627    1.427   .     A
C626   C133    1.426   1_556 S
C627   C631    1.422   .     A
C629   C630    1.392   .     A
C629   C133    1.421   1_556 S
C629   C125    1.398   1_556 S
C630   H637    1.086   .     S
C630   C631    1.388   .     A
H634   C502    1.086   1_655 S
H635   C943    1.088   1_545 S
H636   C779    1.086   .     S
O644   Zn657   1.966   .     S
O644   Zn658   1.938   .     S
O644   Zn660   1.932   .     S
O644   Zn659   1.942   .     S
O645   Zn658   1.942   .     S
O646   Zn660   1.950   .     S
O647   Zn659   1.940   .     S
O648   Zn657   1.933   .     S
O649   Zn657   1.926   .     S
O650   Zn660   1.934   .     S
O651   Zn658   1.927   .     S
O652   Zn659   1.936   .     S
O653   Zn660   1.930   .     S
O654   Zn657   1.924   .     S
O655   Zn658   1.940   .     S
O656   Zn659   1.929   .     S
C661   O708    1.269   .     A
C661   O706    1.269   .     A
C661   C667    1.438   .     S
C662   C676    1.407   .     A
C662   C683    1.423   .     A
C662   C678    1.454   .     S
C663   H687    1.084   .     S
C663   C675    1.385   .     A
C663   C676    1.396   .     A
C664   O709    1.283   .     A
C664   C666    1.455   .     S
C664   O707    1.286   .     A
C665   C674    1.467   .     S
C665   C677    1.402   .     A
C665   C682    1.422   .     A
C666   C722    1.335   .     S
C666   H743    1.088   .     S
C667   C776    1.335   1_455 S
C667   H799    1.086   1_455 S
C668   C671    1.451   .     S
C668   C834    1.331   .     S
C668   H855    1.088   .     S
C669   C670    1.436   .     S
C670   O704    1.278   .     A
C670   O710    1.278   .     A
C671   O705    1.273   .     A
C671   O711    1.272   .     A
C672   C677    1.384   .     A
C672   H696    1.083   .     S
C672   C680    1.387   .     A
C673   C676    1.453   .     S
C673   O702    1.276   .     A
C673   O700    1.268   .     A
C674   O701    1.279   .     A
C674   O703    1.284   .     A
C675   H693    1.084   .     S
C677   H694    1.084   .     S
C678   N697    1.158   .     T
C679   N698    1.158   .     T
C679   C686    1.447   .     S
C680   C681    1.415   .     A
C680   H200    1.078   1_556 S
C681   C682    1.427   .     A
C681   C188    1.426   1_556 S
C682   C686    1.422   .     A
C684   C685    1.392   .     A
C684   C188    1.421   1_556 S
C684   C180    1.398   1_556 S
C685   H692    1.086   .     S
C685   C686    1.388   .     A
H688   C776    1.088   1_455 S
H689   C722    1.086   .     S
H691   C834    1.086   .     S
O699   Zn712   1.966   .     S
O699   Zn713   1.938   .     S
O699   Zn715   1.932   .     S
O699   Zn714   1.942   .     S
O700   Zn713   1.942   .     S
O701   Zn715   1.950   .     S
O702   Zn714   1.940   .     S
O703   Zn712   1.933   .     S
O704   Zn712   1.926   .     S
O705   Zn715   1.934   .     S
O706   Zn713   1.927   .     S
O707   Zn714   1.936   .     S
O708   Zn715   1.930   .     S
O709   Zn712   1.924   .     S
O710   Zn713   1.940   .     S
O711   Zn714   1.929   .     S
C716   O763    1.269   .     A
C716   O761    1.269   .     A
C716   C722    1.438   .     S
C717   C731    1.407   .     A
C717   C738    1.423   .     A
C717   C733    1.454   .     S
C718   H742    1.084   .     S
C718   C730    1.385   .     A
C718   C731    1.396   .     A
C719   O764    1.283   .     A
C719   C721    1.455   .     S
C719   O762    1.286   .     A
C720   C729    1.467   .     S
C720   C732    1.402   .     A
C720   C737    1.422   .     A
C721   C777    1.335   .     S
C721   H798    1.088   .     S
C723   C726    1.451   .     S
C723   C889    1.331   .     S
C723   H910    1.088   .     S
C724   C725    1.436   .     S
C725   O759    1.278   .     A
C725   O765    1.278   .     A
C726   O760    1.273   .     A
C726   O766    1.272   .     A
C727   C732    1.384   .     A
C727   H751    1.083   .     S
C727   C735    1.387   .     A
C728   C731    1.453   .     S
C728   O757    1.276   .     A
C728   O755    1.268   .     A
C729   O756    1.279   .     A
C729   O758    1.284   .     A
C730   H748    1.084   .     S
C732   H749    1.084   .     S
C733   N752    1.158   .     T
C734   N753    1.158   .     T
C734   C741    1.447   .     S
C735   C736    1.415   .     A
C735   H255    1.078   1_556 S
C736   C737    1.427   .     A
C736   C243    1.426   1_556 S
C737   C741    1.422   .     A
C739   C740    1.392   .     A
C739   C243    1.421   1_556 S
C739   C235    1.398   1_556 S
C740   H747    1.086   .     S
C740   C741    1.388   .     A
H744   C777    1.086   .     S
H746   C889    1.086   .     S
O754   Zn767   1.966   .     S
O754   Zn768   1.938   .     S
O754   Zn770   1.932   .     S
O754   Zn769   1.942   .     S
O755   Zn768   1.942   .     S
O756   Zn770   1.950   .     S
O757   Zn769   1.940   .     S
O758   Zn767   1.933   .     S
O759   Zn767   1.926   .     S
O760   Zn770   1.934   .     S
O761   Zn768   1.927   .     S
O762   Zn769   1.936   .     S
O763   Zn770   1.930   .     S
O764   Zn767   1.924   .     S
O765   Zn768   1.940   .     S
O766   Zn769   1.929   .     S
C771   O818    1.269   .     A
C771   O816    1.269   .     A
C771   C777    1.438   .     S
C772   C786    1.407   .     A
C772   C793    1.423   .     A
C772   C788    1.454   .     S
C773   H797    1.084   .     S
C773   C785    1.385   .     A
C773   C786    1.396   .     A
C774   O819    1.283   .     A
C774   C776    1.455   .     S
C774   O817    1.286   .     A
C775   C784    1.467   .     S
C775   C787    1.402   .     A
C775   C792    1.422   .     A
C776   C667    1.335   1_655 S
C776   H688    1.088   1_655 S
C778   C781    1.451   .     S
C778   C944    1.331   .     S
C778   H965    1.088   .     S
C779   C780    1.436   .     S
C780   O814    1.278   .     A
C780   O820    1.278   .     A
C781   O815    1.273   .     A
C781   O821    1.272   .     A
C782   C787    1.384   .     A
C782   H806    1.083   .     S
C782   C790    1.387   .     A
C783   C786    1.453   .     S
C783   O812    1.276   .     A
C783   O810    1.268   .     A
C784   O811    1.279   .     A
C784   O813    1.284   .     A
C785   H803    1.084   .     S
C787   H804    1.084   .     S
C788   N807    1.158   .     T
C789   N808    1.158   .     T
C789   C796    1.447   .     S
C790   C791    1.415   .     A
C790   H310    1.078   1_556 S
C791   C792    1.427   .     A
C791   C298    1.426   1_556 S
C792   C796    1.422   .     A
C794   C795    1.392   .     A
C794   C298    1.421   1_556 S
C794   C290    1.398   1_556 S
C795   H802    1.086   .     S
C795   C796    1.388   .     A
H799   C667    1.086   1_655 S
H801   C944    1.086   .     S
O809   Zn822   1.966   .     S
O809   Zn823   1.938   .     S
O809   Zn825   1.932   .     S
O809   Zn824   1.942   .     S
O810   Zn823   1.942   .     S
O811   Zn825   1.950   .     S
O812   Zn824   1.940   .     S
O813   Zn822   1.933   .     S
O814   Zn822   1.926   .     S
O815   Zn825   1.934   .     S
O816   Zn823   1.927   .     S
O817   Zn824   1.936   .     S
O818   Zn825   1.930   .     S
O819   Zn822   1.924   .     S
O820   Zn823   1.940   .     S
O821   Zn824   1.929   .     S
C826   O873    1.269   .     A
C826   O871    1.269   .     A
C826   C832    1.438   .     S
C827   C841    1.407   .     A
C827   C848    1.423   .     A
C827   C843    1.454   .     S
C828   H852    1.084   .     S
C828   C840    1.385   .     A
C828   C841    1.396   .     A
C829   O874    1.283   .     A
C829   C831    1.455   .     S
C829   O872    1.286   .     A
C830   C839    1.467   .     S
C830   C842    1.402   .     A
C830   C847    1.422   .     A
C831   C887    1.335   .     S
C831   H908    1.088   .     S
C832   C941    1.335   1_455 S
C832   H964    1.086   1_455 S
C833   C836    1.451   .     S
C833   C504    1.331   1_565 S
C833   H525    1.088   1_565 S
C834   C835    1.436   .     S
C835   O869    1.278   .     A
C835   O875    1.278   .     A
C836   O870    1.273   .     A
C836   O876    1.272   .     A
C837   C842    1.384   .     A
C837   H861    1.083   .     S
C837   C845    1.387   .     A
C838   C841    1.453   .     S
C838   O867    1.276   .     A
C838   O865    1.268   .     A
C839   O866    1.279   .     A
C839   O868    1.284   .     A
C840   H858    1.084   .     S
C842   H859    1.084   .     S
C843   N862    1.158   .     T
C844   N863    1.158   .     T
C844   C851    1.447   .     S
C845   C846    1.415   .     A
C845   H365    1.078   1_556 S
C846   C847    1.427   .     A
C846   C353    1.426   1_556 S
C847   C851    1.422   .     A
C849   C850    1.392   .     A
C849   C353    1.421   1_556 S
C849   C345    1.398   1_556 S
C850   H857    1.086   .     S
C850   C851    1.388   .     A
H853   C941    1.088   1_455 S
H854   C887    1.086   .     S
H856   C504    1.086   1_565 S
O864   Zn877   1.966   .     S
O864   Zn878   1.938   .     S
O864   Zn880   1.932   .     S
O864   Zn879   1.942   .     S
O865   Zn878   1.942   .     S
O866   Zn880   1.950   .     S
O867   Zn879   1.940   .     S
O868   Zn877   1.933   .     S
O869   Zn877   1.926   .     S
O870   Zn880   1.934   .     S
O871   Zn878   1.927   .     S
O872   Zn879   1.936   .     S
O873   Zn880   1.930   .     S
O874   Zn877   1.924   .     S
O875   Zn878   1.940   .     S
O876   Zn879   1.929   .     S
C881   O928    1.269   .     A
C881   O926    1.269   .     A
C881   C887    1.438   .     S
C882   C896    1.407   .     A
C882   C903    1.423   .     A
C882   C898    1.454   .     S
C883   H907    1.084   .     S
C883   C895    1.385   .     A
C883   C896    1.396   .     A
C884   O929    1.283   .     A
C884   C886    1.455   .     S
C884   O927    1.286   .     A
C885   C894    1.467   .     S
C885   C897    1.402   .     A
C885   C902    1.422   .     A
C886   C942    1.335   .     S
C886   H963    1.088   .     S
C888   C891    1.451   .     S
C888   C559    1.331   1_565 S
C888   H580    1.088   1_565 S
C889   C890    1.436   .     S
C890   O924    1.278   .     A
C890   O930    1.278   .     A
C891   O925    1.273   .     A
C891   O931    1.272   .     A
C892   C897    1.384   .     A
C892   H916    1.083   .     S
C892   C900    1.387   .     A
C893   C896    1.453   .     S
C893   O922    1.276   .     A
C893   O920    1.268   .     A
C894   O921    1.279   .     A
C894   O923    1.284   .     A
C895   H913    1.084   .     S
C897   H914    1.084   .     S
C898   N917    1.158   .     T
C899   N918    1.158   .     T
C899   C906    1.447   .     S
C900   C901    1.415   .     A
C900   H420    1.078   1_556 S
C901   C902    1.427   .     A
C901   C408    1.426   1_556 S
C902   C906    1.422   .     A
C904   C905    1.392   .     A
C904   C408    1.421   1_556 S
C904   C400    1.398   1_556 S
C905   H912    1.086   .     S
C905   C906    1.388   .     A
H909   C942    1.086   .     S
H911   C559    1.086   1_565 S
O919   Zn932   1.966   .     S
O919   Zn933   1.938   .     S
O919   Zn935   1.932   .     S
O919   Zn934   1.942   .     S
O920   Zn933   1.942   .     S
O921   Zn935   1.950   .     S
O922   Zn934   1.940   .     S
O923   Zn932   1.933   .     S
O924   Zn932   1.926   .     S
O925   Zn935   1.934   .     S
O926   Zn933   1.927   .     S
O927   Zn934   1.936   .     S
O928   Zn935   1.930   .     S
O929   Zn932   1.924   .     S
O930   Zn933   1.940   .     S
O931   Zn934   1.929   .     S
C936   O983    1.269   .     A
C936   O981    1.269   .     A
C936   C942    1.438   .     S
C937   C951    1.407   .     A
C937   C958    1.423   .     A
C937   C953    1.454   .     S
C938   H962    1.084   .     S
C938   C950    1.385   .     A
C938   C951    1.396   .     A
C939   O984    1.283   .     A
C939   C941    1.455   .     S
C939   O982    1.286   .     A
C940   C949    1.467   .     S
C940   C952    1.402   .     A
C940   C957    1.422   .     A
C941   C832    1.335   1_655 S
C941   H853    1.088   1_655 S
C943   C946    1.451   .     S
C943   C614    1.331   1_565 S
C943   H635    1.088   1_565 S
C944   C945    1.436   .     S
C945   O979    1.278   .     A
C945   O985    1.278   .     A
C946   O980    1.273   .     A
C946   O986    1.272   .     A
C947   C952    1.384   .     A
C947   H971    1.083   .     S
C947   C955    1.387   .     A
C948   C951    1.453   .     S
C948   O977    1.276   .     A
C948   O975    1.268   .     A
C949   O976    1.279   .     A
C949   O978    1.284   .     A
C950   H968    1.084   .     S
C952   H969    1.084   .     S
C953   N972    1.158   .     T
C954   N973    1.158   .     T
C954   C961    1.447   .     S
C955   C956    1.415   .     A
C955   H475    1.078   1_556 S
C956   C957    1.427   .     A
C956   C463    1.426   1_556 S
C957   C961    1.422   .     A
C959   C960    1.392   .     A
C959   C463    1.421   1_556 S
C959   C455    1.398   1_556 S
C960   H967    1.086   .     S
C960   C961    1.388   .     A
H964   C832    1.086   1_655 S
H966   C614    1.086   1_565 S
O974   Zn987   1.966   .     S
O974   Zn988   1.938   .     S
O974   Zn990   1.932   .     S
O974   Zn989   1.942   .     S
O975   Zn988   1.942   .     S
O976   Zn990   1.950   .     S
O977   Zn989   1.940   .     S
O978   Zn987   1.933   .     S
O979   Zn987   1.926   .     S
O980   Zn990   1.934   .     S
O981   Zn988   1.927   .     S
O982   Zn989   1.936   .     S
O983   Zn990   1.930   .     S
O984   Zn987   1.924   .     S
O985   Zn988   1.940   .     S
O986   Zn989   1.929   .     S
