data_str_m1_o1_o1_pcu_sym.12
_audit_creation_date              2020-01-03
_audit_creation_method            'Materials Studio'
_symmetry_space_group_name_H-M    'P1'
_symmetry_Int_Tables_number       1
_symmetry_cell_setting            triclinic
loop_
_symmetry_equiv_pos_as_xyz
  x,y,z
_cell_length_a                    25.9111
_cell_length_b                    25.9074
_cell_length_c                    25.9241
_cell_angle_alpha                 90.0989
_cell_angle_beta                  90.0159
_cell_angle_gamma                 89.9768
loop_
_atom_site_label
_atom_site_type_symbol
_atom_site_fract_x
_atom_site_fract_y
_atom_site_fract_z
_atom_site_U_iso_or_equiv
_atom_site_adp_type
_atom_site_occupancy
C1     C     0.38997   0.24945   0.25040   0.00000  Uiso   1.00
C2     C     0.61002   0.74925   0.75054   0.00000  Uiso   1.00
C3     C     0.24971   0.25010   0.61006   0.00000  Uiso   1.00
C4     C     0.74993   0.75004   0.38996   0.00000  Uiso   1.00
C5     C     0.61008   0.25061   0.75044   0.00000  Uiso   1.00
C6     C     0.38998   0.75009   0.25007   0.00000  Uiso   1.00
C7     C     0.75006   0.24997   0.38996   0.00000  Uiso   1.00
C8     C     0.25040   0.75025   0.60999   0.00000  Uiso   1.00
C9     C     0.38997   0.75070   0.74952   0.00000  Uiso   1.00
C10    C     0.61002   0.25060   0.24958   0.00000  Uiso   1.00
C11    C     0.25014   0.75022   0.38996   0.00000  Uiso   1.00
C12    C     0.75010   0.25006   0.61000   0.00000  Uiso   1.00
C13    C     0.61003   0.75003   0.25000   0.00000  Uiso   1.00
C14    C     0.38998   0.24930   0.74941   0.00000  Uiso   1.00
C15    C     0.74997   0.75001   0.61002   0.00000  Uiso   1.00
C16    C     0.25027   0.24986   0.39001   0.00000  Uiso   1.00
C17    C     0.24980   0.38998   0.74986   0.00000  Uiso   1.00
C18    C     0.75019   0.61007   0.25030   0.00000  Uiso   1.00
C19    C     0.25025   0.61003   0.24959   0.00000  Uiso   1.00
C20    C     0.74999   0.38999   0.75005   0.00000  Uiso   1.00
C21    C     0.74995   0.61007   0.75002   0.00000  Uiso   1.00
C22    C     0.25011   0.38999   0.24994   0.00000  Uiso   1.00
C23    C     0.74952   0.38998   0.24939   0.00000  Uiso   1.00
C24    C     0.24999   0.61006   0.74996   0.00000  Uiso   1.00
C25    C     0.88998   0.74990   0.25012   0.00000  Uiso   1.00
C26    C     0.11005   0.25049   0.74962   0.00000  Uiso   1.00
C27    C     0.24991   0.74994   0.11001   0.00000  Uiso   1.00
C28    C     0.74998   0.24997   0.88994   0.00000  Uiso   1.00
C29    C     0.11005   0.74998   0.75001   0.00000  Uiso   1.00
C30    C     0.88997   0.25018   0.25018   0.00000  Uiso   1.00
C31    C     0.75009   0.75006   0.89001   0.00000  Uiso   1.00
C32    C     0.25023   0.25000   0.11006   0.00000  Uiso   1.00
C33    C     0.88998   0.24957   0.75030   0.00000  Uiso   1.00
C34    C     0.11000   0.74974   0.25018   0.00000  Uiso   1.00
C35    C     0.24950   0.24970   0.89002   0.00000  Uiso   1.00
C36    C     0.75001   0.74998   0.11003   0.00000  Uiso   1.00
C37    C     0.11006   0.25009   0.25000   0.00000  Uiso   1.00
C38    C     0.88997   0.74976   0.74976   0.00000  Uiso   1.00
C39    C     0.75077   0.24933   0.11000   0.00000  Uiso   1.00
C40    C     0.25039   0.74977   0.88997   0.00000  Uiso   1.00
C41    C     0.74996   0.88996   0.75006   0.00000  Uiso   1.00
C42    C     0.24986   0.11002   0.24967   0.00000  Uiso   1.00
C43    C     0.74994   0.11004   0.25014   0.00000  Uiso   1.00
C44    C     0.24994   0.88997   0.75010   0.00000  Uiso   1.00
C45    C     0.24963   0.11003   0.75046   0.00000  Uiso   1.00
C46    C     0.74989   0.89000   0.25007   0.00000  Uiso   1.00
C47    C     0.24991   0.88997   0.25003   0.00000  Uiso   1.00
C48    C     0.74945   0.11004   0.74934   0.00000  Uiso   1.00
C49    C     0.25701   0.47279   0.20249   0.00000  Uiso   1.00
C50    C     0.77057   0.52720   0.70723   0.00000  Uiso   1.00
C51    C     0.23363   0.47292   0.70505   0.00000  Uiso   1.00
C52    C     0.73100   0.52746   0.20596   0.00000  Uiso   1.00
C53    C     0.77137   0.47284   0.70771   0.00000  Uiso   1.00
C54    C     0.25671   0.52697   0.20258   0.00000  Uiso   1.00
C55    C     0.73117   0.47312   0.20565   0.00000  Uiso   1.00
C56    C     0.23411   0.52721   0.70492   0.00000  Uiso   1.00
C57    C     0.47230   0.70608   0.76848   0.00000  Uiso   1.00
C58    C     0.52746   0.20617   0.26804   0.00000  Uiso   1.00
C59    C     0.47340   0.20442   0.73539   0.00000  Uiso   1.00
C60    C     0.52713   0.79753   0.25217   0.00000  Uiso   1.00
C61    C     0.47316   0.20573   0.26754   0.00000  Uiso   1.00
C62    C     0.52664   0.70516   0.76794   0.00000  Uiso   1.00
C63    C     0.47296   0.79776   0.25219   0.00000  Uiso   1.00
C64    C     0.52767   0.20520   0.73427   0.00000  Uiso   1.00
C65    C     0.70527   0.23450   0.52700   0.00000  Uiso   1.00
C66    C     0.20383   0.74190   0.47278   0.00000  Uiso   1.00
C67    C     0.20345   0.25862   0.52718   0.00000  Uiso   1.00
C68    C     0.79593   0.73833   0.47281   0.00000  Uiso   1.00
C69    C     0.20384   0.74114   0.52696   0.00000  Uiso   1.00
C70    C     0.70513   0.23479   0.47277   0.00000  Uiso   1.00
C71    C     0.79560   0.73724   0.52704   0.00000  Uiso   1.00
C72    C     0.20326   0.25853   0.47300   0.00000  Uiso   1.00
C73    C     0.75496   0.97284   0.20300   0.00000  Uiso   1.00
C74    C     0.24015   0.02707   0.79698   0.00000  Uiso   1.00
C75    C     0.25567   0.97301   0.29687   0.00000  Uiso   1.00
C76    C     0.73159   0.02682   0.70518   0.00000  Uiso   1.00
C77    C     0.24057   0.97286   0.79709   0.00000  Uiso   1.00
C78    C     0.75635   0.02706   0.20286   0.00000  Uiso   1.00
C79    C     0.73166   0.97249   0.70543   0.00000  Uiso   1.00
C80    C     0.25694   0.02723   0.29692   0.00000  Uiso   1.00
C81    C     0.76584   0.02744   0.79368   0.00000  Uiso   1.00
C82    C     0.24288   0.97277   0.20280   0.00000  Uiso   1.00
C83    C     0.25927   0.02715   0.70407   0.00000  Uiso   1.00
C84    C     0.74385   0.97316   0.29730   0.00000  Uiso   1.00
C85    C     0.24362   0.02695   0.20284   0.00000  Uiso   1.00
C86    C     0.76573   0.97320   0.79419   0.00000  Uiso   1.00
C87    C     0.74405   0.02732   0.29699   0.00000  Uiso   1.00
C88    C     0.25888   0.97290   0.70371   0.00000  Uiso   1.00
C89    C     0.97289   0.79701   0.24509   0.00000  Uiso   1.00
C90    C     0.02748   0.20870   0.77315   0.00000  Uiso   1.00
C91    C     0.97300   0.70346   0.73854   0.00000  Uiso   1.00
C92    C     0.02721   0.29630   0.26217   0.00000  Uiso   1.00
C93    C     0.97317   0.20827   0.77280   0.00000  Uiso   1.00
C94    C     0.02709   0.79690   0.24515   0.00000  Uiso   1.00
C95    C     0.97299   0.29581   0.26368   0.00000  Uiso   1.00
C96    C     0.02723   0.70325   0.73944   0.00000  Uiso   1.00
C97    C     0.02717   0.20451   0.23686   0.00000  Uiso   1.00
C98    C     0.97283   0.79586   0.76052   0.00000  Uiso   1.00
C99    C     0.02692   0.29170   0.72674   0.00000  Uiso   1.00
C100   C     0.97289   0.70247   0.25610   0.00000  Uiso   1.00
C101   C     0.02704   0.79609   0.76039   0.00000  Uiso   1.00
C102   C     0.97290   0.20488   0.23617   0.00000  Uiso   1.00
C103   C     0.02704   0.70258   0.25553   0.00000  Uiso   1.00
C104   C     0.97258   0.29140   0.72666   0.00000  Uiso   1.00
C105   C     0.79729   0.75427   0.02723   0.00000  Uiso   1.00
C106   C     0.20466   0.23403   0.97315   0.00000  Uiso   1.00
C107   C     0.70568   0.26473   0.02723   0.00000  Uiso   1.00
C108   C     0.29731   0.74313   0.97306   0.00000  Uiso   1.00
C109   C     0.20508   0.23307   0.02742   0.00000  Uiso   1.00
C110   C     0.79755   0.75397   0.97305   0.00000  Uiso   1.00
C111   C     0.29719   0.74276   0.02725   0.00000  Uiso   1.00
C112   C     0.70539   0.26384   0.97299   0.00000  Uiso   1.00
C113   C     0.20331   0.75577   0.97269   0.00000  Uiso   1.00
C114   C     0.79572   0.23388   0.02679   0.00000  Uiso   1.00
C115   C     0.29431   0.26542   0.97297   0.00000  Uiso   1.00
C116   C     0.70285   0.74517   0.02709   0.00000  Uiso   1.00
C117   C     0.79549   0.23380   0.97250   0.00000  Uiso   1.00
C118   C     0.20279   0.75476   0.02686   0.00000  Uiso   1.00
C119   C     0.70277   0.74517   0.97291   0.00000  Uiso   1.00
C120   C     0.29473   0.26430   0.02713   0.00000  Uiso   1.00
C121   C     0.72881   0.47308   0.79269   0.00000  Uiso   1.00
C122   C     0.24356   0.52732   0.29653   0.00000  Uiso   1.00
C123   C     0.76858   0.47284   0.29296   0.00000  Uiso   1.00
C124   C     0.26480   0.52724   0.79496   0.00000  Uiso   1.00
C125   C     0.24434   0.47314   0.29674   0.00000  Uiso   1.00
C126   C     0.72936   0.52740   0.79290   0.00000  Uiso   1.00
C127   C     0.26490   0.47296   0.79468   0.00000  Uiso   1.00
C128   C     0.76781   0.52708   0.29352   0.00000  Uiso   1.00
C129   C     0.47248   0.29399   0.23253   0.00000  Uiso   1.00
C130   C     0.52752   0.79312   0.73241   0.00000  Uiso   1.00
C131   C     0.47293   0.70270   0.24737   0.00000  Uiso   1.00
C132   C     0.52685   0.29539   0.76447   0.00000  Uiso   1.00
C133   C     0.47339   0.79421   0.73313   0.00000  Uiso   1.00
C134   C     0.52680   0.29445   0.23281   0.00000  Uiso   1.00
C135   C     0.47262   0.29543   0.76346   0.00000  Uiso   1.00
C136   C     0.52705   0.70274   0.24738   0.00000  Uiso   1.00
C137   C     0.29697   0.75977   0.52705   0.00000  Uiso   1.00
C138   C     0.79593   0.26311   0.47287   0.00000  Uiso   1.00
C139   C     0.70412   0.76264   0.52710   0.00000  Uiso   1.00
C140   C     0.29663   0.24079   0.47308   0.00000  Uiso   1.00
C141   C     0.79542   0.26444   0.52708   0.00000  Uiso   1.00
C142   C     0.29701   0.76025   0.47281   0.00000  Uiso   1.00
C143   C     0.29646   0.23952   0.52732   0.00000  Uiso   1.00
C144   C     0.70352   0.76100   0.47287   0.00000  Uiso   1.00
C145   C     0.24977   0.55385   0.24948   0.00000  Uiso   1.00
C146   C     0.75002   0.44620   0.75015   0.00000  Uiso   1.00
C147   C     0.24985   0.55392   0.74987   0.00000  Uiso   1.00
C148   C     0.75021   0.44622   0.24912   0.00000  Uiso   1.00
C149   C     0.74992   0.55394   0.75002   0.00000  Uiso   1.00
C150   C     0.25062   0.44620   0.24968   0.00000  Uiso   1.00
C151   C     0.74909   0.55395   0.25009   0.00000  Uiso   1.00
C152   C     0.24957   0.44618   0.74978   0.00000  Uiso   1.00
C153   C     0.55383   0.74887   0.74986   0.00000  Uiso   1.00
C154   C     0.44613   0.24949   0.24952   0.00000  Uiso   1.00
C155   C     0.55396   0.25054   0.74931   0.00000  Uiso   1.00
C156   C     0.44619   0.75022   0.25007   0.00000  Uiso   1.00
C157   C     0.55386   0.25059   0.25066   0.00000  Uiso   1.00
C158   C     0.44612   0.75054   0.75087   0.00000  Uiso   1.00
C159   C     0.55380   0.75009   0.24991   0.00000  Uiso   1.00
C160   C     0.44621   0.24950   0.75016   0.00000  Uiso   1.00
C161   C     0.75029   0.24961   0.44611   0.00000  Uiso   1.00
C162   C     0.25052   0.74975   0.55376   0.00000  Uiso   1.00
C163   C     0.25014   0.25053   0.44624   0.00000  Uiso   1.00
C164   C     0.74991   0.75004   0.55385   0.00000  Uiso   1.00
C165   C     0.25040   0.75097   0.44611   0.00000  Uiso   1.00
C166   C     0.75018   0.24992   0.55382   0.00000  Uiso   1.00
C167   C     0.74980   0.74994   0.44610   0.00000  Uiso   1.00
C168   C     0.24986   0.24895   0.55394   0.00000  Uiso   1.00
C169   C     0.75065   0.05389   0.24999   0.00000  Uiso   1.00
C170   C     0.24975   0.94615   0.75032   0.00000  Uiso   1.00
C171   C     0.25076   0.05383   0.24977   0.00000  Uiso   1.00
C172   C     0.74923   0.94615   0.74982   0.00000  Uiso   1.00
C173   C     0.24998   0.05382   0.75062   0.00000  Uiso   1.00
C174   C     0.74936   0.94623   0.25020   0.00000  Uiso   1.00
C175   C     0.74954   0.05383   0.74906   0.00000  Uiso   1.00
C176   C     0.24920   0.94617   0.24986   0.00000  Uiso   1.00
C177   C     0.05379   0.74968   0.24991   0.00000  Uiso   1.00
C178   C     0.94617   0.24950   0.74944   0.00000  Uiso   1.00
C179   C     0.05388   0.74976   0.74995   0.00000  Uiso   1.00
C180   C     0.94616   0.25027   0.25018   0.00000  Uiso   1.00
C181   C     0.05389   0.25060   0.75038   0.00000  Uiso   1.00
C182   C     0.94616   0.74975   0.25044   0.00000  Uiso   1.00
C183   C     0.05392   0.25027   0.24980   0.00000  Uiso   1.00
C184   C     0.94614   0.74964   0.74962   0.00000  Uiso   1.00
C185   C     0.75014   0.74989   0.94624   0.00000  Uiso   1.00
C186   C     0.25008   0.24864   0.05395   0.00000  Uiso   1.00
C187   C     0.75035   0.24909   0.94610   0.00000  Uiso   1.00
C188   C     0.24997   0.74925   0.05381   0.00000  Uiso   1.00
C189   C     0.24924   0.25042   0.94626   0.00000  Uiso   1.00
C190   C     0.75003   0.74989   0.05383   0.00000  Uiso   1.00
C191   C     0.25048   0.75012   0.94617   0.00000  Uiso   1.00
C192   C     0.75095   0.24988   0.05377   0.00000  Uiso   1.00
O1     O     0.25000   0.25000   0.25000   0.00000  Uiso   1.00
O2     O     0.75000   0.75000   0.75000   0.00000  Uiso   1.00
O3     O     0.25000   0.25000   0.75000   0.00000  Uiso   1.00
O4     O     0.75000   0.75000   0.25000   0.00000  Uiso   1.00
O5     O     0.75000   0.25000   0.75000   0.00000  Uiso   1.00
O6     O     0.25000   0.75000   0.25000   0.00000  Uiso   1.00
O7     O     0.75000   0.25000   0.25000   0.00000  Uiso   1.00
O8     O     0.25000   0.75000   0.75000   0.00000  Uiso   1.00
O9     O     0.36580   0.28029   0.28029   0.00000  Uiso   1.00
O10    O     0.63420   0.71971   0.71971   0.00000  Uiso   1.00
O11    O     0.28029   0.28029   0.63420   0.00000  Uiso   1.00
O12    O     0.71971   0.71971   0.36580   0.00000  Uiso   1.00
O13    O     0.63420   0.28029   0.71971   0.00000  Uiso   1.00
O14    O     0.36580   0.71971   0.28029   0.00000  Uiso   1.00
O15    O     0.71971   0.28029   0.36580   0.00000  Uiso   1.00
O16    O     0.28029   0.71971   0.63420   0.00000  Uiso   1.00
O17    O     0.36580   0.71971   0.71971   0.00000  Uiso   1.00
O18    O     0.63420   0.28029   0.28029   0.00000  Uiso   1.00
O19    O     0.28029   0.71971   0.36580   0.00000  Uiso   1.00
O20    O     0.71971   0.28029   0.63420   0.00000  Uiso   1.00
O21    O     0.63420   0.71971   0.28029   0.00000  Uiso   1.00
O22    O     0.36580   0.28029   0.71971   0.00000  Uiso   1.00
O23    O     0.71971   0.71971   0.63420   0.00000  Uiso   1.00
O24    O     0.28029   0.28029   0.36580   0.00000  Uiso   1.00
O25    O     0.28029   0.36580   0.71971   0.00000  Uiso   1.00
O26    O     0.71971   0.63420   0.28029   0.00000  Uiso   1.00
O27    O     0.28029   0.63420   0.28029   0.00000  Uiso   1.00
O28    O     0.71971   0.36580   0.71971   0.00000  Uiso   1.00
O29    O     0.71971   0.63420   0.71971   0.00000  Uiso   1.00
O30    O     0.28029   0.36580   0.28029   0.00000  Uiso   1.00
O31    O     0.71971   0.36580   0.28029   0.00000  Uiso   1.00
O32    O     0.28029   0.63420   0.71971   0.00000  Uiso   1.00
O33    O     0.86580   0.78029   0.28029   0.00000  Uiso   1.00
O34    O     0.13420   0.21971   0.71971   0.00000  Uiso   1.00
O35    O     0.28029   0.78029   0.13420   0.00000  Uiso   1.00
O36    O     0.71971   0.21971   0.86580   0.00000  Uiso   1.00
O37    O     0.13420   0.78029   0.71971   0.00000  Uiso   1.00
O38    O     0.86580   0.21971   0.28029   0.00000  Uiso   1.00
O39    O     0.71971   0.78029   0.86580   0.00000  Uiso   1.00
O40    O     0.28029   0.21971   0.13420   0.00000  Uiso   1.00
O41    O     0.86580   0.21971   0.71971   0.00000  Uiso   1.00
O42    O     0.13420   0.78029   0.28029   0.00000  Uiso   1.00
O43    O     0.28029   0.21971   0.86580   0.00000  Uiso   1.00
O44    O     0.71971   0.78029   0.13420   0.00000  Uiso   1.00
O45    O     0.13420   0.21971   0.28029   0.00000  Uiso   1.00
O46    O     0.86580   0.78029   0.71971   0.00000  Uiso   1.00
O47    O     0.71971   0.21971   0.13420   0.00000  Uiso   1.00
O48    O     0.28029   0.78029   0.86580   0.00000  Uiso   1.00
O49    O     0.78029   0.71971   0.13420   0.00000  Uiso   1.00
O50    O     0.21971   0.28029   0.86580   0.00000  Uiso   1.00
O51    O     0.78029   0.86580   0.71971   0.00000  Uiso   1.00
O52    O     0.21971   0.13420   0.28029   0.00000  Uiso   1.00
O53    O     0.78029   0.28029   0.86580   0.00000  Uiso   1.00
O54    O     0.21971   0.71971   0.13420   0.00000  Uiso   1.00
O55    O     0.78029   0.13420   0.28029   0.00000  Uiso   1.00
O56    O     0.21971   0.86580   0.71971   0.00000  Uiso   1.00
O57    O     0.21971   0.28029   0.13420   0.00000  Uiso   1.00
O58    O     0.78029   0.71971   0.86580   0.00000  Uiso   1.00
O59    O     0.21971   0.13420   0.71971   0.00000  Uiso   1.00
O60    O     0.78029   0.86580   0.28029   0.00000  Uiso   1.00
O61    O     0.21971   0.71971   0.86580   0.00000  Uiso   1.00
O62    O     0.78029   0.28029   0.13420   0.00000  Uiso   1.00
O63    O     0.21971   0.86580   0.28029   0.00000  Uiso   1.00
O64    O     0.78029   0.13420   0.71971   0.00000  Uiso   1.00
O65    O     0.71971   0.86580   0.21971   0.00000  Uiso   1.00
O66    O     0.28029   0.13420   0.78029   0.00000  Uiso   1.00
O67    O     0.86580   0.28029   0.21971   0.00000  Uiso   1.00
O68    O     0.13420   0.71971   0.78029   0.00000  Uiso   1.00
O69    O     0.28029   0.13420   0.21971   0.00000  Uiso   1.00
O70    O     0.71971   0.86580   0.78029   0.00000  Uiso   1.00
O71    O     0.13420   0.71971   0.21971   0.00000  Uiso   1.00
O72    O     0.86580   0.28029   0.78029   0.00000  Uiso   1.00
O73    O     0.28029   0.86580   0.78029   0.00000  Uiso   1.00
O74    O     0.71971   0.13420   0.21971   0.00000  Uiso   1.00
O75    O     0.13420   0.28029   0.78029   0.00000  Uiso   1.00
O76    O     0.86580   0.71971   0.21971   0.00000  Uiso   1.00
O77    O     0.71971   0.13420   0.78029   0.00000  Uiso   1.00
O78    O     0.28029   0.86580   0.21971   0.00000  Uiso   1.00
O79    O     0.86580   0.71971   0.78029   0.00000  Uiso   1.00
O80    O     0.13420   0.28029   0.21971   0.00000  Uiso   1.00
O81    O     0.36580   0.78029   0.78029   0.00000  Uiso   1.00
O82    O     0.63420   0.21971   0.21971   0.00000  Uiso   1.00
O83    O     0.78029   0.78029   0.63420   0.00000  Uiso   1.00
O84    O     0.21971   0.21971   0.36580   0.00000  Uiso   1.00
O85    O     0.63420   0.78029   0.21971   0.00000  Uiso   1.00
O86    O     0.36580   0.21971   0.78029   0.00000  Uiso   1.00
O87    O     0.21971   0.78029   0.36580   0.00000  Uiso   1.00
O88    O     0.78029   0.21971   0.63420   0.00000  Uiso   1.00
O89    O     0.36580   0.21971   0.21971   0.00000  Uiso   1.00
O90    O     0.63420   0.78029   0.78029   0.00000  Uiso   1.00
O91    O     0.78029   0.21971   0.36580   0.00000  Uiso   1.00
O92    O     0.21971   0.78029   0.63420   0.00000  Uiso   1.00
O93    O     0.63420   0.21971   0.78029   0.00000  Uiso   1.00
O94    O     0.36580   0.78029   0.21971   0.00000  Uiso   1.00
O95    O     0.21971   0.21971   0.63420   0.00000  Uiso   1.00
O96    O     0.78029   0.78029   0.36580   0.00000  Uiso   1.00
O97    O     0.78029   0.36580   0.21971   0.00000  Uiso   1.00
O98    O     0.21971   0.63420   0.78029   0.00000  Uiso   1.00
O99    O     0.78029   0.63420   0.78029   0.00000  Uiso   1.00
O100   O     0.21971   0.36580   0.21971   0.00000  Uiso   1.00
O101   O     0.21971   0.63420   0.21971   0.00000  Uiso   1.00
O102   O     0.78029   0.36580   0.78029   0.00000  Uiso   1.00
O103   O     0.21971   0.36580   0.78029   0.00000  Uiso   1.00
O104   O     0.78029   0.63420   0.21971   0.00000  Uiso   1.00
Zn1    Zn    0.20660   0.29340   0.20660   0.00000  Uiso   1.00
Zn2    Zn    0.79340   0.70660   0.79340   0.00000  Uiso   1.00
Zn3    Zn    0.20660   0.29340   0.79340   0.00000  Uiso   1.00
Zn4    Zn    0.79340   0.70660   0.20660   0.00000  Uiso   1.00
Zn5    Zn    0.79340   0.29340   0.79340   0.00000  Uiso   1.00
Zn6    Zn    0.20660   0.70660   0.20660   0.00000  Uiso   1.00
Zn7    Zn    0.79340   0.29340   0.20660   0.00000  Uiso   1.00
Zn8    Zn    0.20660   0.70660   0.79340   0.00000  Uiso   1.00
Zn9    Zn    0.29340   0.79340   0.79340   0.00000  Uiso   1.00
Zn10   Zn    0.70660   0.20660   0.20660   0.00000  Uiso   1.00
Zn11   Zn    0.29340   0.20660   0.79340   0.00000  Uiso   1.00
Zn12   Zn    0.70660   0.79340   0.20660   0.00000  Uiso   1.00
Zn13   Zn    0.29340   0.20660   0.20660   0.00000  Uiso   1.00
Zn14   Zn    0.70660   0.79340   0.79340   0.00000  Uiso   1.00
Zn15   Zn    0.29340   0.79340   0.20660   0.00000  Uiso   1.00
Zn16   Zn    0.70660   0.20660   0.79340   0.00000  Uiso   1.00
Zn17   Zn    0.79340   0.20660   0.70660   0.00000  Uiso   1.00
Zn18   Zn    0.20660   0.79340   0.29340   0.00000  Uiso   1.00
Zn19   Zn    0.20660   0.20660   0.70660   0.00000  Uiso   1.00
Zn20   Zn    0.79340   0.79340   0.29340   0.00000  Uiso   1.00
Zn21   Zn    0.20660   0.79340   0.70660   0.00000  Uiso   1.00
Zn22   Zn    0.79340   0.20660   0.29340   0.00000  Uiso   1.00
Zn23   Zn    0.79340   0.79340   0.70660   0.00000  Uiso   1.00
Zn24   Zn    0.20660   0.20660   0.29340   0.00000  Uiso   1.00
Zn25   Zn    0.70660   0.29340   0.70660   0.00000  Uiso   1.00
Zn26   Zn    0.29340   0.70660   0.29340   0.00000  Uiso   1.00
Zn27   Zn    0.70660   0.29340   0.29340   0.00000  Uiso   1.00
Zn28   Zn    0.29340   0.70660   0.70660   0.00000  Uiso   1.00
Zn29   Zn    0.29340   0.29340   0.29340   0.00000  Uiso   1.00
Zn30   Zn    0.70660   0.70660   0.70660   0.00000  Uiso   1.00
Zn31   Zn    0.29340   0.29340   0.70660   0.00000  Uiso   1.00
Zn32   Zn    0.70660   0.70660   0.29340   0.00000  Uiso   1.00
C193   C     0.26459   0.44428   0.15298   0.00000  Uiso   1.00
O105   O     0.29510   0.40835   0.15061   0.00000  Uiso   1.00
O106   O     0.23682   0.45878   0.10906   0.00000  Uiso   1.00
H1     H     0.24535   0.43662   0.07793   0.00000  Uiso   1.00
C194   C     0.79109   0.55625   0.66198   0.00000  Uiso   1.00
O107   O     0.77965   0.54289   0.61817   0.00000  Uiso   1.00
O108   O     0.82322   0.59895   0.66956   0.00000  Uiso   1.00
H2     H     0.83414   0.61565   0.63597   0.00000  Uiso   1.00
C195   C     0.21207   0.44441   0.66004   0.00000  Uiso   1.00
O109   O     0.23859   0.41316   0.63660   0.00000  Uiso   1.00
O110   O     0.16151   0.45437   0.64402   0.00000  Uiso   1.00
H3     H     0.15114   0.43290   0.61296   0.00000  Uiso   1.00
C196   C     0.71288   0.55655   0.15973   0.00000  Uiso   1.00
O111   O     0.68383   0.59343   0.16470   0.00000  Uiso   1.00
O112   O     0.72924   0.54164   0.11050   0.00000  Uiso   1.00
H4     H     0.71440   0.56431   0.08230   0.00000  Uiso   1.00
C197   C     0.79753   0.44392   0.66544   0.00000  Uiso   1.00
O113   O     0.84248   0.45357   0.65480   0.00000  Uiso   1.00
O114   O     0.77069   0.40634   0.63751   0.00000  Uiso   1.00
H5     H     0.79274   0.38942   0.60996   0.00000  Uiso   1.00
C198   C     0.26840   0.55537   0.15428   0.00000  Uiso   1.00
O115   O     0.23408   0.57830   0.13144   0.00000  Uiso   1.00
O116   O     0.31855   0.55456   0.13451   0.00000  Uiso   1.00
H6     H     0.32185   0.57505   0.10138   0.00000  Uiso   1.00
C199   C     0.70777   0.44469   0.16150   0.00000  Uiso   1.00
O117   O     0.73248   0.41165   0.13855   0.00000  Uiso   1.00
O118   O     0.65760   0.45671   0.14566   0.00000  Uiso   1.00
H7     H     0.64592   0.43513   0.11515   0.00000  Uiso   1.00
C200   C     0.21796   0.55592   0.65773   0.00000  Uiso   1.00
O119   O     0.18831   0.59256   0.66121   0.00000  Uiso   1.00
O120   O     0.23655   0.54073   0.60932   0.00000  Uiso   1.00
H8     H     0.22278   0.56308   0.58036   0.00000  Uiso   1.00
C201   C     0.44275   0.66044   0.78716   0.00000  Uiso   1.00
O121   O     0.40775   0.66612   0.81829   0.00000  Uiso   1.00
O122   O     0.45515   0.61106   0.76916   0.00000  Uiso   1.00
H9     H     0.43237   0.58331   0.78466   0.00000  Uiso   1.00
C202   C     0.55655   0.15988   0.28617   0.00000  Uiso   1.00
O123   O     0.59300   0.16483   0.31575   0.00000  Uiso   1.00
O124   O     0.54208   0.11066   0.26933   0.00000  Uiso   1.00
H10    H     0.56470   0.08244   0.28424   0.00000  Uiso   1.00
C203   C     0.44536   0.15799   0.71632   0.00000  Uiso   1.00
O125   O     0.41435   0.13582   0.74405   0.00000  Uiso   1.00
O126   O     0.45578   0.13893   0.66692   0.00000  Uiso   1.00
H11    H     0.43479   0.10702   0.65837   0.00000  Uiso   1.00
C204   C     0.55611   0.84658   0.25830   0.00000  Uiso   1.00
O127   O     0.57688   0.85660   0.29945   0.00000  Uiso   1.00
O128   O     0.56070   0.88036   0.21659   0.00000  Uiso   1.00
H12    H     0.58193   0.91206   0.22531   0.00000  Uiso   1.00
C205   C     0.44458   0.16118   0.28970   0.00000  Uiso   1.00
O129   O     0.45154   0.14903   0.33474   0.00000  Uiso   1.00
O130   O     0.41048   0.13283   0.25894   0.00000  Uiso   1.00
H13    H     0.39354   0.10346   0.27841   0.00000  Uiso   1.00
C206   C     0.55468   0.66000   0.78984   0.00000  Uiso   1.00
O131   O     0.58802   0.63805   0.76467   0.00000  Uiso   1.00
O132   O     0.54189   0.64198   0.83901   0.00000  Uiso   1.00
H14    H     0.56319   0.61091   0.84957   0.00000  Uiso   1.00
C207   C     0.44433   0.84744   0.25735   0.00000  Uiso   1.00
O133   O     0.45365   0.88331   0.22824   0.00000  Uiso   1.00
O134   O     0.40624   0.85278   0.29516   0.00000  Uiso   1.00
H15    H     0.38916   0.88798   0.29438   0.00000  Uiso   1.00
C208   C     0.55703   0.15836   0.71790   0.00000  Uiso   1.00
O135   O     0.59231   0.16211   0.68678   0.00000  Uiso   1.00
O136   O     0.54416   0.11005   0.73814   0.00000  Uiso   1.00
H16    H     0.56679   0.08136   0.72409   0.00000  Uiso   1.00
C209   C     0.65981   0.21394   0.55536   0.00000  Uiso   1.00
O137   O     0.63608   0.24143   0.58551   0.00000  Uiso   1.00
O138   O     0.64360   0.16326   0.54634   0.00000  Uiso   1.00
H17    H     0.61213   0.15368   0.56747   0.00000  Uiso   1.00
C210   C     0.15612   0.72914   0.44364   0.00000  Uiso   1.00
O139   O     0.15348   0.68859   0.41957   0.00000  Uiso   1.00
O140   O     0.11511   0.76417   0.44259   0.00000  Uiso   1.00
H18    H     0.08514   0.75142   0.42088   0.00000  Uiso   1.00
C211   C     0.15594   0.27327   0.55582   0.00000  Uiso   1.00
O141   O     0.14035   0.31778   0.55407   0.00000  Uiso   1.00
O142   O     0.12868   0.23601   0.58363   0.00000  Uiso   1.00
H19    H     0.09713   0.25078   0.60147   0.00000  Uiso   1.00
C212   C     0.84437   0.72638   0.44406   0.00000  Uiso   1.00
O143   O     0.88504   0.74660   0.45695   0.00000  Uiso   1.00
O144   O     0.84343   0.69198   0.40247   0.00000  Uiso   1.00
H20    H     0.87873   0.68706   0.38639   0.00000  Uiso   1.00
C213   C     0.15599   0.72780   0.55570   0.00000  Uiso   1.00
O145   O     0.11620   0.75208   0.54834   0.00000  Uiso   1.00
O146   O     0.15681   0.68762   0.59158   0.00000  Uiso   1.00
H21    H     0.12184   0.68178   0.60801   0.00000  Uiso   1.00
C214   C     0.65796   0.21857   0.44402   0.00000  Uiso   1.00
O147   O     0.66132   0.18774   0.40839   0.00000  Uiso   1.00
O148   O     0.60974   0.23833   0.45809   0.00000  Uiso   1.00
H22    H     0.58075   0.22440   0.43579   0.00000  Uiso   1.00
C215   C     0.84194   0.71868   0.55542   0.00000  Uiso   1.00
O149   O     0.85716   0.67448   0.54881   0.00000  Uiso   1.00
O150   O     0.86882   0.75197   0.58832   0.00000  Uiso   1.00
H23    H     0.89951   0.73467   0.60535   0.00000  Uiso   1.00
C216   C     0.15386   0.26661   0.44458   0.00000  Uiso   1.00
O151   O     0.11492   0.24348   0.45782   0.00000  Uiso   1.00
O152   O     0.15188   0.30050   0.40279   0.00000  Uiso   1.00
H24    H     0.11610   0.30255   0.38719   0.00000  Uiso   1.00
C217   C     0.76308   0.94366   0.15437   0.00000  Uiso   1.00
O153   O     0.80432   0.92213   0.14650   0.00000  Uiso   1.00
O154   O     0.72306   0.93986   0.11842   0.00000  Uiso   1.00
H25    H     0.73300   0.91844   0.08719   0.00000  Uiso   1.00
C218   C     0.22453   0.05545   0.84434   0.00000  Uiso   1.00
O155   O     0.25558   0.08274   0.86712   0.00000  Uiso   1.00
O156   O     0.17450   0.04942   0.86353   0.00000  Uiso   1.00
H26    H     0.16840   0.07013   0.89617   0.00000  Uiso   1.00
C219   C     0.26488   0.94402   0.34532   0.00000  Uiso   1.00
O157   O     0.30674   0.92360   0.35284   0.00000  Uiso   1.00
O158   O     0.22522   0.93918   0.38151   0.00000  Uiso   1.00
H27    H     0.23593   0.91801   0.41258   0.00000  Uiso   1.00
C220   C     0.70840   0.05516   0.66095   0.00000  Uiso   1.00
O159   O     0.73332   0.08787   0.63792   0.00000  Uiso   1.00
O160   O     0.65804   0.04361   0.64537   0.00000  Uiso   1.00
H28    H     0.64645   0.06517   0.61489   0.00000  Uiso   1.00
C221   C     0.23153   0.94445   0.84634   0.00000  Uiso   1.00
O161   O     0.20214   0.90757   0.84751   0.00000  Uiso   1.00
O162   O     0.25674   0.96013   0.89142   0.00000  Uiso   1.00
H29    H     0.24749   0.93795   0.92225   0.00000  Uiso   1.00
C222   C     0.76698   0.05582   0.15422   0.00000  Uiso   1.00
O163   O     0.74248   0.04626   0.11505   0.00000  Uiso   1.00
O164   O     0.80474   0.09436   0.15366   0.00000  Uiso   1.00
H30    H     0.80778   0.11177   0.11881   0.00000  Uiso   1.00
C223   C     0.71368   0.94326   0.65914   0.00000  Uiso   1.00
O165   O     0.68421   0.90672   0.66399   0.00000  Uiso   1.00
O166   O     0.73045   0.95779   0.61000   0.00000  Uiso   1.00
H31    H     0.71559   0.93512   0.58175   0.00000  Uiso   1.00
C224   C     0.26767   0.05619   0.34555   0.00000  Uiso   1.00
O167   O     0.24367   0.04633   0.38491   0.00000  Uiso   1.00
O168   O     0.30499   0.09518   0.34596   0.00000  Uiso   1.00
H32    H     0.30832   0.11249   0.38090   0.00000  Uiso   1.00
C225   C     0.78567   0.05698   0.83862   0.00000  Uiso   1.00
O169   O     0.82691   0.07966   0.83542   0.00000  Uiso   1.00
O170   O     0.75642   0.05998   0.88382   0.00000  Uiso   1.00
H33    H     0.77366   0.08180   0.91138   0.00000  Uiso   1.00
C226   C     0.23416   0.94400   0.15371   0.00000  Uiso   1.00
O171   O     0.25870   0.95522   0.11502   0.00000  Uiso   1.00
O172   O     0.19781   0.90418   0.15184   0.00000  Uiso   1.00
H34    H     0.19548   0.88783   0.11639   0.00000  Uiso   1.00
C227   C     0.27304   0.05636   0.65681   0.00000  Uiso   1.00
O173   O     0.31439   0.07898   0.65454   0.00000  Uiso   1.00
O174   O     0.23807   0.05929   0.61588   0.00000  Uiso   1.00
H35    H     0.25157   0.08094   0.58627   0.00000  Uiso   1.00
C228   C     0.73639   0.94489   0.34675   0.00000  Uiso   1.00
O175   O     0.76178   0.95668   0.38477   0.00000  Uiso   1.00
O176   O     0.70019   0.90505   0.34980   0.00000  Uiso   1.00
H36    H     0.69861   0.88940   0.38555   0.00000  Uiso   1.00
C229   C     0.23237   0.05538   0.15422   0.00000  Uiso   1.00
O177   O     0.26699   0.07809   0.13182   0.00000  Uiso   1.00
O178   O     0.18288   0.05503   0.13281   0.00000  Uiso   1.00
H37    H     0.15726   0.03503   0.15451   0.00000  Uiso   1.00
C230   C     0.78614   0.94458   0.83958   0.00000  Uiso   1.00
O179   O     0.76950   0.95360   0.88279   0.00000  Uiso   1.00
O180   O     0.82429   0.90706   0.83262   0.00000  Uiso   1.00
H38    H     0.83569   0.89099   0.86634   0.00000  Uiso   1.00
C231   C     0.73296   0.05619   0.34526   0.00000  Uiso   1.00
O181   O     0.68867   0.05873   0.36131   0.00000  Uiso   1.00
O182   O     0.77322   0.07965   0.37245   0.00000  Uiso   1.00
H39    H     0.76075   0.09834   0.40450   0.00000  Uiso   1.00
C232   C     0.27168   0.94394   0.65562   0.00000  Uiso   1.00
O183   O     0.24878   0.95327   0.61548   0.00000  Uiso   1.00
O184   O     0.30951   0.90545   0.65667   0.00000  Uiso   1.00
H40    H     0.31427   0.88807   0.62194   0.00000  Uiso   1.00
C233   C     0.94403   0.84581   0.23550   0.00000  Uiso   1.00
O185   O     0.95175   0.88377   0.26248   0.00000  Uiso   1.00
O186   O     0.90742   0.84784   0.19593   0.00000  Uiso   1.00
H41    H     0.89006   0.88281   0.19349   0.00000  Uiso   1.00
C234   C     0.05670   0.16452   0.79584   0.00000  Uiso   1.00
O187   O     0.09370   0.17244   0.82407   0.00000  Uiso   1.00
O188   O     0.04183   0.11383   0.78464   0.00000  Uiso   1.00
H42    H     0.06460   0.08730   0.80220   0.00000  Uiso   1.00
C235   C     0.94488   0.65650   0.72117   0.00000  Uiso   1.00
O189   O     0.91560   0.63403   0.75049   0.00000  Uiso   1.00
O190   O     0.95369   0.63713   0.67158   0.00000  Uiso   1.00
H43    H     0.93346   0.60441   0.66438   0.00000  Uiso   1.00
C236   C     0.05561   0.34540   0.27271   0.00000  Uiso   1.00
O191   O     0.09367   0.34556   0.30057   0.00000  Uiso   1.00
O192   O     0.03854   0.39152   0.25052   0.00000  Uiso   1.00
H44    H     0.06081   0.42213   0.26049   0.00000  Uiso   1.00
C237   C     0.94465   0.16664   0.80029   0.00000  Uiso   1.00
O193   O     0.91084   0.14222   0.77810   0.00000  Uiso   1.00
O194   O     0.95706   0.15519   0.85153   0.00000  Uiso   1.00
H45    H     0.93514   0.12625   0.86609   0.00000  Uiso   1.00
C238   C     0.05607   0.84563   0.23679   0.00000  Uiso   1.00
O195   O     0.07975   0.85213   0.19654   0.00000  Uiso   1.00
O196   O     0.05745   0.88314   0.27556   0.00000  Uiso   1.00
H46    H     0.07902   0.91420   0.26559   0.00000  Uiso   1.00
C239   C     0.94491   0.34177   0.28372   0.00000  Uiso   1.00
O197   O     0.91343   0.36421   0.25672   0.00000  Uiso   1.00
O198   O     0.95623   0.36027   0.33313   0.00000  Uiso   1.00
H47    H     0.93589   0.39246   0.34219   0.00000  Uiso   1.00
C240   C     0.05577   0.65417   0.72946   0.00000  Uiso   1.00
O199   O     0.09280   0.65362   0.70025   0.00000  Uiso   1.00
O200   O     0.04002   0.60854   0.75353   0.00000  Uiso   1.00
H48    H     0.06230   0.57789   0.74369   0.00000  Uiso   1.00
C241   C     0.05597   0.15655   0.22300   0.00000  Uiso   1.00
O201   O     0.04298   0.11504   0.24126   0.00000  Uiso   1.00
O202   O     0.09790   0.15897   0.18914   0.00000  Uiso   1.00
H49    H     0.11453   0.12404   0.18326   0.00000  Uiso   1.00
C242   C     0.94415   0.84327   0.77538   0.00000  Uiso   1.00
O203   O     0.94603   0.85878   0.82004   0.00000  Uiso   1.00
O204   O     0.91646   0.87078   0.73802   0.00000  Uiso   1.00
H50    H     0.89898   0.90257   0.75277   0.00000  Uiso   1.00
C243   C     0.05544   0.33286   0.69847   0.00000  Uiso   1.00
O205   O     0.09010   0.35686   0.71972   0.00000  Uiso   1.00
O206   O     0.04212   0.34424   0.64746   0.00000  Uiso   1.00
H51    H     0.06411   0.37280   0.63229   0.00000  Uiso   1.00
C244   C     0.94453   0.65289   0.26351   0.00000  Uiso   1.00
O207   O     0.90924   0.65021   0.29470   0.00000  Uiso   1.00
O208   O     0.95843   0.60928   0.23485   0.00000  Uiso   1.00
H52    H     0.93644   0.57807   0.24336   0.00000  Uiso   1.00
C245   C     0.05561   0.84453   0.77252   0.00000  Uiso   1.00
O209   O     0.04396   0.88489   0.75102   0.00000  Uiso   1.00
O210   O     0.09561   0.84392   0.80870   0.00000  Uiso   1.00
H53    H     0.11144   0.87929   0.81390   0.00000  Uiso   1.00
C246   C     0.94420   0.15903   0.21697   0.00000  Uiso   1.00
O211   O     0.94892   0.14563   0.17196   0.00000  Uiso   1.00
O212   O     0.91284   0.13078   0.25046   0.00000  Uiso   1.00
H54    H     0.89534   0.10057   0.23274   0.00000  Uiso   1.00
C247   C     0.05561   0.65401   0.26573   0.00000  Uiso   1.00
O213   O     0.07652   0.63092   0.23027   0.00000  Uiso   1.00
O214   O     0.05742   0.63437   0.31585   0.00000  Uiso   1.00
H55    H     0.07774   0.60100   0.31808   0.00000  Uiso   1.00
C248   C     0.94341   0.33573   0.70424   0.00000  Uiso   1.00
O215   O     0.90622   0.32803   0.67621   0.00000  Uiso   1.00
O216   O     0.95866   0.38631   0.71542   0.00000  Uiso   1.00
H56    H     0.93605   0.41302   0.69796   0.00000  Uiso   1.00
C249   C     0.84580   0.76331   0.05637   0.00000  Uiso   1.00
O217   O     0.85273   0.80469   0.07806   0.00000  Uiso   1.00
O218   O     0.88252   0.72397   0.06030   0.00000  Uiso   1.00
H57    H     0.91347   0.73454   0.08178   0.00000  Uiso   1.00
C250   C     0.15909   0.21386   0.94469   0.00000  Uiso   1.00
O219   O     0.13589   0.24147   0.91442   0.00000  Uiso   1.00
O220   O     0.14222   0.16349   0.95358   0.00000  Uiso   1.00
H58    H     0.11057   0.15432   0.93251   0.00000  Uiso   1.00
C251   C     0.65987   0.28380   0.05643   0.00000  Uiso   1.00
O221   O     0.61672   0.26765   0.04627   0.00000  Uiso   1.00
O222   O     0.66643   0.31998   0.09598   0.00000  Uiso   1.00
H59    H     0.63273   0.32961   0.11330   0.00000  Uiso   1.00
C252   C     0.34575   0.73181   0.94457   0.00000  Uiso   1.00
O223   O     0.36357   0.68811   0.94511   0.00000  Uiso   1.00
O224   O     0.37139   0.77130   0.91836   0.00000  Uiso   1.00
H60    H     0.40382   0.75872   0.90041   0.00000  Uiso   1.00
C253   C     0.15851   0.21574   0.05644   0.00000  Uiso   1.00
O225   O     0.16289   0.18506   0.09199   0.00000  Uiso   1.00
O226   O     0.10973   0.23449   0.04292   0.00000  Uiso   1.00
H61    H     0.08126   0.21989   0.06542   0.00000  Uiso   1.00
C254   C     0.84696   0.76075   0.94438   0.00000  Uiso   1.00
O227   O     0.88407   0.73327   0.95407   0.00000  Uiso   1.00
O228   O     0.85060   0.79807   0.90569   0.00000  Uiso   1.00
H62    H     0.88570   0.79836   0.88843   0.00000  Uiso   1.00
C255   C     0.34624   0.73394   0.05611   0.00000  Uiso   1.00
O229   O     0.38513   0.75810   0.04472   0.00000  Uiso   1.00
O230   O     0.34779   0.69792   0.09621   0.00000  Uiso   1.00
H63    H     0.38309   0.69565   0.11292   0.00000  Uiso   1.00
C256   C     0.65950   0.28192   0.94389   0.00000  Uiso   1.00
O231   O     0.66036   0.32400   0.92264   0.00000  Uiso   1.00
O232   O     0.61612   0.25016   0.93973   0.00000  Uiso   1.00
H64    H     0.58767   0.26642   0.91836   0.00000  Uiso   1.00
C257   C     0.15522   0.76667   0.94350   0.00000  Uiso   1.00
O233   O     0.14946   0.80867   0.92284   0.00000  Uiso   1.00
O234   O     0.11758   0.72840   0.93837   0.00000  Uiso   1.00
H65    H     0.08704   0.74022   0.91696   0.00000  Uiso   1.00
C258   C     0.84135   0.21316   0.05495   0.00000  Uiso   1.00
O235   O     0.86309   0.23923   0.08774   0.00000  Uiso   1.00
O236   O     0.86014   0.16404   0.04271   0.00000  Uiso   1.00
H66    H     0.89147   0.15425   0.06400   0.00000  Uiso   1.00
C259   C     0.34074   0.28317   0.94430   0.00000  Uiso   1.00
O237   O     0.38332   0.26572   0.95489   0.00000  Uiso   1.00
O238   O     0.33567   0.32038   0.90571   0.00000  Uiso   1.00
H67    H     0.37024   0.33138   0.89134   0.00000  Uiso   1.00
C260   C     0.65430   0.73596   0.05607   0.00000  Uiso   1.00
O239   O     0.64818   0.69520   0.07898   0.00000  Uiso   1.00
O240   O     0.61658   0.77446   0.05839   0.00000  Uiso   1.00
H68    H     0.58570   0.76387   0.07993   0.00000  Uiso   1.00
C261   C     0.84256   0.21795   0.94332   0.00000  Uiso   1.00
O241   O     0.83911   0.18771   0.90719   0.00000  Uiso   1.00
O242   O     0.89079   0.23764   0.95741   0.00000  Uiso   1.00
H69    H     0.91971   0.22405   0.93482   0.00000  Uiso   1.00
C262   C     0.15333   0.76200   0.05536   0.00000  Uiso   1.00
O243   O     0.11593   0.73515   0.04505   0.00000  Uiso   1.00
O244   O     0.14989   0.79902   0.09447   0.00000  Uiso   1.00
H70    H     0.11457   0.79980   0.11124   0.00000  Uiso   1.00
C263   C     0.65389   0.73619   0.94396   0.00000  Uiso   1.00
O245   O     0.61595   0.76294   0.95246   0.00000  Uiso   1.00
O246   O     0.65176   0.69751   0.90634   0.00000  Uiso   1.00
H71    H     0.61699   0.69588   0.88855   0.00000  Uiso   1.00
C264   C     0.34079   0.28275   0.05592   0.00000  Uiso   1.00
O247   O     0.35255   0.32855   0.05451   0.00000  Uiso   1.00
O248   O     0.37099   0.24751   0.08366   0.00000  Uiso   1.00
H72    H     0.40167   0.26451   0.10106   0.00000  Uiso   1.00
C265   C     0.70312   0.44469   0.83553   0.00000  Uiso   1.00
O249   O     0.72596   0.41040   0.85848   0.00000  Uiso   1.00
O250   O     0.65297   0.45817   0.85019   0.00000  Uiso   1.00
H73    H     0.64009   0.43709   0.88047   0.00000  Uiso   1.00
C266   C     0.23239   0.55646   0.34471   0.00000  Uiso   1.00
O251   O     0.19308   0.58242   0.34783   0.00000  Uiso   1.00
O252   O     0.26747   0.55540   0.38564   0.00000  Uiso   1.00
H74    H     0.25581   0.57730   0.41593   0.00000  Uiso   1.00
C267   C     0.78918   0.44385   0.33799   0.00000  Uiso   1.00
O253   O     0.77467   0.45443   0.38164   0.00000  Uiso   1.00
O254   O     0.82565   0.40488   0.33031   0.00000  Uiso   1.00
H75    H     0.83845   0.38986   0.36397   0.00000  Uiso   1.00
C268   C     0.28062   0.55615   0.84225   0.00000  Uiso   1.00
O255   O     0.26386   0.54344   0.88447   0.00000  Uiso   1.00
O256   O     0.31449   0.59796   0.83837   0.00000  Uiso   1.00
H76    H     0.32182   0.61466   0.87300   0.00000  Uiso   1.00
C269   C     0.23430   0.44444   0.34533   0.00000  Uiso   1.00
O257   O     0.26282   0.45001   0.38250   0.00000  Uiso   1.00
O258   O     0.19262   0.41035   0.34802   0.00000  Uiso   1.00
H77    H     0.18965   0.39338   0.38308   0.00000  Uiso   1.00
C270   C     0.70909   0.55647   0.83835   0.00000  Uiso   1.00
O259   O     0.67976   0.59294   0.83218   0.00000  Uiso   1.00
O260   O     0.72364   0.54188   0.88818   0.00000  Uiso   1.00
H78    H     0.70740   0.56444   0.91576   0.00000  Uiso   1.00
C271   C     0.28363   0.44417   0.84051   0.00000  Uiso   1.00
O261   O     0.32915   0.44665   0.85279   0.00000  Uiso   1.00
O262   O     0.24890   0.41551   0.87017   0.00000  Uiso   1.00
H79    H     0.26593   0.39862   0.90105   0.00000  Uiso   1.00
C272   C     0.79016   0.55581   0.33797   0.00000  Uiso   1.00
O263   O     0.83565   0.55000   0.34914   0.00000  Uiso   1.00
O264   O     0.75902   0.58868   0.36732   0.00000  Uiso   1.00
H80    H     0.77852   0.60561   0.39672   0.00000  Uiso   1.00
C273   C     0.44309   0.34018   0.21480   0.00000  Uiso   1.00
O265   O     0.45470   0.38316   0.23060   0.00000  Uiso   1.00
O266   O     0.40224   0.33440   0.18005   0.00000  Uiso   1.00
H81    H     0.38604   0.36863   0.17034   0.00000  Uiso   1.00
C274   C     0.55686   0.83853   0.71369   0.00000  Uiso   1.00
O267   O     0.58055   0.83594   0.67302   0.00000  Uiso   1.00
O268   O     0.55723   0.88399   0.74274   0.00000  Uiso   1.00
H82    H     0.57865   0.91217   0.72613   0.00000  Uiso   1.00
C275   C     0.44434   0.65328   0.24081   0.00000  Uiso   1.00
O269   O     0.41454   0.64791   0.20460   0.00000  Uiso   1.00
O270   O     0.45093   0.61339   0.27645   0.00000  Uiso   1.00
H83    H     0.42913   0.58200   0.26799   0.00000  Uiso   1.00
C276   C     0.55472   0.34067   0.78639   0.00000  Uiso   1.00
O271   O     0.58754   0.36315   0.76110   0.00000  Uiso   1.00
O272   O     0.54204   0.35820   0.83582   0.00000  Uiso   1.00
H84    H     0.56275   0.38964   0.84641   0.00000  Uiso   1.00
C277   C     0.44546   0.84001   0.71265   0.00000  Uiso   1.00
O273   O     0.45291   0.85404   0.66827   0.00000  Uiso   1.00
O274   O     0.41151   0.86748   0.74433   0.00000  Uiso   1.00
H85    H     0.39515   0.89793   0.72607   0.00000  Uiso   1.00
C278   C     0.55518   0.33927   0.21077   0.00000  Uiso   1.00
O275   O     0.54609   0.35324   0.16664   0.00000  Uiso   1.00
O276   O     0.59120   0.36606   0.24069   0.00000  Uiso   1.00
H86    H     0.60777   0.39571   0.22136   0.00000  Uiso   1.00
C279   C     0.44390   0.34415   0.77492   0.00000  Uiso   1.00
O277   O     0.40523   0.34337   0.80187   0.00000  Uiso   1.00
O278   O     0.46122   0.39099   0.75450   0.00000  Uiso   1.00
H87    H     0.43863   0.42122   0.76493   0.00000  Uiso   1.00
C280   C     0.55597   0.65362   0.23989   0.00000  Uiso   1.00
O279   O     0.55705   0.62156   0.27433   0.00000  Uiso   1.00
O280   O     0.58313   0.64416   0.19429   0.00000  Uiso   1.00
H88    H     0.57927   0.67304   0.16826   0.00000  Uiso   1.00
C281   C     0.34455   0.77409   0.55573   0.00000  Uiso   1.00
O281   O     0.36131   0.81809   0.55273   0.00000  Uiso   1.00
O282   O     0.37074   0.73704   0.58484   0.00000  Uiso   1.00
H89    H     0.40247   0.75159   0.60256   0.00000  Uiso   1.00
C282   C     0.84468   0.27479   0.44447   0.00000  Uiso   1.00
O283   O     0.84397   0.30242   0.40633   0.00000  Uiso   1.00
O284   O     0.89144   0.25389   0.46150   0.00000  Uiso   1.00
H90    H     0.92171   0.26457   0.43916   0.00000  Uiso   1.00
C283   C     0.65803   0.78211   0.55529   0.00000  Uiso   1.00
O285   O     0.63515   0.75432   0.58572   0.00000  Uiso   1.00
O286   O     0.64004   0.83200   0.54541   0.00000  Uiso   1.00
H91    H     0.60810   0.84088   0.56619   0.00000  Uiso   1.00
C284   C     0.34439   0.22709   0.44443   0.00000  Uiso   1.00
O287   O     0.36099   0.18295   0.44630   0.00000  Uiso   1.00
O288   O     0.37086   0.26485   0.41655   0.00000  Uiso   1.00
H92    H     0.40268   0.25071   0.39868   0.00000  Uiso   1.00
C285   C     0.84107   0.28495   0.55532   0.00000  Uiso   1.00
O289   O     0.86353   0.25826   0.58703   0.00000  Uiso   1.00
O290   O     0.85926   0.33445   0.54400   0.00000  Uiso   1.00
H93    H     0.89078   0.34407   0.56509   0.00000  Uiso   1.00
C286   C     0.34557   0.77129   0.44399   0.00000  Uiso   1.00
O291   O     0.38572   0.74954   0.45595   0.00000  Uiso   1.00
O292   O     0.34525   0.80658   0.40324   0.00000  Uiso   1.00
H94    H     0.38050   0.81065   0.38682   0.00000  Uiso   1.00
C287   C     0.34477   0.22760   0.55632   0.00000  Uiso   1.00
O293   O     0.38534   0.24867   0.54459   0.00000  Uiso   1.00
O294   O     0.34365   0.19241   0.59715   0.00000  Uiso   1.00
H95    H     0.37855   0.18821   0.61426   0.00000  Uiso   1.00
C288   C     0.65424   0.77030   0.44437   0.00000  Uiso   1.00
O295   O     0.61422   0.75022   0.45928   0.00000  Uiso   1.00
O296   O     0.65358   0.80160   0.40052   0.00000  Uiso   1.00
H96    H     0.61796   0.80432   0.38456   0.00000  Uiso   1.00
loop_
_geom_bond_atom_site_label_1
_geom_bond_atom_site_label_2
_geom_bond_distance
_geom_bond_site_symmetry_2
_ccdc_geom_bond_type
C1     O89     1.272   .     A
C1     C154    1.455   .     S
C1     O9      1.276   .     A
C2     O10     1.271   .     A
C2     O90     1.277   .     A
C2     C153    1.456   .     S
C3     O11     1.277   .     A
C3     O95     1.272   .     A
C3     C168    1.455   .     S
C4     O96     1.276   .     A
C4     C167    1.455   .     S
C4     O12     1.273   .     A
C5     O93     1.278   .     A
C5     C155    1.454   .     S
C5     O13     1.272   .     A
C6     C156    1.456   .     S
C6     O94     1.275   .     A
C6     O14     1.276   .     A
C7     O91     1.272   .     A
C7     C161    1.456   .     S
C7     O15     1.276   .     A
C8     C162    1.458   .     S
C8     O92     1.277   .     A
C8     O16     1.273   .     A
C9     C158    1.455   .     S
C9     O81     1.270   .     A
C9     O17     1.277   .     A
C10    O18     1.271   .     A
C10    O82     1.277   .     A
C10    C157    1.456   .     S
C11    C165    1.456   .     S
C11    O87     1.273   .     A
C11    O19     1.275   .     A
C12    O88     1.274   .     A
C12    C166    1.456   .     S
C12    O20     1.275   .     A
C13    O21     1.276   .     A
C13    C159    1.457   .     S
C13    O85     1.275   .     A
C14    O86     1.274   .     A
C14    O22     1.277   .     A
C14    C160    1.457   .     S
C15    O23     1.275   .     A
C15    O83     1.274   .     A
C15    C164    1.456   .     S
C16    O84     1.277   .     A
C16    O24     1.274   .     A
C16    C163    1.458   .     S
C17    O103    1.275   .     A
C17    O25     1.275   .     A
C17    C152    1.456   .     S
C18    O26     1.272   .     A
C18    O104    1.277   .     A
C18    C151    1.454   .     S
C19    O101    1.273   .     A
C19    O27     1.276   .     A
C19    C145    1.456   .     S
C20    O102    1.275   .     A
C20    C146    1.456   .     S
C20    O28     1.275   .     A
C21    O29     1.274   .     A
C21    C149    1.454   .     S
C21    O99     1.274   .     A
C22    C150    1.456   .     S
C22    O30     1.274   .     A
C22    O100    1.275   .     A
C23    O31     1.278   .     A
C23    O97     1.272   .     A
C23    C148    1.457   .     S
C24    O32     1.275   .     A
C24    C147    1.455   .     S
C24    O98     1.274   .     A
C25    O33     1.274   .     A
C25    C182    1.456   .     S
C25    O76     1.274   .     A
C26    O75     1.272   .     A
C26    O34     1.275   .     A
C26    C181    1.455   .     S
C27    O35     1.277   .     A
C27    C188    1.457   .     S
C27    O54     1.273   .     A
C28    O36     1.273   .     A
C28    C187    1.456   .     S
C28    O53     1.276   .     A
C29    O68     1.274   .     A
C29    C179    1.455   .     S
C29    O37     1.276   .     A
C30    C180    1.456   .     S
C30    O67     1.275   .     A
C30    O38     1.276   .     A
C31    O39     1.276   .     A
C31    C185    1.458   .     S
C31    O58     1.274   .     A
C32    O40     1.271   .     A
C32    O57     1.277   .     A
C32    C186    1.455   .     S
C33    O72     1.276   .     A
C33    O41     1.272   .     A
C33    C178    1.456   .     S
C34    C177    1.456   .     S
C34    O71     1.273   .     A
C34    O42     1.275   .     A
C35    O43     1.278   .     A
C35    C189    1.458   .     S
C35    O50     1.272   .     A
C36    O49     1.274   .     A
C36    O44     1.274   .     A
C36    C190    1.457   .     S
C37    O80     1.274   .     A
C37    C183    1.455   .     S
C37    O45     1.276   .     A
C38    O79     1.276   .     A
C38    C184    1.456   .     S
C38    O46     1.275   .     A
C39    O47     1.278   .     A
C39    C192    1.458   .     S
C39    O62     1.273   .     A
C40    O61     1.277   .     A
C40    O48     1.273   .     A
C40    C191    1.457   .     S
C41    O51     1.276   .     A
C41    O70     1.274   .     A
C41    C172    1.456   .     S
C42    O69     1.273   .     A
C42    C171    1.456   .     S
C42    O52     1.277   .     A
C43    O74     1.276   .     A
C43    O55     1.273   .     A
C43    C169    1.455   .     S
C44    O73     1.274   .     A
C44    O56     1.275   .     A
C44    C170    1.456   .     S
C45    C173    1.456   .     S
C45    O66     1.273   .     A
C45    O59     1.277   .     A
C46    C174    1.457   .     S
C46    O65     1.274   .     A
C46    O60     1.276   .     A
C47    O78     1.276   .     A
C47    C176    1.456   .     S
C47    O63     1.274   .     A
C48    C175    1.456   .     S
C48    O64     1.274   .     A
C48    O77     1.276   .     A
C49    C54     1.404   .     A
C49    C150    1.415   .     A
C49    C193    1.493   .     S
C50    C53     1.409   .     A
C50    C149    1.412   .     A
C50    C194    1.493   .     S
C51    C56     1.406   .     A
C51    C152    1.413   .     A
C51    C195    1.489   .     S
C52    C196    1.493   .     S
C52    C151    1.413   .     A
C52    C55     1.408   .     A
C53    C146    1.413   .     A
C53    C197    1.490   .     S
C54    C198    1.485   .     S
C54    C145    1.412   .     A
C55    C199    1.489   .     S
C55    C148    1.415   .     A
C56    C147    1.414   .     A
C56    C200    1.493   .     S
C57    C62     1.408   .     A
C57    C201    1.491   .     S
C57    C158    1.413   .     A
C58    C61     1.407   .     A
C58    C202    1.493   .     S
C58    C157    1.414   .     A
C59    C160    1.416   .     A
C59    C203    1.489   .     S
C59    C64     1.407   .     A
C60    C204    1.485   .     S
C60    C159    1.411   .     A
C60    C63     1.404   .     A
C61    C154    1.412   .     A
C61    C205    1.488   .     S
C62    C206    1.490   .     S
C62    C153    1.415   .     A
C63    C207    1.491   .     S
C63    C156    1.415   .     A
C64    C208    1.493   .     S
C64    C155    1.412   .     A
C65    C166    1.413   .     A
C65    C70     1.406   .     A
C65    C209    1.488   .     S
C66    C210    1.486   .     S
C66    C165    1.411   .     A
C66    C69     1.405   .     A
C67    C72     1.405   .     A
C67    C211    1.486   .     S
C67    C168    1.411   .     A
C68    C212    1.492   .     S
C68    C71     1.406   .     A
C68    C167    1.413   .     A
C69    C162    1.413   .     A
C69    C213    1.488   .     S
C70    C214    1.492   .     S
C70    C161    1.413   .     A
C71    C164    1.412   .     A
C71    C215    1.488   .     S
C72    C163    1.414   .     A
C72    C216    1.491   .     S
C73    C217    1.484   .     S
C73    C174    1.413   .     A
C73    C78     1.405   1_565 S
C74    C218    1.486   .     S
C74    C173    1.412   .     A
C74    C77     1.404   1_545 S
C75    C176    1.412   .     A
C75    C219    1.484   .     S
C75    C80     1.405   1_565 S
C76    C175    1.413   .     A
C76    C220    1.489   .     S
C76    C79     1.408   1_545 S
C77    C221    1.494   .     S
C77    C170    1.415   .     A
C77    C74     1.404   1_565 S
C78    C169    1.412   .     A
C78    C222    1.492   .     S
C78    C73     1.405   1_545 S
C79    C223    1.493   .     S
C79    C172    1.414   .     A
C79    C76     1.408   1_565 S
C80    C171    1.413   .     A
C80    C224    1.492   .     S
C80    C75     1.405   1_545 S
C81    C225    1.484   .     S
C81    C175    1.409   .     A
C81    C86     1.405   1_545 S
C82    C226    1.491   .     S
C82    C176    1.412   .     A
C82    C85     1.404   1_565 S
C83    C173    1.410   .     A
C83    C227    1.485   .     S
C83    C88     1.406   1_545 S
C84    C174    1.412   .     A
C84    C228    1.490   .     S
C84    C87     1.403   1_565 S
C85    C229    1.490   .     S
C85    C171    1.413   .     A
C85    C82     1.404   1_545 S
C86    C172    1.412   .     A
C86    C230    1.489   .     S
C86    C81     1.405   1_565 S
C87    C169    1.411   .     A
C87    C231    1.485   .     S
C87    C84     1.403   1_545 S
C88    C232    1.491   .     S
C88    C170    1.414   .     A
C88    C83     1.406   1_565 S
C89    C182    1.414   .     A
C89    C233    1.490   .     S
C89    C94     1.404   1_655 S
C90    C234    1.493   .     S
C90    C181    1.413   .     A
C90    C93     1.407   1_455 S
C91    C184    1.413   .     A
C91    C235    1.487   .     S
C91    C96     1.405   1_655 S
C92    C236    1.494   .     S
C92    C183    1.415   .     A
C92    C95     1.406   1_455 S
C93    C237    1.490   .     S
C93    C178    1.414   .     A
C93    C90     1.407   1_655 S
C94    C177    1.411   .     A
C94    C238    1.485   .     S
C94    C89     1.404   1_455 S
C95    C180    1.413   .     A
C95    C239    1.488   .     S
C95    C92     1.406   1_655 S
C96    C179    1.415   .     A
C96    C240    1.493   .     S
C96    C91     1.405   1_455 S
C97    C183    1.413   .     A
C97    C241    1.493   .     S
C97    C102    1.406   1_455 S
C98    C242    1.486   .     S
C98    C184    1.411   .     A
C98    C101    1.405   1_655 S
C99    C243    1.491   .     S
C99    C181    1.414   .     A
C99    C104    1.408   1_455 S
C100   C182    1.415   .     A
C100   C244    1.493   .     S
C100   C103    1.403   1_655 S
C101   C245    1.491   .     S
C101   C179    1.413   .     A
C101   C98     1.405   1_455 S
C102   C180    1.411   .     A
C102   C246    1.487   .     S
C102   C97     1.406   1_655 S
C103   C247    1.484   .     S
C103   C177    1.411   .     A
C103   C100    1.403   1_455 S
C104   C248    1.493   .     S
C104   C178    1.414   .     A
C104   C99     1.408   1_655 S
C105   C190    1.410   .     A
C105   C249    1.485   .     S
C105   C110    1.405   1_554 S
C106   C250    1.487   .     S
C106   C189    1.415   .     A
C106   C109    1.407   1_556 S
C107   C192    1.413   .     A
C107   C251    1.492   .     S
C107   C112    1.406   1_554 S
C108   C191    1.411   .     A
C108   C252    1.485   .     S
C108   C111    1.405   1_556 S
C109   C253    1.492   .     S
C109   C186    1.412   .     A
C109   C106    1.407   1_554 S
C110   C185    1.415   .     A
C110   C254    1.491   .     S
C110   C105    1.405   1_556 S
C111   C255    1.492   .     S
C111   C188    1.414   .     A
C111   C108    1.405   1_554 S
C112   C187    1.410   .     A
C112   C256    1.484   .     S
C112   C107    1.406   1_556 S
C113   C257    1.485   .     S
C113   C191    1.410   .     A
C113   C118    1.405   1_556 S
C114   C192    1.416   .     A
C114   C258    1.490   .     S
C114   C117    1.408   1_554 S
C115   C189    1.412   .     A
C115   C259    1.488   .     S
C115   C120    1.405   1_556 S
C116   C190    1.410   .     A
C116   C260    1.485   .     S
C116   C119    1.405   1_554 S
C117   C261    1.492   .     S
C117   C187    1.412   .     A
C117   C114    1.408   1_556 S
C118   C262    1.491   .     S
C118   C188    1.415   .     A
C118   C113    1.405   1_554 S
C119   C185    1.414   .     A
C119   C263    1.490   .     S
C119   C116    1.405   1_556 S
C120   C264    1.486   .     S
C120   C186    1.410   .     A
C120   C115    1.405   1_554 S
C121   C146    1.414   .     A
C121   C265    1.490   .     S
C121   C126    1.407   .     A
C122   C266    1.487   .     S
C122   C145    1.410   .     A
C122   C125    1.404   .     A
C123   C148    1.411   .     A
C123   C267    1.488   .     S
C123   C128    1.406   .     A
C124   C147    1.413   .     A
C124   C127    1.406   .     A
C124   C268    1.493   .     S
C125   C269    1.487   .     S
C125   C150    1.414   .     A
C126   C149    1.413   .     A
C126   C270    1.493   .     S
C127   C271    1.485   .     S
C127   C152    1.411   .     A
C128   C272    1.488   .     S
C128   C151    1.410   .     A
C129   C154    1.412   .     A
C129   C134    1.408   .     A
C129   C273    1.491   .     S
C130   C274    1.483   .     S
C130   C133    1.403   .     A
C130   C153    1.409   .     A
C131   C275    1.489   .     S
C131   C156    1.414   .     A
C131   C136    1.403   .     A
C132   C155    1.413   .     A
C132   C276    1.489   .     S
C132   C135    1.405   .     A
C133   C158    1.412   .     A
C133   C277    1.488   .     S
C134   C278    1.490   .     S
C134   C157    1.414   .     A
C135   C279    1.495   .     S
C135   C160    1.415   .     A
C136   C280    1.489   .     S
C136   C159    1.411   .     A
C137   C281    1.486   .     S
C137   C142    1.406   .     A
C137   C162    1.413   .     A
C138   C141    1.406   .     A
C138   C282    1.494   .     S
C138   C161    1.415   .     A
C139   C164    1.413   .     A
C139   C283    1.488   .     S
C139   C144    1.407   .     A
C140   C163    1.414   .     A
C140   C143    1.407   .     A
C140   C284    1.486   .     S
C141   C166    1.413   .     A
C141   C285    1.489   .     S
C142   C286    1.492   .     S
C142   C165    1.412   .     A
C143   C287    1.492   .     S
C143   C168    1.412   .     A
C144   C167    1.415   .     A
C144   C288    1.495   .     S
O1     Zn1     1.949   .     S
O1     Zn24    1.950   .     S
O1     Zn29    1.947   .     S
O1     Zn13    1.947   .     S
O2     Zn30    1.947   .     S
O2     Zn14    1.947   .     S
O2     Zn23    1.950   .     S
O2     Zn2     1.949   .     S
O3     Zn3     1.947   .     S
O3     Zn19    1.947   .     S
O3     Zn31    1.950   .     S
O3     Zn11    1.949   .     S
O4     Zn12    1.949   .     S
O4     Zn32    1.950   .     S
O4     Zn20    1.947   .     S
O4     Zn4     1.947   .     S
O5     Zn16    1.950   .     S
O5     Zn5     1.947   .     S
O5     Zn25    1.949   .     S
O5     Zn17    1.947   .     S
O6     Zn6     1.947   .     S
O6     Zn18    1.947   .     S
O6     Zn26    1.949   .     S
O6     Zn15    1.950   .     S
O7     Zn22    1.949   .     S
O7     Zn27    1.947   .     S
O7     Zn10    1.947   .     S
O7     Zn7     1.950   .     S
O8     Zn28    1.947   .     S
O8     Zn8     1.950   .     S
O8     Zn9     1.947   .     S
O8     Zn21    1.949   .     S
O9     Zn29    1.936   .     S
O10    Zn30    1.936   .     S
O11    Zn31    1.937   .     S
O12    Zn32    1.937   .     S
O13    Zn25    1.937   .     S
O14    Zn26    1.937   .     S
O15    Zn27    1.938   .     S
O16    Zn28    1.938   .     S
O17    Zn28    1.936   .     S
O18    Zn27    1.936   .     S
O19    Zn26    1.937   .     S
O20    Zn25    1.937   .     S
O21    Zn32    1.936   .     S
O22    Zn31    1.936   .     S
O23    Zn30    1.938   .     S
O24    Zn29    1.938   .     S
O25    Zn31    1.936   .     S
O26    Zn32    1.936   .     S
O27    Zn26    1.936   .     S
O28    Zn25    1.936   .     S
O29    Zn30    1.937   .     S
O30    Zn29    1.937   .     S
O31    Zn27    1.937   .     S
O32    Zn28    1.937   .     S
O33    Zn20    1.936   .     S
O34    Zn19    1.936   .     S
O35    Zn15    1.937   .     S
O36    Zn16    1.937   .     S
O37    Zn21    1.937   .     S
O38    Zn22    1.937   .     S
O39    Zn14    1.938   .     S
O40    Zn13    1.938   .     S
O41    Zn17    1.936   .     S
O42    Zn18    1.936   .     S
O43    Zn11    1.937   .     S
O44    Zn12    1.937   .     S
O45    Zn24    1.936   .     S
O46    Zn23    1.936   .     S
O47    Zn10    1.938   .     S
O48    Zn9     1.938   .     S
O49    Zn4     1.938   .     S
O50    Zn3     1.938   .     S
O51    Zn23    1.936   .     S
O52    Zn24    1.936   .     S
O53    Zn5     1.938   .     S
O54    Zn6     1.938   .     S
O55    Zn22    1.936   .     S
O56    Zn21    1.936   .     S
O57    Zn1     1.937   .     S
O58    Zn2     1.937   .     S
O59    Zn19    1.937   .     S
O60    Zn20    1.937   .     S
O61    Zn8     1.937   .     S
O62    Zn7     1.937   .     S
O63    Zn18    1.937   .     S
O64    Zn17    1.937   .     S
O65    Zn12    1.936   .     S
O66    Zn11    1.936   .     S
O67    Zn7     1.936   .     S
O68    Zn8     1.936   .     S
O69    Zn13    1.937   .     S
O70    Zn14    1.937   .     S
O71    Zn6     1.936   .     S
O72    Zn5     1.936   .     S
O73    Zn9     1.937   .     S
O74    Zn10    1.937   .     S
O75    Zn3     1.936   .     S
O76    Zn4     1.936   .     S
O77    Zn16    1.936   .     S
O78    Zn15    1.936   .     S
O79    Zn2     1.937   .     S
O80    Zn1     1.937   .     S
O81    Zn9     1.936   .     S
O82    Zn10    1.936   .     S
O83    Zn23    1.937   .     S
O84    Zn24    1.937   .     S
O85    Zn12    1.937   .     S
O86    Zn11    1.937   .     S
O87    Zn18    1.938   .     S
O88    Zn17    1.938   .     S
O89    Zn13    1.936   .     S
O90    Zn14    1.936   .     S
O91    Zn22    1.937   .     S
O92    Zn21    1.937   .     S
O93    Zn16    1.936   .     S
O94    Zn15    1.936   .     S
O95    Zn19    1.938   .     S
O96    Zn20    1.938   .     S
O97    Zn7     1.936   .     S
O98    Zn8     1.936   .     S
O99    Zn2     1.936   .     S
O100   Zn1     1.936   .     S
O101   Zn6     1.937   .     S
O102   Zn5     1.937   .     S
O103   Zn3     1.937   .     S
O104   Zn4     1.937   .     S
C193   O106    1.398   .     S
C193   O105    1.222   .     D
O106   H1      1.014   .     S
C194   O108    1.398   .     S
C194   O107    1.223   .     D
O108   H2      1.013   .     S
C195   O109    1.223   .     D
C195   O110    1.398   .     S
O110   H3      1.014   .     S
C196   O112    1.399   .     S
C196   O111    1.223   .     D
O112   H4      1.014   .     S
C197   O114    1.398   .     S
C197   O113    1.223   .     D
O114   H5      1.014   .     S
C198   O116    1.397   .     S
C198   O115    1.223   .     D
O116   H6      1.014   .     S
C199   O117    1.222   .     D
C199   O118    1.398   .     S
O118   H7      1.014   .     S
C200   O119    1.224   .     D
C200   O120    1.400   .     S
O120   H8      1.014   .     S
C201   O122    1.398   .     S
C201   O121    1.223   .     D
O122   H9      1.014   .     S
C202   O124    1.399   .     S
C202   O123    1.223   .     D
O124   H10     1.014   .     S
C203   O125    1.222   .     D
C203   O126    1.398   .     S
O126   H11     1.014   .     S
C204   O127    1.222   .     D
C204   O128    1.397   .     S
O128   H12     1.014   .     S
C205   O130    1.398   .     S
C205   O129    1.223   .     D
O130   H13     1.014   .     S
C206   O132    1.398   .     S
C206   O131    1.222   .     D
O132   H14     1.014   .     S
C207   O134    1.398   .     S
C207   O133    1.222   .     D
O134   H15     1.014   .     S
C208   O136    1.398   .     S
C208   O135    1.223   .     D
O136   H16     1.014   .     S
C209   O137    1.222   .     D
C209   O138    1.398   .     S
O138   H17     1.014   .     S
C210   O140    1.398   .     S
C210   O139    1.223   .     D
O140   H18     1.014   .     S
C211   O141    1.223   .     D
C211   O142    1.398   .     S
O142   H19     1.014   .     S
C212   O144    1.398   .     S
C212   O143    1.223   .     D
O144   H20     1.013   .     S
C213   O145    1.222   .     D
C213   O146    1.397   .     S
O146   H21     1.013   .     S
C214   O148    1.398   .     S
C214   O147    1.223   .     D
O148   H22     1.014   .     S
C215   O150    1.398   .     S
C215   O149    1.223   .     D
O150   H23     1.014   .     S
C216   O151    1.223   .     D
C216   O152    1.396   .     S
O152   H24     1.013   .     S
C217   O154    1.397   .     S
C217   O153    1.222   .     D
O154   H25     1.014   .     S
C218   O155    1.222   .     D
C218   O156    1.398   .     S
O156   H26     1.014   .     S
C219   O158    1.397   .     S
C219   O157    1.222   .     D
O158   H27     1.014   .     S
C220   O159    1.222   .     D
C220   O160    1.398   .     S
O160   H28     1.014   .     S
C221   O162    1.398   .     S
C221   O161    1.222   .     D
O162   H29     1.014   .     S
C222   O163    1.222   .     D
C222   O164    1.399   .     S
O164   H30     1.013   .     S
C223   O165    1.223   .     D
C223   O166    1.398   .     S
O166   H31     1.014   .     S
C224   O168    1.399   .     S
C224   O167    1.223   .     D
O168   H32     1.014   .     S
C225   O169    1.223   .     D
C225   O170    1.398   .     S
O170   H33     1.014   .     S
C226   O171    1.223   .     D
C226   O172    1.398   .     S
O172   H34     1.013   .     S
C227   O173    1.223   .     D
C227   O174    1.397   .     S
O174   H35     1.014   .     S
C228   O175    1.223   .     D
C228   O176    1.397   .     S
O176   H36     1.013   .     S
C229   O178    1.397   .     S
C229   O177    1.221   .     D
O178   H37     1.013   .     S
C230   O180    1.398   .     S
C230   O179    1.222   .     D
O180   H38     1.013   .     S
C231   O181    1.222   .     D
C231   O182    1.397   .     S
O182   H39     1.014   .     S
C232   O183    1.222   .     D
C232   O184    1.399   .     S
O184   H40     1.014   .     S
C233   O186    1.398   .     S
C233   O185    1.222   .     D
O186   H41     1.013   .     S
C234   O187    1.223   .     D
C234   O188    1.399   .     S
O188   H42     1.014   .     S
C235   O190    1.398   .     S
C235   O189    1.223   .     D
O190   H43     1.014   .     S
C236   O191    1.222   .     D
C236   O192    1.399   .     S
O192   H44     1.014   .     S
C237   O194    1.399   .     S
C237   O193    1.224   .     D
O194   H45     1.014   .     S
C238   O196    1.397   .     S
C238   O195    1.222   .     D
O196   H46     1.014   .     S
C239   O198    1.398   .     S
C239   O197    1.222   .     D
O198   H47     1.014   .     S
C240   O199    1.222   .     D
C240   O200    1.399   .     S
O200   H48     1.014   .     S
C241   O201    1.223   .     D
C241   O202    1.398   .     S
O202   H49     1.013   .     S
C242   O204    1.401   .     S
C242   O203    1.226   .     D
O204   H50     1.014   .     S
C243   O205    1.223   .     D
C243   O206    1.399   .     S
O206   H51     1.014   .     S
C244   O208    1.398   .     S
C244   O207    1.223   .     D
O208   H52     1.014   .     S
C245   O209    1.223   .     D
C245   O210    1.398   .     S
O210   H53     1.013   .     S
C246   O211    1.223   .     D
C246   O212    1.398   .     S
O212   H54     1.014   .     S
C247   O214    1.397   .     S
C247   O213    1.223   .     D
O214   H55     1.014   .     S
C248   O216    1.399   .     S
C248   O215    1.223   .     D
O216   H56     1.014   .     S
C249   O217    1.223   .     D
C249   O218    1.398   .     S
O218   H57     1.014   .     S
C250   O219    1.221   .     D
C250   O220    1.396   .     S
O220   H58     1.013   .     S
C251   O222    1.398   .     S
C251   O221    1.222   .     D
O222   H59     1.013   .     S
C252   O224    1.398   .     S
C252   O223    1.223   .     D
O224   H60     1.014   .     S
C253   O226    1.399   .     S
C253   O225    1.223   .     D
O226   H61     1.014   .     S
C254   O228    1.398   .     S
C254   O227    1.222   .     D
O228   H62     1.014   .     S
C255   O229    1.223   .     D
C255   O230    1.399   .     S
O230   H63     1.014   .     S
C256   O231    1.223   .     D
C256   O232    1.397   .     S
O232   H64     1.014   .     S
C257   O233    1.223   .     D
C257   O234    1.397   .     S
O234   H65     1.014   .     S
C258   O236    1.398   .     S
C258   O235    1.222   .     D
O236   H66     1.014   .     S
C259   O238    1.397   .     S
C259   O237    1.224   .     D
O238   H67     1.011   .     S
C260   O240    1.397   .     S
C260   O239    1.223   .     D
O240   H68     1.014   .     S
C261   O242    1.398   .     S
C261   O241    1.223   .     D
O242   H69     1.014   .     S
C262   O243    1.222   .     D
C262   O244    1.397   .     S
O244   H70     1.014   .     S
C263   O245    1.222   .     D
C263   O246    1.398   .     S
O246   H71     1.013   .     S
C264   O248    1.402   .     S
C264   O247    1.226   .     D
O248   H72     1.014   .     S
C265   O249    1.222   .     D
C265   O250    1.398   .     S
O250   H73     1.014   .     S
C266   O251    1.223   .     D
C266   O252    1.397   .     S
O252   H74     1.014   .     S
C267   O253    1.223   .     D
C267   O254    1.396   .     S
O254   H75     1.012   .     S
C268   O256    1.398   .     S
C268   O255    1.223   .     D
O256   H76     1.014   .     S
C269   O257    1.222   .     D
C269   O258    1.397   .     S
O258   H77     1.013   .     S
C270   O259    1.223   .     D
C270   O260    1.398   .     S
O260   H78     1.014   .     S
C271   O261    1.223   .     D
C271   O262    1.398   .     S
O262   H79     1.014   .     S
C272   O264    1.398   .     S
C272   O263    1.223   .     D
O264   H80     1.014   .     S
C273   O266    1.398   .     S
C273   O265    1.223   .     D
O266   H81     1.013   .     S
C274   O267    1.222   .     D
C274   O268    1.397   .     S
O268   H82     1.014   .     S
C275   O270    1.398   .     S
C275   O269    1.223   .     D
O270   H83     1.014   .     S
C276   O271    1.222   .     D
C276   O272    1.398   .     S
O272   H84     1.013   .     S
C277   O274    1.397   .     S
C277   O273    1.223   .     D
O274   H85     1.014   .     S
C278   O276    1.398   .     S
C278   O275    1.223   .     D
O276   H86     1.014   .     S
C279   O277    1.222   .     D
C279   O278    1.399   .     S
O278   H87     1.014   .     S
C280   O279    1.221   .     D
C280   O280    1.397   .     S
O280   H88     1.013   .     S
C281   O282    1.398   .     S
C281   O281    1.223   .     D
O282   H89     1.014   .     S
C282   O283    1.222   .     D
C282   O284    1.399   .     S
O284   H90     1.014   .     S
C283   O285    1.222   .     D
C283   O286    1.398   .     S
O286   H91     1.014   .     S
C284   O287    1.223   .     D
C284   O288    1.398   .     S
O288   H92     1.014   .     S
C285   O290    1.398   .     S
C285   O289    1.222   .     D
O290   H93     1.014   .     S
C286   O292    1.398   .     S
C286   O291    1.223   .     D
O292   H94     1.013   .     S
C287   O294    1.399   .     S
C287   O293    1.223   .     D
O294   H95     1.013   .     S
C288   O296    1.398   .     S
C288   O295    1.223   .     D
O296   H96     1.014   .     S
