data_str_m1_o10_o18_pcu_sym.15
_audit_creation_date              2020-01-03
_audit_creation_method            'Materials Studio'
_symmetry_space_group_name_H-M    'P1'
_symmetry_Int_Tables_number       1
_symmetry_cell_setting            triclinic
loop_
_symmetry_equiv_pos_as_xyz
  x,y,z
_cell_length_a                    32.5876
_cell_length_b                    32.5492
_cell_length_c                    35.7005
_cell_angle_alpha                 97.9018
_cell_angle_beta                  72.5851
_cell_angle_gamma                 98.7040
loop_
_atom_site_label
_atom_site_type_symbol
_atom_site_fract_x
_atom_site_fract_y
_atom_site_fract_z
_atom_site_U_iso_or_equiv
_atom_site_adp_type
_atom_site_occupancy
Br1    Br    0.22990   0.01275   0.19722   0.00000  Uiso   1.00
Br2    Br    0.22560   0.20450   0.39031   0.00000  Uiso   1.00
Br3    Br    0.12704   0.23414   0.09266   0.00000  Uiso   1.00
C4     C     0.05254   0.16010   0.25863   0.00000  Uiso   1.00
C5     C     0.21093   0.14781   0.45919   0.00000  Uiso   1.00
C6     C     0.23650   0.13369   0.47839   0.00000  Uiso   1.00
C7     C     0.28116   0.17365   0.24111   0.00000  Uiso   1.00
C8     C     0.22577   0.13843   0.01936   0.00000  Uiso   1.00
C9     C     0.18823   0.15730   0.04160   0.00000  Uiso   1.00
C10    C     0.25091   0.12244   0.03845   0.00000  Uiso   1.00
C11    C     0.23847   0.12399   0.07940   0.00000  Uiso   1.00
C12    C     0.17330   0.15282   0.08227   0.00000  Uiso   1.00
C13    C     0.32724   0.17634   0.23731   0.00000  Uiso   1.00
C14    C     0.00710   0.15790   0.26216   0.00000  Uiso   1.00
C15    C     0.09184   0.20300   0.42187   0.00000  Uiso   1.00
C16    C     0.18153   0.32227   0.23741   0.00000  Uiso   1.00
C17    C     0.15212   0.01211   0.26181   0.00000  Uiso   1.00
C18    C     0.15569   0.05621   0.25914   0.00000  Uiso   1.00
C19    C     0.17703   0.27776   0.24118   0.00000  Uiso   1.00
C20    C     0.18869   0.14532   0.14396   0.00000  Uiso   1.00
C21    C     0.14522   0.18759   0.35618   0.00000  Uiso   1.00
C22    C     0.13394   0.19434   0.39956   0.00000  Uiso   1.00
C23    C     0.19913   0.13831   0.10122   0.00000  Uiso   1.00
C24    C     0.08209   0.20835   0.46327   0.00000  Uiso   1.00
C25    C     0.03328   0.23443   0.41763   0.00000  Uiso   1.00
C26    C     0.16514   0.19084   0.41864   0.00000  Uiso   1.00
C27    C     0.32090   0.21559   0.43903   0.00000  Uiso   1.00
C28    C     0.29147   0.24949   0.45834   0.00000  Uiso   1.00
C29    C     0.15220   0.18800   0.45983   0.00000  Uiso   1.00
C30    C     0.11207   0.20156   0.48204   0.00000  Uiso   1.00
C31    C     0.17714   0.17193   0.47988   0.00000  Uiso   1.00
C32    C     0.16562   0.17727   0.02199   0.00000  Uiso   1.00
C33    C     0.13166   0.20201   0.04227   0.00000  Uiso   1.00
C34    C     0.10308   0.21012   0.02281   0.00000  Uiso   1.00
H35    H     0.07512   0.22586   0.03928   0.00000  Uiso   1.00
H36    H     0.21730   0.13833   0.42804   0.00000  Uiso   1.00
H37    H     0.03122   0.24940   0.39219   0.00000  Uiso   1.00
H38    H     0.04609   0.26009   0.43672   0.00000  Uiso   1.00
H39    H     0.30689   0.19465   0.41752   0.00000  Uiso   1.00
H40    H     0.32206   0.19646   0.46206   0.00000  Uiso   1.00
H41    H     0.30437   0.27009   0.48073   0.00000  Uiso   1.00
H42    H     0.25858   0.23486   0.47325   0.00000  Uiso   1.00
H43    H     0.28898   0.26857   0.43576   0.00000  Uiso   1.00
H44    H     0.28034   0.10915   0.02172   0.00000  Uiso   1.00
H45    H     0.01716   0.19328   0.21421   0.00000  Uiso   1.00
H46    H     0.31778   0.14108   0.28563   0.00000  Uiso   1.00
H47    H     0.12482   0.33198   0.28432   0.00000  Uiso   1.00
H48    H     0.14169   0.16018   0.09985   0.00000  Uiso   1.00
H49    H     0.25913   0.11349   0.09407   0.00000  Uiso   1.00
H50    H     0.26345   0.11697   0.46116   0.00000  Uiso   1.00
H51    H     0.05059   0.21615   0.48122   0.00000  Uiso   1.00
O52    O     0.16667   0.16667   0.25000   0.00000  Uiso   1.00
O53    O     0.15693   0.12393   0.16625   0.00000  Uiso   1.00
O54    O     0.12687   0.20646   0.33749   0.00000  Uiso   1.00
O55    O     0.21088   0.17493   0.15877   0.00000  Uiso   1.00
O56    O     0.17198   0.16135   0.33749   0.00000  Uiso   1.00
O57    O     0.06045   0.20231   0.40240   0.00000  Uiso   1.00
O58    O     0.17849   0.08101   0.27820   0.00000  Uiso   1.00
O59    O     0.14581   0.26136   0.26767   0.00000  Uiso   1.00
O60    O     0.07452   0.13251   0.23607   0.00000  Uiso   1.00
O61    O     0.26785   0.19179   0.21806   0.00000  Uiso   1.00
O62    O     0.06990   0.18960   0.27820   0.00000  Uiso   1.00
O63    O     0.25440   0.15277   0.26768   0.00000  Uiso   1.00
O64    O     0.13800   0.06903   0.23607   0.00000  Uiso   1.00
O65    O     0.20437   0.25527   0.21806   0.00000  Uiso   1.00
Zn66   Zn    0.19244   0.14090   0.28278   0.00000  Uiso   1.00
Zn67   Zn    0.13459   0.12378   0.22258   0.00000  Uiso   1.00
Zn68   Zn    0.21166   0.19664   0.21188   0.00000  Uiso   1.00
Zn69   Zn    0.12798   0.20535   0.28277   0.00000  Uiso   1.00
Br70   Br    0.56324   0.01275   0.19722   0.00000  Uiso   1.00
Br71   Br    0.55894   0.20450   0.39031   0.00000  Uiso   1.00
Br72   Br    0.46037   0.23414   0.09266   0.00000  Uiso   1.00
C73    C     0.38587   0.16010   0.25863   0.00000  Uiso   1.00
C74    C     0.54426   0.14781   0.45919   0.00000  Uiso   1.00
C75    C     0.56983   0.13369   0.47839   0.00000  Uiso   1.00
C76    C     0.61449   0.17365   0.24111   0.00000  Uiso   1.00
C77    C     0.55910   0.13843   0.01936   0.00000  Uiso   1.00
C78    C     0.52156   0.15730   0.04160   0.00000  Uiso   1.00
C79    C     0.58425   0.12244   0.03845   0.00000  Uiso   1.00
C80    C     0.57181   0.12399   0.07940   0.00000  Uiso   1.00
C81    C     0.50664   0.15282   0.08227   0.00000  Uiso   1.00
C82    C     0.66057   0.17634   0.23731   0.00000  Uiso   1.00
C83    C     0.34044   0.15790   0.26216   0.00000  Uiso   1.00
C84    C     0.42517   0.20300   0.42187   0.00000  Uiso   1.00
C85    C     0.51487   0.32227   0.23741   0.00000  Uiso   1.00
C86    C     0.48545   0.01211   0.26181   0.00000  Uiso   1.00
C87    C     0.48903   0.05621   0.25914   0.00000  Uiso   1.00
C88    C     0.51037   0.27776   0.24118   0.00000  Uiso   1.00
C89    C     0.52203   0.14532   0.14396   0.00000  Uiso   1.00
C90    C     0.47855   0.18759   0.35618   0.00000  Uiso   1.00
C91    C     0.46727   0.19434   0.39956   0.00000  Uiso   1.00
C92    C     0.53246   0.13831   0.10122   0.00000  Uiso   1.00
C93    C     0.41543   0.20835   0.46327   0.00000  Uiso   1.00
C94    C     0.36661   0.23443   0.41763   0.00000  Uiso   1.00
C95    C     0.49847   0.19084   0.41864   0.00000  Uiso   1.00
C96    C     0.65423   0.21559   0.43903   0.00000  Uiso   1.00
C97    C     0.62480   0.24949   0.45834   0.00000  Uiso   1.00
C98    C     0.48554   0.18800   0.45983   0.00000  Uiso   1.00
C99    C     0.44541   0.20156   0.48204   0.00000  Uiso   1.00
C100   C     0.51048   0.17193   0.47988   0.00000  Uiso   1.00
C101   C     0.49895   0.17727   0.02199   0.00000  Uiso   1.00
C102   C     0.46499   0.20201   0.04227   0.00000  Uiso   1.00
C103   C     0.43641   0.21012   0.02281   0.00000  Uiso   1.00
H104   H     0.40846   0.22586   0.03928   0.00000  Uiso   1.00
H105   H     0.55064   0.13833   0.42804   0.00000  Uiso   1.00
H106   H     0.36455   0.24940   0.39219   0.00000  Uiso   1.00
H107   H     0.37943   0.26009   0.43672   0.00000  Uiso   1.00
H108   H     0.64022   0.19465   0.41752   0.00000  Uiso   1.00
H109   H     0.65540   0.19646   0.46206   0.00000  Uiso   1.00
H110   H     0.63771   0.27009   0.48073   0.00000  Uiso   1.00
H111   H     0.59191   0.23486   0.47325   0.00000  Uiso   1.00
H112   H     0.62232   0.26857   0.43576   0.00000  Uiso   1.00
H113   H     0.61367   0.10915   0.02172   0.00000  Uiso   1.00
H114   H     0.35049   0.19328   0.21421   0.00000  Uiso   1.00
H115   H     0.65111   0.14108   0.28563   0.00000  Uiso   1.00
H116   H     0.45815   0.33198   0.28432   0.00000  Uiso   1.00
H117   H     0.47502   0.16018   0.09985   0.00000  Uiso   1.00
H118   H     0.59246   0.11349   0.09407   0.00000  Uiso   1.00
H119   H     0.59678   0.11697   0.46116   0.00000  Uiso   1.00
H120   H     0.38392   0.21615   0.48122   0.00000  Uiso   1.00
O121   O     0.50000   0.16667   0.25000   0.00000  Uiso   1.00
O122   O     0.49027   0.12393   0.16625   0.00000  Uiso   1.00
O123   O     0.46020   0.20646   0.33749   0.00000  Uiso   1.00
O124   O     0.54421   0.17493   0.15877   0.00000  Uiso   1.00
O125   O     0.50532   0.16135   0.33749   0.00000  Uiso   1.00
O126   O     0.39378   0.20231   0.40240   0.00000  Uiso   1.00
O127   O     0.51182   0.08101   0.27820   0.00000  Uiso   1.00
O128   O     0.47914   0.26136   0.26767   0.00000  Uiso   1.00
O129   O     0.40785   0.13251   0.23607   0.00000  Uiso   1.00
O130   O     0.60119   0.19179   0.21806   0.00000  Uiso   1.00
O131   O     0.40323   0.18960   0.27820   0.00000  Uiso   1.00
O132   O     0.58773   0.15277   0.26768   0.00000  Uiso   1.00
O133   O     0.47133   0.06903   0.23607   0.00000  Uiso   1.00
O134   O     0.53771   0.25527   0.21806   0.00000  Uiso   1.00
Zn135  Zn    0.52577   0.14090   0.28278   0.00000  Uiso   1.00
Zn136  Zn    0.46792   0.12378   0.22258   0.00000  Uiso   1.00
Zn137  Zn    0.54500   0.19664   0.21188   0.00000  Uiso   1.00
Zn138  Zn    0.46131   0.20535   0.28277   0.00000  Uiso   1.00
Br139  Br    0.89657   0.01275   0.19722   0.00000  Uiso   1.00
Br140  Br    0.89227   0.20450   0.39031   0.00000  Uiso   1.00
Br141  Br    0.79370   0.23414   0.09266   0.00000  Uiso   1.00
C142   C     0.71920   0.16010   0.25863   0.00000  Uiso   1.00
C143   C     0.87759   0.14781   0.45919   0.00000  Uiso   1.00
C144   C     0.90316   0.13369   0.47839   0.00000  Uiso   1.00
C145   C     0.94783   0.17365   0.24111   0.00000  Uiso   1.00
C146   C     0.89244   0.13843   0.01936   0.00000  Uiso   1.00
C147   C     0.85490   0.15730   0.04160   0.00000  Uiso   1.00
C148   C     0.91758   0.12244   0.03845   0.00000  Uiso   1.00
C149   C     0.90514   0.12399   0.07940   0.00000  Uiso   1.00
C150   C     0.83997   0.15282   0.08227   0.00000  Uiso   1.00
C151   C     0.99391   0.17634   0.23731   0.00000  Uiso   1.00
C152   C     0.67377   0.15790   0.26216   0.00000  Uiso   1.00
C153   C     0.75851   0.20300   0.42187   0.00000  Uiso   1.00
C154   C     0.84820   0.32227   0.23741   0.00000  Uiso   1.00
C155   C     0.81879   0.01211   0.26181   0.00000  Uiso   1.00
C156   C     0.82236   0.05621   0.25914   0.00000  Uiso   1.00
C157   C     0.84370   0.27776   0.24118   0.00000  Uiso   1.00
C158   C     0.85536   0.14532   0.14396   0.00000  Uiso   1.00
C159   C     0.81188   0.18759   0.35618   0.00000  Uiso   1.00
C160   C     0.80060   0.19434   0.39956   0.00000  Uiso   1.00
C161   C     0.86579   0.13831   0.10122   0.00000  Uiso   1.00
C162   C     0.74876   0.20835   0.46327   0.00000  Uiso   1.00
C163   C     0.69995   0.23443   0.41763   0.00000  Uiso   1.00
C164   C     0.83180   0.19084   0.41864   0.00000  Uiso   1.00
C165   C     0.98756   0.21559   0.43903   0.00000  Uiso   1.00
C166   C     0.95813   0.24949   0.45834   0.00000  Uiso   1.00
C167   C     0.81887   0.18800   0.45983   0.00000  Uiso   1.00
C168   C     0.77874   0.20156   0.48204   0.00000  Uiso   1.00
C169   C     0.84381   0.17193   0.47988   0.00000  Uiso   1.00
C170   C     0.83229   0.17727   0.02199   0.00000  Uiso   1.00
C171   C     0.79832   0.20201   0.04227   0.00000  Uiso   1.00
C172   C     0.76974   0.21012   0.02281   0.00000  Uiso   1.00
H173   H     0.74179   0.22586   0.03928   0.00000  Uiso   1.00
H174   H     0.88397   0.13833   0.42804   0.00000  Uiso   1.00
H175   H     0.69789   0.24940   0.39219   0.00000  Uiso   1.00
H176   H     0.71276   0.26009   0.43672   0.00000  Uiso   1.00
H177   H     0.97355   0.19465   0.41752   0.00000  Uiso   1.00
H178   H     0.98873   0.19646   0.46206   0.00000  Uiso   1.00
H179   H     0.97104   0.27009   0.48073   0.00000  Uiso   1.00
H180   H     0.92525   0.23486   0.47325   0.00000  Uiso   1.00
H181   H     0.95565   0.26857   0.43576   0.00000  Uiso   1.00
H182   H     0.94700   0.10915   0.02172   0.00000  Uiso   1.00
H183   H     0.68382   0.19328   0.21421   0.00000  Uiso   1.00
H184   H     0.98445   0.14108   0.28563   0.00000  Uiso   1.00
H185   H     0.79149   0.33198   0.28432   0.00000  Uiso   1.00
H186   H     0.80836   0.16018   0.09985   0.00000  Uiso   1.00
H187   H     0.92580   0.11349   0.09407   0.00000  Uiso   1.00
H188   H     0.93011   0.11697   0.46116   0.00000  Uiso   1.00
H189   H     0.71726   0.21615   0.48122   0.00000  Uiso   1.00
O190   O     0.83333   0.16667   0.25000   0.00000  Uiso   1.00
O191   O     0.82360   0.12393   0.16625   0.00000  Uiso   1.00
O192   O     0.79354   0.20646   0.33749   0.00000  Uiso   1.00
O193   O     0.87755   0.17493   0.15877   0.00000  Uiso   1.00
O194   O     0.83865   0.16135   0.33749   0.00000  Uiso   1.00
O195   O     0.72711   0.20231   0.40240   0.00000  Uiso   1.00
O196   O     0.84515   0.08101   0.27820   0.00000  Uiso   1.00
O197   O     0.81247   0.26136   0.26767   0.00000  Uiso   1.00
O198   O     0.74119   0.13251   0.23607   0.00000  Uiso   1.00
O199   O     0.93452   0.19179   0.21806   0.00000  Uiso   1.00
O200   O     0.73656   0.18960   0.27820   0.00000  Uiso   1.00
O201   O     0.92106   0.15277   0.26768   0.00000  Uiso   1.00
O202   O     0.80467   0.06903   0.23607   0.00000  Uiso   1.00
O203   O     0.87104   0.25527   0.21806   0.00000  Uiso   1.00
Zn204  Zn    0.85910   0.14090   0.28278   0.00000  Uiso   1.00
Zn205  Zn    0.80125   0.12378   0.22258   0.00000  Uiso   1.00
Zn206  Zn    0.87833   0.19664   0.21188   0.00000  Uiso   1.00
Zn207  Zn    0.79465   0.20535   0.28277   0.00000  Uiso   1.00
Br208  Br    0.22990   0.34608   0.19722   0.00000  Uiso   1.00
Br209  Br    0.22560   0.53783   0.39031   0.00000  Uiso   1.00
Br210  Br    0.12704   0.56748   0.09266   0.00000  Uiso   1.00
C211   C     0.05254   0.49344   0.25863   0.00000  Uiso   1.00
C212   C     0.21093   0.48114   0.45919   0.00000  Uiso   1.00
C213   C     0.23650   0.46703   0.47839   0.00000  Uiso   1.00
C214   C     0.28116   0.50699   0.24111   0.00000  Uiso   1.00
C215   C     0.22577   0.47177   0.01936   0.00000  Uiso   1.00
C216   C     0.18823   0.49064   0.04160   0.00000  Uiso   1.00
C217   C     0.25091   0.45577   0.03845   0.00000  Uiso   1.00
C218   C     0.23847   0.45732   0.07940   0.00000  Uiso   1.00
C219   C     0.17330   0.48616   0.08227   0.00000  Uiso   1.00
C220   C     0.32724   0.50967   0.23731   0.00000  Uiso   1.00
C221   C     0.00710   0.49124   0.26216   0.00000  Uiso   1.00
C222   C     0.09184   0.53634   0.42187   0.00000  Uiso   1.00
C223   C     0.18153   0.65561   0.23741   0.00000  Uiso   1.00
C224   C     0.15212   0.34544   0.26181   0.00000  Uiso   1.00
C225   C     0.15569   0.38954   0.25914   0.00000  Uiso   1.00
C226   C     0.17703   0.61110   0.24118   0.00000  Uiso   1.00
C227   C     0.18869   0.47865   0.14396   0.00000  Uiso   1.00
C228   C     0.14522   0.52092   0.35618   0.00000  Uiso   1.00
C229   C     0.13394   0.52768   0.39956   0.00000  Uiso   1.00
C230   C     0.19913   0.47164   0.10122   0.00000  Uiso   1.00
C231   C     0.08209   0.54168   0.46327   0.00000  Uiso   1.00
C232   C     0.03328   0.56777   0.41763   0.00000  Uiso   1.00
C233   C     0.16514   0.52418   0.41864   0.00000  Uiso   1.00
C234   C     0.32090   0.54893   0.43903   0.00000  Uiso   1.00
C235   C     0.29147   0.58283   0.45834   0.00000  Uiso   1.00
C236   C     0.15220   0.52133   0.45983   0.00000  Uiso   1.00
C237   C     0.11207   0.53489   0.48204   0.00000  Uiso   1.00
C238   C     0.17714   0.50526   0.47988   0.00000  Uiso   1.00
C239   C     0.16562   0.51061   0.02199   0.00000  Uiso   1.00
C240   C     0.13166   0.53534   0.04227   0.00000  Uiso   1.00
C241   C     0.10308   0.54345   0.02281   0.00000  Uiso   1.00
H242   H     0.07512   0.55919   0.03928   0.00000  Uiso   1.00
H243   H     0.21730   0.47167   0.42804   0.00000  Uiso   1.00
H244   H     0.03122   0.58273   0.39219   0.00000  Uiso   1.00
H245   H     0.04609   0.59342   0.43672   0.00000  Uiso   1.00
H246   H     0.30689   0.52799   0.41752   0.00000  Uiso   1.00
H247   H     0.32206   0.52979   0.46206   0.00000  Uiso   1.00
H248   H     0.30437   0.60342   0.48073   0.00000  Uiso   1.00
H249   H     0.25858   0.56819   0.47325   0.00000  Uiso   1.00
H250   H     0.28898   0.60190   0.43576   0.00000  Uiso   1.00
H251   H     0.28034   0.44249   0.02172   0.00000  Uiso   1.00
H252   H     0.01716   0.52661   0.21421   0.00000  Uiso   1.00
H253   H     0.31778   0.47442   0.28563   0.00000  Uiso   1.00
H254   H     0.12482   0.66531   0.28432   0.00000  Uiso   1.00
H255   H     0.14169   0.49352   0.09985   0.00000  Uiso   1.00
H256   H     0.25913   0.44682   0.09407   0.00000  Uiso   1.00
H257   H     0.26345   0.45030   0.46116   0.00000  Uiso   1.00
H258   H     0.05059   0.54949   0.48122   0.00000  Uiso   1.00
O259   O     0.16667   0.50000   0.25000   0.00000  Uiso   1.00
O260   O     0.15693   0.45726   0.16625   0.00000  Uiso   1.00
O261   O     0.12687   0.53979   0.33749   0.00000  Uiso   1.00
O262   O     0.21088   0.50826   0.15877   0.00000  Uiso   1.00
O263   O     0.17198   0.49468   0.33749   0.00000  Uiso   1.00
O264   O     0.06045   0.53565   0.40240   0.00000  Uiso   1.00
O265   O     0.17849   0.41434   0.27820   0.00000  Uiso   1.00
O266   O     0.14581   0.59469   0.26767   0.00000  Uiso   1.00
O267   O     0.07452   0.46584   0.23607   0.00000  Uiso   1.00
O268   O     0.26785   0.52512   0.21806   0.00000  Uiso   1.00
O269   O     0.06990   0.52293   0.27820   0.00000  Uiso   1.00
O270   O     0.25440   0.48610   0.26768   0.00000  Uiso   1.00
O271   O     0.13800   0.40236   0.23607   0.00000  Uiso   1.00
O272   O     0.20437   0.58860   0.21806   0.00000  Uiso   1.00
Zn273  Zn    0.19244   0.47423   0.28278   0.00000  Uiso   1.00
Zn274  Zn    0.13459   0.45711   0.22258   0.00000  Uiso   1.00
Zn275  Zn    0.21166   0.52997   0.21188   0.00000  Uiso   1.00
Zn276  Zn    0.12798   0.53868   0.28277   0.00000  Uiso   1.00
Br277  Br    0.56324   0.34608   0.19722   0.00000  Uiso   1.00
Br278  Br    0.55894   0.53783   0.39031   0.00000  Uiso   1.00
Br279  Br    0.46037   0.56748   0.09266   0.00000  Uiso   1.00
C280   C     0.38587   0.49344   0.25863   0.00000  Uiso   1.00
C281   C     0.54426   0.48114   0.45919   0.00000  Uiso   1.00
C282   C     0.56983   0.46703   0.47839   0.00000  Uiso   1.00
C283   C     0.61449   0.50699   0.24111   0.00000  Uiso   1.00
C284   C     0.55910   0.47177   0.01936   0.00000  Uiso   1.00
C285   C     0.52156   0.49064   0.04160   0.00000  Uiso   1.00
C286   C     0.58425   0.45577   0.03845   0.00000  Uiso   1.00
C287   C     0.57181   0.45732   0.07940   0.00000  Uiso   1.00
C288   C     0.50664   0.48616   0.08227   0.00000  Uiso   1.00
C289   C     0.66057   0.50967   0.23731   0.00000  Uiso   1.00
C290   C     0.34044   0.49124   0.26216   0.00000  Uiso   1.00
C291   C     0.42517   0.53634   0.42187   0.00000  Uiso   1.00
C292   C     0.51487   0.65561   0.23741   0.00000  Uiso   1.00
C293   C     0.48545   0.34544   0.26181   0.00000  Uiso   1.00
C294   C     0.48903   0.38954   0.25914   0.00000  Uiso   1.00
C295   C     0.51037   0.61110   0.24118   0.00000  Uiso   1.00
C296   C     0.52203   0.47865   0.14396   0.00000  Uiso   1.00
C297   C     0.47855   0.52092   0.35618   0.00000  Uiso   1.00
C298   C     0.46727   0.52768   0.39956   0.00000  Uiso   1.00
C299   C     0.53246   0.47164   0.10122   0.00000  Uiso   1.00
C300   C     0.41543   0.54168   0.46327   0.00000  Uiso   1.00
C301   C     0.36661   0.56777   0.41763   0.00000  Uiso   1.00
C302   C     0.49847   0.52418   0.41864   0.00000  Uiso   1.00
C303   C     0.65423   0.54893   0.43903   0.00000  Uiso   1.00
C304   C     0.62480   0.58283   0.45834   0.00000  Uiso   1.00
C305   C     0.48554   0.52133   0.45983   0.00000  Uiso   1.00
C306   C     0.44541   0.53489   0.48204   0.00000  Uiso   1.00
C307   C     0.51048   0.50526   0.47988   0.00000  Uiso   1.00
C308   C     0.49895   0.51061   0.02199   0.00000  Uiso   1.00
C309   C     0.46499   0.53534   0.04227   0.00000  Uiso   1.00
C310   C     0.43641   0.54345   0.02281   0.00000  Uiso   1.00
H311   H     0.40846   0.55919   0.03928   0.00000  Uiso   1.00
H312   H     0.55064   0.47167   0.42804   0.00000  Uiso   1.00
H313   H     0.36455   0.58273   0.39219   0.00000  Uiso   1.00
H314   H     0.37943   0.59342   0.43672   0.00000  Uiso   1.00
H315   H     0.64022   0.52799   0.41752   0.00000  Uiso   1.00
H316   H     0.65540   0.52979   0.46206   0.00000  Uiso   1.00
H317   H     0.63771   0.60342   0.48073   0.00000  Uiso   1.00
H318   H     0.59191   0.56819   0.47325   0.00000  Uiso   1.00
H319   H     0.62232   0.60190   0.43576   0.00000  Uiso   1.00
H320   H     0.61367   0.44249   0.02172   0.00000  Uiso   1.00
H321   H     0.35049   0.52661   0.21421   0.00000  Uiso   1.00
H322   H     0.65111   0.47442   0.28563   0.00000  Uiso   1.00
H323   H     0.45815   0.66531   0.28432   0.00000  Uiso   1.00
H324   H     0.47502   0.49352   0.09985   0.00000  Uiso   1.00
H325   H     0.59246   0.44682   0.09407   0.00000  Uiso   1.00
H326   H     0.59678   0.45030   0.46116   0.00000  Uiso   1.00
H327   H     0.38392   0.54949   0.48122   0.00000  Uiso   1.00
O328   O     0.50000   0.50000   0.25000   0.00000  Uiso   1.00
O329   O     0.49027   0.45726   0.16625   0.00000  Uiso   1.00
O330   O     0.46020   0.53979   0.33749   0.00000  Uiso   1.00
O331   O     0.54421   0.50826   0.15877   0.00000  Uiso   1.00
O332   O     0.50532   0.49468   0.33749   0.00000  Uiso   1.00
O333   O     0.39378   0.53565   0.40240   0.00000  Uiso   1.00
O334   O     0.51182   0.41434   0.27820   0.00000  Uiso   1.00
O335   O     0.47914   0.59469   0.26767   0.00000  Uiso   1.00
O336   O     0.40785   0.46584   0.23607   0.00000  Uiso   1.00
O337   O     0.60119   0.52512   0.21806   0.00000  Uiso   1.00
O338   O     0.40323   0.52293   0.27820   0.00000  Uiso   1.00
O339   O     0.58773   0.48610   0.26768   0.00000  Uiso   1.00
O340   O     0.47133   0.40236   0.23607   0.00000  Uiso   1.00
O341   O     0.53771   0.58860   0.21806   0.00000  Uiso   1.00
Zn342  Zn    0.52577   0.47423   0.28278   0.00000  Uiso   1.00
Zn343  Zn    0.46792   0.45711   0.22258   0.00000  Uiso   1.00
Zn344  Zn    0.54500   0.52997   0.21188   0.00000  Uiso   1.00
Zn345  Zn    0.46131   0.53868   0.28277   0.00000  Uiso   1.00
Br346  Br    0.89657   0.34608   0.19722   0.00000  Uiso   1.00
Br347  Br    0.89227   0.53783   0.39031   0.00000  Uiso   1.00
Br348  Br    0.79370   0.56748   0.09266   0.00000  Uiso   1.00
C349   C     0.71920   0.49344   0.25863   0.00000  Uiso   1.00
C350   C     0.87759   0.48114   0.45919   0.00000  Uiso   1.00
C351   C     0.90316   0.46703   0.47839   0.00000  Uiso   1.00
C352   C     0.94783   0.50699   0.24111   0.00000  Uiso   1.00
C353   C     0.89244   0.47177   0.01936   0.00000  Uiso   1.00
C354   C     0.85490   0.49064   0.04160   0.00000  Uiso   1.00
C355   C     0.91758   0.45577   0.03845   0.00000  Uiso   1.00
C356   C     0.90514   0.45732   0.07940   0.00000  Uiso   1.00
C357   C     0.83997   0.48616   0.08227   0.00000  Uiso   1.00
C358   C     0.99391   0.50967   0.23731   0.00000  Uiso   1.00
C359   C     0.67377   0.49124   0.26216   0.00000  Uiso   1.00
C360   C     0.75851   0.53634   0.42187   0.00000  Uiso   1.00
C361   C     0.84820   0.65561   0.23741   0.00000  Uiso   1.00
C362   C     0.81879   0.34544   0.26181   0.00000  Uiso   1.00
C363   C     0.82236   0.38954   0.25914   0.00000  Uiso   1.00
C364   C     0.84370   0.61110   0.24118   0.00000  Uiso   1.00
C365   C     0.85536   0.47865   0.14396   0.00000  Uiso   1.00
C366   C     0.81188   0.52092   0.35618   0.00000  Uiso   1.00
C367   C     0.80060   0.52768   0.39956   0.00000  Uiso   1.00
C368   C     0.86579   0.47164   0.10122   0.00000  Uiso   1.00
C369   C     0.74876   0.54168   0.46327   0.00000  Uiso   1.00
C370   C     0.69995   0.56777   0.41763   0.00000  Uiso   1.00
C371   C     0.83180   0.52418   0.41864   0.00000  Uiso   1.00
C372   C     0.98756   0.54893   0.43903   0.00000  Uiso   1.00
C373   C     0.95813   0.58283   0.45834   0.00000  Uiso   1.00
C374   C     0.81887   0.52133   0.45983   0.00000  Uiso   1.00
C375   C     0.77874   0.53489   0.48204   0.00000  Uiso   1.00
C376   C     0.84381   0.50526   0.47988   0.00000  Uiso   1.00
C377   C     0.83229   0.51061   0.02199   0.00000  Uiso   1.00
C378   C     0.79832   0.53534   0.04227   0.00000  Uiso   1.00
C379   C     0.76974   0.54345   0.02281   0.00000  Uiso   1.00
H380   H     0.74179   0.55919   0.03928   0.00000  Uiso   1.00
H381   H     0.88397   0.47167   0.42804   0.00000  Uiso   1.00
H382   H     0.69789   0.58273   0.39219   0.00000  Uiso   1.00
H383   H     0.71276   0.59342   0.43672   0.00000  Uiso   1.00
H384   H     0.97355   0.52799   0.41752   0.00000  Uiso   1.00
H385   H     0.98873   0.52979   0.46206   0.00000  Uiso   1.00
H386   H     0.97104   0.60342   0.48073   0.00000  Uiso   1.00
H387   H     0.92525   0.56819   0.47325   0.00000  Uiso   1.00
H388   H     0.95565   0.60190   0.43576   0.00000  Uiso   1.00
H389   H     0.94700   0.44249   0.02172   0.00000  Uiso   1.00
H390   H     0.68382   0.52661   0.21421   0.00000  Uiso   1.00
H391   H     0.98445   0.47442   0.28563   0.00000  Uiso   1.00
H392   H     0.79149   0.66531   0.28432   0.00000  Uiso   1.00
H393   H     0.80836   0.49352   0.09985   0.00000  Uiso   1.00
H394   H     0.92580   0.44682   0.09407   0.00000  Uiso   1.00
H395   H     0.93011   0.45030   0.46116   0.00000  Uiso   1.00
H396   H     0.71726   0.54949   0.48122   0.00000  Uiso   1.00
O397   O     0.83333   0.50000   0.25000   0.00000  Uiso   1.00
O398   O     0.82360   0.45726   0.16625   0.00000  Uiso   1.00
O399   O     0.79354   0.53979   0.33749   0.00000  Uiso   1.00
O400   O     0.87755   0.50826   0.15877   0.00000  Uiso   1.00
O401   O     0.83865   0.49468   0.33749   0.00000  Uiso   1.00
O402   O     0.72711   0.53565   0.40240   0.00000  Uiso   1.00
O403   O     0.84515   0.41434   0.27820   0.00000  Uiso   1.00
O404   O     0.81247   0.59469   0.26767   0.00000  Uiso   1.00
O405   O     0.74119   0.46584   0.23607   0.00000  Uiso   1.00
O406   O     0.93452   0.52512   0.21806   0.00000  Uiso   1.00
O407   O     0.73656   0.52293   0.27820   0.00000  Uiso   1.00
O408   O     0.92106   0.48610   0.26768   0.00000  Uiso   1.00
O409   O     0.80467   0.40236   0.23607   0.00000  Uiso   1.00
O410   O     0.87104   0.58860   0.21806   0.00000  Uiso   1.00
Zn411  Zn    0.85910   0.47423   0.28278   0.00000  Uiso   1.00
Zn412  Zn    0.80125   0.45711   0.22258   0.00000  Uiso   1.00
Zn413  Zn    0.87833   0.52997   0.21188   0.00000  Uiso   1.00
Zn414  Zn    0.79465   0.53868   0.28277   0.00000  Uiso   1.00
Br415  Br    0.22990   0.67941   0.19722   0.00000  Uiso   1.00
Br416  Br    0.22560   0.87117   0.39031   0.00000  Uiso   1.00
Br417  Br    0.12704   0.90081   0.09266   0.00000  Uiso   1.00
C418   C     0.05254   0.82677   0.25863   0.00000  Uiso   1.00
C419   C     0.21093   0.81448   0.45919   0.00000  Uiso   1.00
C420   C     0.23650   0.80036   0.47839   0.00000  Uiso   1.00
C421   C     0.28116   0.84032   0.24111   0.00000  Uiso   1.00
C422   C     0.22577   0.80510   0.01936   0.00000  Uiso   1.00
C423   C     0.18823   0.82397   0.04160   0.00000  Uiso   1.00
C424   C     0.25091   0.78911   0.03845   0.00000  Uiso   1.00
C425   C     0.23847   0.79066   0.07940   0.00000  Uiso   1.00
C426   C     0.17330   0.81949   0.08227   0.00000  Uiso   1.00
C427   C     0.32724   0.84300   0.23731   0.00000  Uiso   1.00
C428   C     0.00710   0.82457   0.26216   0.00000  Uiso   1.00
C429   C     0.09184   0.86967   0.42187   0.00000  Uiso   1.00
C430   C     0.18153   0.98894   0.23741   0.00000  Uiso   1.00
C431   C     0.15212   0.67878   0.26181   0.00000  Uiso   1.00
C432   C     0.15569   0.72287   0.25914   0.00000  Uiso   1.00
C433   C     0.17703   0.94443   0.24118   0.00000  Uiso   1.00
C434   C     0.18869   0.81198   0.14396   0.00000  Uiso   1.00
C435   C     0.14522   0.85426   0.35618   0.00000  Uiso   1.00
C436   C     0.13394   0.86101   0.39956   0.00000  Uiso   1.00
C437   C     0.19913   0.80498   0.10122   0.00000  Uiso   1.00
C438   C     0.08209   0.87502   0.46327   0.00000  Uiso   1.00
C439   C     0.03328   0.90110   0.41763   0.00000  Uiso   1.00
C440   C     0.16514   0.85751   0.41864   0.00000  Uiso   1.00
C441   C     0.32090   0.88226   0.43903   0.00000  Uiso   1.00
C442   C     0.29147   0.91616   0.45834   0.00000  Uiso   1.00
C443   C     0.15220   0.85466   0.45983   0.00000  Uiso   1.00
C444   C     0.11207   0.86822   0.48204   0.00000  Uiso   1.00
C445   C     0.17714   0.83860   0.47988   0.00000  Uiso   1.00
C446   C     0.16562   0.84394   0.02199   0.00000  Uiso   1.00
C447   C     0.13166   0.86867   0.04227   0.00000  Uiso   1.00
C448   C     0.10308   0.87679   0.02281   0.00000  Uiso   1.00
H449   H     0.07512   0.89253   0.03928   0.00000  Uiso   1.00
H450   H     0.21730   0.80500   0.42804   0.00000  Uiso   1.00
H451   H     0.03122   0.91607   0.39219   0.00000  Uiso   1.00
H452   H     0.04609   0.92676   0.43672   0.00000  Uiso   1.00
H453   H     0.30689   0.86132   0.41752   0.00000  Uiso   1.00
H454   H     0.32206   0.86313   0.46206   0.00000  Uiso   1.00
H455   H     0.30437   0.93675   0.48073   0.00000  Uiso   1.00
H456   H     0.25858   0.90152   0.47325   0.00000  Uiso   1.00
H457   H     0.28898   0.93524   0.43576   0.00000  Uiso   1.00
H458   H     0.28034   0.77582   0.02172   0.00000  Uiso   1.00
H459   H     0.01716   0.85994   0.21421   0.00000  Uiso   1.00
H460   H     0.31778   0.80775   0.28563   0.00000  Uiso   1.00
H461   H     0.12482   0.99865   0.28432   0.00000  Uiso   1.00
H462   H     0.14169   0.82685   0.09985   0.00000  Uiso   1.00
H463   H     0.25913   0.78016   0.09407   0.00000  Uiso   1.00
H464   H     0.26345   0.78364   0.46116   0.00000  Uiso   1.00
H465   H     0.05059   0.88282   0.48122   0.00000  Uiso   1.00
O466   O     0.16667   0.83333   0.25000   0.00000  Uiso   1.00
O467   O     0.15693   0.79060   0.16625   0.00000  Uiso   1.00
O468   O     0.12687   0.87313   0.33749   0.00000  Uiso   1.00
O469   O     0.21088   0.84159   0.15877   0.00000  Uiso   1.00
O470   O     0.17198   0.82802   0.33749   0.00000  Uiso   1.00
O471   O     0.06045   0.86898   0.40240   0.00000  Uiso   1.00
O472   O     0.17849   0.74768   0.27820   0.00000  Uiso   1.00
O473   O     0.14581   0.92803   0.26767   0.00000  Uiso   1.00
O474   O     0.07452   0.79917   0.23607   0.00000  Uiso   1.00
O475   O     0.26785   0.85845   0.21806   0.00000  Uiso   1.00
O476   O     0.06990   0.85627   0.27820   0.00000  Uiso   1.00
O477   O     0.25440   0.81944   0.26768   0.00000  Uiso   1.00
O478   O     0.13800   0.73570   0.23607   0.00000  Uiso   1.00
O479   O     0.20437   0.92193   0.21806   0.00000  Uiso   1.00
Zn480  Zn    0.19244   0.80756   0.28278   0.00000  Uiso   1.00
Zn481  Zn    0.13459   0.79044   0.22258   0.00000  Uiso   1.00
Zn482  Zn    0.21166   0.86331   0.21188   0.00000  Uiso   1.00
Zn483  Zn    0.12798   0.87202   0.28277   0.00000  Uiso   1.00
Br484  Br    0.56324   0.67941   0.19722   0.00000  Uiso   1.00
Br485  Br    0.55894   0.87117   0.39031   0.00000  Uiso   1.00
Br486  Br    0.46037   0.90081   0.09266   0.00000  Uiso   1.00
C487   C     0.38587   0.82677   0.25863   0.00000  Uiso   1.00
C488   C     0.54426   0.81448   0.45919   0.00000  Uiso   1.00
C489   C     0.56983   0.80036   0.47839   0.00000  Uiso   1.00
C490   C     0.61449   0.84032   0.24111   0.00000  Uiso   1.00
C491   C     0.55910   0.80510   0.01936   0.00000  Uiso   1.00
C492   C     0.52156   0.82397   0.04160   0.00000  Uiso   1.00
C493   C     0.58425   0.78911   0.03845   0.00000  Uiso   1.00
C494   C     0.57181   0.79066   0.07940   0.00000  Uiso   1.00
C495   C     0.50664   0.81949   0.08227   0.00000  Uiso   1.00
C496   C     0.66057   0.84300   0.23731   0.00000  Uiso   1.00
C497   C     0.34044   0.82457   0.26216   0.00000  Uiso   1.00
C498   C     0.42517   0.86967   0.42187   0.00000  Uiso   1.00
C499   C     0.51487   0.98894   0.23741   0.00000  Uiso   1.00
C500   C     0.48545   0.67878   0.26181   0.00000  Uiso   1.00
C501   C     0.48903   0.72287   0.25914   0.00000  Uiso   1.00
C502   C     0.51037   0.94443   0.24118   0.00000  Uiso   1.00
C503   C     0.52203   0.81198   0.14396   0.00000  Uiso   1.00
C504   C     0.47855   0.85426   0.35618   0.00000  Uiso   1.00
C505   C     0.46727   0.86101   0.39956   0.00000  Uiso   1.00
C506   C     0.53246   0.80498   0.10122   0.00000  Uiso   1.00
C507   C     0.41543   0.87502   0.46327   0.00000  Uiso   1.00
C508   C     0.36661   0.90110   0.41763   0.00000  Uiso   1.00
C509   C     0.49847   0.85751   0.41864   0.00000  Uiso   1.00
C510   C     0.65423   0.88226   0.43903   0.00000  Uiso   1.00
C511   C     0.62480   0.91616   0.45834   0.00000  Uiso   1.00
C512   C     0.48554   0.85466   0.45983   0.00000  Uiso   1.00
C513   C     0.44541   0.86822   0.48204   0.00000  Uiso   1.00
C514   C     0.51048   0.83860   0.47988   0.00000  Uiso   1.00
C515   C     0.49895   0.84394   0.02199   0.00000  Uiso   1.00
C516   C     0.46499   0.86867   0.04227   0.00000  Uiso   1.00
C517   C     0.43641   0.87679   0.02281   0.00000  Uiso   1.00
H518   H     0.40846   0.89253   0.03928   0.00000  Uiso   1.00
H519   H     0.55064   0.80500   0.42804   0.00000  Uiso   1.00
H520   H     0.36455   0.91607   0.39219   0.00000  Uiso   1.00
H521   H     0.37943   0.92676   0.43672   0.00000  Uiso   1.00
H522   H     0.64022   0.86132   0.41752   0.00000  Uiso   1.00
H523   H     0.65540   0.86313   0.46206   0.00000  Uiso   1.00
H524   H     0.63771   0.93675   0.48073   0.00000  Uiso   1.00
H525   H     0.59191   0.90152   0.47325   0.00000  Uiso   1.00
H526   H     0.62232   0.93524   0.43576   0.00000  Uiso   1.00
H527   H     0.61367   0.77582   0.02172   0.00000  Uiso   1.00
H528   H     0.35049   0.85994   0.21421   0.00000  Uiso   1.00
H529   H     0.65111   0.80775   0.28563   0.00000  Uiso   1.00
H530   H     0.45815   0.99865   0.28432   0.00000  Uiso   1.00
H531   H     0.47502   0.82685   0.09985   0.00000  Uiso   1.00
H532   H     0.59246   0.78016   0.09407   0.00000  Uiso   1.00
H533   H     0.59678   0.78364   0.46116   0.00000  Uiso   1.00
H534   H     0.38392   0.88282   0.48122   0.00000  Uiso   1.00
O535   O     0.50000   0.83333   0.25000   0.00000  Uiso   1.00
O536   O     0.49027   0.79060   0.16625   0.00000  Uiso   1.00
O537   O     0.46020   0.87313   0.33749   0.00000  Uiso   1.00
O538   O     0.54421   0.84159   0.15877   0.00000  Uiso   1.00
O539   O     0.50532   0.82802   0.33749   0.00000  Uiso   1.00
O540   O     0.39378   0.86898   0.40240   0.00000  Uiso   1.00
O541   O     0.51182   0.74768   0.27820   0.00000  Uiso   1.00
O542   O     0.47914   0.92803   0.26767   0.00000  Uiso   1.00
O543   O     0.40785   0.79917   0.23607   0.00000  Uiso   1.00
O544   O     0.60119   0.85845   0.21806   0.00000  Uiso   1.00
O545   O     0.40323   0.85627   0.27820   0.00000  Uiso   1.00
O546   O     0.58773   0.81944   0.26768   0.00000  Uiso   1.00
O547   O     0.47133   0.73570   0.23607   0.00000  Uiso   1.00
O548   O     0.53771   0.92193   0.21806   0.00000  Uiso   1.00
Zn549  Zn    0.52577   0.80756   0.28278   0.00000  Uiso   1.00
Zn550  Zn    0.46792   0.79044   0.22258   0.00000  Uiso   1.00
Zn551  Zn    0.54500   0.86331   0.21188   0.00000  Uiso   1.00
Zn552  Zn    0.46131   0.87202   0.28277   0.00000  Uiso   1.00
Br553  Br    0.89657   0.67941   0.19722   0.00000  Uiso   1.00
Br554  Br    0.89227   0.87117   0.39031   0.00000  Uiso   1.00
Br555  Br    0.79370   0.90081   0.09266   0.00000  Uiso   1.00
C556   C     0.71920   0.82677   0.25863   0.00000  Uiso   1.00
C557   C     0.87759   0.81448   0.45919   0.00000  Uiso   1.00
C558   C     0.90316   0.80036   0.47839   0.00000  Uiso   1.00
C559   C     0.94783   0.84032   0.24111   0.00000  Uiso   1.00
C560   C     0.89244   0.80510   0.01936   0.00000  Uiso   1.00
C561   C     0.85490   0.82397   0.04160   0.00000  Uiso   1.00
C562   C     0.91758   0.78911   0.03845   0.00000  Uiso   1.00
C563   C     0.90514   0.79066   0.07940   0.00000  Uiso   1.00
C564   C     0.83997   0.81949   0.08227   0.00000  Uiso   1.00
C565   C     0.99391   0.84300   0.23731   0.00000  Uiso   1.00
C566   C     0.67377   0.82457   0.26216   0.00000  Uiso   1.00
C567   C     0.75851   0.86967   0.42187   0.00000  Uiso   1.00
C568   C     0.84820   0.98894   0.23741   0.00000  Uiso   1.00
C569   C     0.81879   0.67878   0.26181   0.00000  Uiso   1.00
C570   C     0.82236   0.72287   0.25914   0.00000  Uiso   1.00
C571   C     0.84370   0.94443   0.24118   0.00000  Uiso   1.00
C572   C     0.85536   0.81198   0.14396   0.00000  Uiso   1.00
C573   C     0.81188   0.85426   0.35618   0.00000  Uiso   1.00
C574   C     0.80060   0.86101   0.39956   0.00000  Uiso   1.00
C575   C     0.86579   0.80498   0.10122   0.00000  Uiso   1.00
C576   C     0.74876   0.87502   0.46327   0.00000  Uiso   1.00
C577   C     0.69995   0.90110   0.41763   0.00000  Uiso   1.00
C578   C     0.83180   0.85751   0.41864   0.00000  Uiso   1.00
C579   C     0.98756   0.88226   0.43903   0.00000  Uiso   1.00
C580   C     0.95813   0.91616   0.45834   0.00000  Uiso   1.00
C581   C     0.81887   0.85466   0.45983   0.00000  Uiso   1.00
C582   C     0.77874   0.86822   0.48204   0.00000  Uiso   1.00
C583   C     0.84381   0.83860   0.47988   0.00000  Uiso   1.00
C584   C     0.83229   0.84394   0.02199   0.00000  Uiso   1.00
C585   C     0.79832   0.86867   0.04227   0.00000  Uiso   1.00
C586   C     0.76974   0.87679   0.02281   0.00000  Uiso   1.00
H587   H     0.74179   0.89253   0.03928   0.00000  Uiso   1.00
H588   H     0.88397   0.80500   0.42804   0.00000  Uiso   1.00
H589   H     0.69789   0.91607   0.39219   0.00000  Uiso   1.00
H590   H     0.71276   0.92676   0.43672   0.00000  Uiso   1.00
H591   H     0.97355   0.86132   0.41752   0.00000  Uiso   1.00
H592   H     0.98873   0.86313   0.46206   0.00000  Uiso   1.00
H593   H     0.97104   0.93675   0.48073   0.00000  Uiso   1.00
H594   H     0.92525   0.90152   0.47325   0.00000  Uiso   1.00
H595   H     0.95565   0.93524   0.43576   0.00000  Uiso   1.00
H596   H     0.94700   0.77582   0.02172   0.00000  Uiso   1.00
H597   H     0.68382   0.85994   0.21421   0.00000  Uiso   1.00
H598   H     0.98445   0.80775   0.28563   0.00000  Uiso   1.00
H599   H     0.79149   0.99865   0.28432   0.00000  Uiso   1.00
H600   H     0.80836   0.82685   0.09985   0.00000  Uiso   1.00
H601   H     0.92580   0.78016   0.09407   0.00000  Uiso   1.00
H602   H     0.93011   0.78364   0.46116   0.00000  Uiso   1.00
H603   H     0.71726   0.88282   0.48122   0.00000  Uiso   1.00
O604   O     0.83333   0.83333   0.25000   0.00000  Uiso   1.00
O605   O     0.82360   0.79060   0.16625   0.00000  Uiso   1.00
O606   O     0.79354   0.87313   0.33749   0.00000  Uiso   1.00
O607   O     0.87755   0.84159   0.15877   0.00000  Uiso   1.00
O608   O     0.83865   0.82802   0.33749   0.00000  Uiso   1.00
O609   O     0.72711   0.86898   0.40240   0.00000  Uiso   1.00
O610   O     0.84515   0.74768   0.27820   0.00000  Uiso   1.00
O611   O     0.81247   0.92803   0.26767   0.00000  Uiso   1.00
O612   O     0.74119   0.79917   0.23607   0.00000  Uiso   1.00
O613   O     0.93452   0.85845   0.21806   0.00000  Uiso   1.00
O614   O     0.73656   0.85627   0.27820   0.00000  Uiso   1.00
O615   O     0.92106   0.81944   0.26768   0.00000  Uiso   1.00
O616   O     0.80467   0.73570   0.23607   0.00000  Uiso   1.00
O617   O     0.87104   0.92193   0.21806   0.00000  Uiso   1.00
Zn618  Zn    0.85910   0.80756   0.28278   0.00000  Uiso   1.00
Zn619  Zn    0.80125   0.79044   0.22258   0.00000  Uiso   1.00
Zn620  Zn    0.87833   0.86331   0.21188   0.00000  Uiso   1.00
Zn621  Zn    0.79465   0.87202   0.28277   0.00000  Uiso   1.00
Br622  Br    0.22990   0.01275   0.69722   0.00000  Uiso   1.00
Br623  Br    0.22560   0.20450   0.89031   0.00000  Uiso   1.00
Br624  Br    0.12704   0.23414   0.59266   0.00000  Uiso   1.00
C625   C     0.05254   0.16010   0.75863   0.00000  Uiso   1.00
C626   C     0.21093   0.14781   0.95919   0.00000  Uiso   1.00
C627   C     0.23650   0.13369   0.97839   0.00000  Uiso   1.00
C628   C     0.28116   0.17365   0.74111   0.00000  Uiso   1.00
C629   C     0.22577   0.13843   0.51936   0.00000  Uiso   1.00
C630   C     0.18823   0.15730   0.54160   0.00000  Uiso   1.00
C631   C     0.25091   0.12244   0.53845   0.00000  Uiso   1.00
C632   C     0.23847   0.12399   0.57940   0.00000  Uiso   1.00
C633   C     0.17330   0.15282   0.58227   0.00000  Uiso   1.00
C634   C     0.32724   0.17634   0.73731   0.00000  Uiso   1.00
C635   C     0.00710   0.15790   0.76216   0.00000  Uiso   1.00
C636   C     0.09184   0.20300   0.92187   0.00000  Uiso   1.00
C637   C     0.18153   0.32227   0.73741   0.00000  Uiso   1.00
C638   C     0.15212   0.01211   0.76181   0.00000  Uiso   1.00
C639   C     0.15569   0.05621   0.75914   0.00000  Uiso   1.00
C640   C     0.17703   0.27776   0.74118   0.00000  Uiso   1.00
C641   C     0.18869   0.14532   0.64396   0.00000  Uiso   1.00
C642   C     0.14522   0.18759   0.85618   0.00000  Uiso   1.00
C643   C     0.13394   0.19434   0.89956   0.00000  Uiso   1.00
C644   C     0.19913   0.13831   0.60122   0.00000  Uiso   1.00
C645   C     0.08209   0.20835   0.96327   0.00000  Uiso   1.00
C646   C     0.03328   0.23443   0.91763   0.00000  Uiso   1.00
C647   C     0.16514   0.19084   0.91864   0.00000  Uiso   1.00
C648   C     0.32090   0.21559   0.93903   0.00000  Uiso   1.00
C649   C     0.29147   0.24949   0.95834   0.00000  Uiso   1.00
C650   C     0.15220   0.18800   0.95983   0.00000  Uiso   1.00
C651   C     0.11207   0.20156   0.98204   0.00000  Uiso   1.00
C652   C     0.17714   0.17193   0.97988   0.00000  Uiso   1.00
C653   C     0.16562   0.17727   0.52199   0.00000  Uiso   1.00
C654   C     0.13166   0.20201   0.54227   0.00000  Uiso   1.00
C655   C     0.10308   0.21012   0.52281   0.00000  Uiso   1.00
H656   H     0.07512   0.22586   0.53928   0.00000  Uiso   1.00
H657   H     0.21730   0.13833   0.92804   0.00000  Uiso   1.00
H658   H     0.03122   0.24940   0.89219   0.00000  Uiso   1.00
H659   H     0.04609   0.26009   0.93672   0.00000  Uiso   1.00
H660   H     0.30689   0.19465   0.91752   0.00000  Uiso   1.00
H661   H     0.32206   0.19646   0.96206   0.00000  Uiso   1.00
H662   H     0.30437   0.27009   0.98073   0.00000  Uiso   1.00
H663   H     0.25858   0.23486   0.97325   0.00000  Uiso   1.00
H664   H     0.28898   0.26857   0.93576   0.00000  Uiso   1.00
H665   H     0.28034   0.10915   0.52172   0.00000  Uiso   1.00
H666   H     0.01716   0.19328   0.71421   0.00000  Uiso   1.00
H667   H     0.31778   0.14108   0.78563   0.00000  Uiso   1.00
H668   H     0.12482   0.33198   0.78432   0.00000  Uiso   1.00
H669   H     0.14169   0.16018   0.59985   0.00000  Uiso   1.00
H670   H     0.25913   0.11349   0.59407   0.00000  Uiso   1.00
H671   H     0.26345   0.11697   0.96116   0.00000  Uiso   1.00
H672   H     0.05059   0.21615   0.98122   0.00000  Uiso   1.00
O673   O     0.16667   0.16667   0.75000   0.00000  Uiso   1.00
O674   O     0.15693   0.12393   0.66625   0.00000  Uiso   1.00
O675   O     0.12687   0.20646   0.83749   0.00000  Uiso   1.00
O676   O     0.21088   0.17493   0.65877   0.00000  Uiso   1.00
O677   O     0.17198   0.16135   0.83749   0.00000  Uiso   1.00
O678   O     0.06045   0.20231   0.90240   0.00000  Uiso   1.00
O679   O     0.17849   0.08101   0.77820   0.00000  Uiso   1.00
O680   O     0.14581   0.26136   0.76767   0.00000  Uiso   1.00
O681   O     0.07452   0.13251   0.73607   0.00000  Uiso   1.00
O682   O     0.26785   0.19179   0.71806   0.00000  Uiso   1.00
O683   O     0.06990   0.18960   0.77820   0.00000  Uiso   1.00
O684   O     0.25440   0.15277   0.76768   0.00000  Uiso   1.00
O685   O     0.13800   0.06903   0.73607   0.00000  Uiso   1.00
O686   O     0.20437   0.25527   0.71806   0.00000  Uiso   1.00
Zn687  Zn    0.19244   0.14090   0.78278   0.00000  Uiso   1.00
Zn688  Zn    0.13459   0.12378   0.72258   0.00000  Uiso   1.00
Zn689  Zn    0.21166   0.19664   0.71188   0.00000  Uiso   1.00
Zn690  Zn    0.12798   0.20535   0.78277   0.00000  Uiso   1.00
Br691  Br    0.56324   0.01275   0.69722   0.00000  Uiso   1.00
Br692  Br    0.55894   0.20450   0.89031   0.00000  Uiso   1.00
Br693  Br    0.46037   0.23414   0.59266   0.00000  Uiso   1.00
C694   C     0.38587   0.16010   0.75863   0.00000  Uiso   1.00
C695   C     0.54426   0.14781   0.95919   0.00000  Uiso   1.00
C696   C     0.56983   0.13369   0.97839   0.00000  Uiso   1.00
C697   C     0.61449   0.17365   0.74111   0.00000  Uiso   1.00
C698   C     0.55910   0.13843   0.51936   0.00000  Uiso   1.00
C699   C     0.52156   0.15730   0.54160   0.00000  Uiso   1.00
C700   C     0.58425   0.12244   0.53845   0.00000  Uiso   1.00
C701   C     0.57181   0.12399   0.57940   0.00000  Uiso   1.00
C702   C     0.50664   0.15282   0.58227   0.00000  Uiso   1.00
C703   C     0.66057   0.17634   0.73731   0.00000  Uiso   1.00
C704   C     0.34044   0.15790   0.76216   0.00000  Uiso   1.00
C705   C     0.42517   0.20300   0.92187   0.00000  Uiso   1.00
C706   C     0.51487   0.32227   0.73741   0.00000  Uiso   1.00
C707   C     0.48545   0.01211   0.76181   0.00000  Uiso   1.00
C708   C     0.48903   0.05621   0.75914   0.00000  Uiso   1.00
C709   C     0.51037   0.27776   0.74118   0.00000  Uiso   1.00
C710   C     0.52203   0.14532   0.64396   0.00000  Uiso   1.00
C711   C     0.47855   0.18759   0.85618   0.00000  Uiso   1.00
C712   C     0.46727   0.19434   0.89956   0.00000  Uiso   1.00
C713   C     0.53246   0.13831   0.60122   0.00000  Uiso   1.00
C714   C     0.41543   0.20835   0.96327   0.00000  Uiso   1.00
C715   C     0.36661   0.23443   0.91763   0.00000  Uiso   1.00
C716   C     0.49847   0.19084   0.91864   0.00000  Uiso   1.00
C717   C     0.65423   0.21559   0.93903   0.00000  Uiso   1.00
C718   C     0.62480   0.24949   0.95834   0.00000  Uiso   1.00
C719   C     0.48554   0.18800   0.95983   0.00000  Uiso   1.00
C720   C     0.44541   0.20156   0.98204   0.00000  Uiso   1.00
C721   C     0.51048   0.17193   0.97988   0.00000  Uiso   1.00
C722   C     0.49895   0.17727   0.52199   0.00000  Uiso   1.00
C723   C     0.46499   0.20201   0.54227   0.00000  Uiso   1.00
C724   C     0.43641   0.21012   0.52281   0.00000  Uiso   1.00
H725   H     0.40846   0.22586   0.53928   0.00000  Uiso   1.00
H726   H     0.55064   0.13833   0.92804   0.00000  Uiso   1.00
H727   H     0.36455   0.24940   0.89219   0.00000  Uiso   1.00
H728   H     0.37943   0.26009   0.93672   0.00000  Uiso   1.00
H729   H     0.64022   0.19465   0.91752   0.00000  Uiso   1.00
H730   H     0.65540   0.19646   0.96206   0.00000  Uiso   1.00
H731   H     0.63771   0.27009   0.98073   0.00000  Uiso   1.00
H732   H     0.59191   0.23486   0.97325   0.00000  Uiso   1.00
H733   H     0.62232   0.26857   0.93576   0.00000  Uiso   1.00
H734   H     0.61367   0.10915   0.52172   0.00000  Uiso   1.00
H735   H     0.35049   0.19328   0.71421   0.00000  Uiso   1.00
H736   H     0.65111   0.14108   0.78563   0.00000  Uiso   1.00
H737   H     0.45815   0.33198   0.78432   0.00000  Uiso   1.00
H738   H     0.47502   0.16018   0.59985   0.00000  Uiso   1.00
H739   H     0.59246   0.11349   0.59407   0.00000  Uiso   1.00
H740   H     0.59678   0.11697   0.96116   0.00000  Uiso   1.00
H741   H     0.38392   0.21615   0.98122   0.00000  Uiso   1.00
O742   O     0.50000   0.16667   0.75000   0.00000  Uiso   1.00
O743   O     0.49027   0.12393   0.66625   0.00000  Uiso   1.00
O744   O     0.46020   0.20646   0.83749   0.00000  Uiso   1.00
O745   O     0.54421   0.17493   0.65877   0.00000  Uiso   1.00
O746   O     0.50532   0.16135   0.83749   0.00000  Uiso   1.00
O747   O     0.39378   0.20231   0.90240   0.00000  Uiso   1.00
O748   O     0.51182   0.08101   0.77820   0.00000  Uiso   1.00
O749   O     0.47914   0.26136   0.76767   0.00000  Uiso   1.00
O750   O     0.40785   0.13251   0.73607   0.00000  Uiso   1.00
O751   O     0.60119   0.19179   0.71806   0.00000  Uiso   1.00
O752   O     0.40323   0.18960   0.77820   0.00000  Uiso   1.00
O753   O     0.58773   0.15277   0.76768   0.00000  Uiso   1.00
O754   O     0.47133   0.06903   0.73607   0.00000  Uiso   1.00
O755   O     0.53771   0.25527   0.71806   0.00000  Uiso   1.00
Zn756  Zn    0.52577   0.14090   0.78278   0.00000  Uiso   1.00
Zn757  Zn    0.46792   0.12378   0.72258   0.00000  Uiso   1.00
Zn758  Zn    0.54500   0.19664   0.71188   0.00000  Uiso   1.00
Zn759  Zn    0.46131   0.20535   0.78277   0.00000  Uiso   1.00
Br760  Br    0.89657   0.01275   0.69722   0.00000  Uiso   1.00
Br761  Br    0.89227   0.20450   0.89031   0.00000  Uiso   1.00
Br762  Br    0.79370   0.23414   0.59266   0.00000  Uiso   1.00
C763   C     0.71920   0.16010   0.75863   0.00000  Uiso   1.00
C764   C     0.87759   0.14781   0.95919   0.00000  Uiso   1.00
C765   C     0.90316   0.13369   0.97839   0.00000  Uiso   1.00
C766   C     0.94783   0.17365   0.74111   0.00000  Uiso   1.00
C767   C     0.89244   0.13843   0.51936   0.00000  Uiso   1.00
C768   C     0.85490   0.15730   0.54160   0.00000  Uiso   1.00
C769   C     0.91758   0.12244   0.53845   0.00000  Uiso   1.00
C770   C     0.90514   0.12399   0.57940   0.00000  Uiso   1.00
C771   C     0.83997   0.15282   0.58227   0.00000  Uiso   1.00
C772   C     0.99391   0.17634   0.73731   0.00000  Uiso   1.00
C773   C     0.67377   0.15790   0.76216   0.00000  Uiso   1.00
C774   C     0.75851   0.20300   0.92187   0.00000  Uiso   1.00
C775   C     0.84820   0.32227   0.73741   0.00000  Uiso   1.00
C776   C     0.81879   0.01211   0.76181   0.00000  Uiso   1.00
C777   C     0.82236   0.05621   0.75914   0.00000  Uiso   1.00
C778   C     0.84370   0.27776   0.74118   0.00000  Uiso   1.00
C779   C     0.85536   0.14532   0.64396   0.00000  Uiso   1.00
C780   C     0.81188   0.18759   0.85618   0.00000  Uiso   1.00
C781   C     0.80060   0.19434   0.89956   0.00000  Uiso   1.00
C782   C     0.86579   0.13831   0.60122   0.00000  Uiso   1.00
C783   C     0.74876   0.20835   0.96327   0.00000  Uiso   1.00
C784   C     0.69995   0.23443   0.91763   0.00000  Uiso   1.00
C785   C     0.83180   0.19084   0.91864   0.00000  Uiso   1.00
C786   C     0.98756   0.21559   0.93903   0.00000  Uiso   1.00
C787   C     0.95813   0.24949   0.95834   0.00000  Uiso   1.00
C788   C     0.81887   0.18800   0.95983   0.00000  Uiso   1.00
C789   C     0.77874   0.20156   0.98204   0.00000  Uiso   1.00
C790   C     0.84381   0.17193   0.97988   0.00000  Uiso   1.00
C791   C     0.83229   0.17727   0.52199   0.00000  Uiso   1.00
C792   C     0.79832   0.20201   0.54227   0.00000  Uiso   1.00
C793   C     0.76974   0.21012   0.52281   0.00000  Uiso   1.00
H794   H     0.74179   0.22586   0.53928   0.00000  Uiso   1.00
H795   H     0.88397   0.13833   0.92804   0.00000  Uiso   1.00
H796   H     0.69789   0.24940   0.89219   0.00000  Uiso   1.00
H797   H     0.71276   0.26009   0.93672   0.00000  Uiso   1.00
H798   H     0.97355   0.19465   0.91752   0.00000  Uiso   1.00
H799   H     0.98873   0.19646   0.96206   0.00000  Uiso   1.00
H800   H     0.97104   0.27009   0.98073   0.00000  Uiso   1.00
H801   H     0.92525   0.23486   0.97325   0.00000  Uiso   1.00
H802   H     0.95565   0.26857   0.93576   0.00000  Uiso   1.00
H803   H     0.94700   0.10915   0.52172   0.00000  Uiso   1.00
H804   H     0.68382   0.19328   0.71421   0.00000  Uiso   1.00
H805   H     0.98445   0.14108   0.78563   0.00000  Uiso   1.00
H806   H     0.79149   0.33198   0.78432   0.00000  Uiso   1.00
H807   H     0.80836   0.16018   0.59985   0.00000  Uiso   1.00
H808   H     0.92580   0.11349   0.59407   0.00000  Uiso   1.00
H809   H     0.93011   0.11697   0.96116   0.00000  Uiso   1.00
H810   H     0.71726   0.21615   0.98122   0.00000  Uiso   1.00
O811   O     0.83333   0.16667   0.75000   0.00000  Uiso   1.00
O812   O     0.82360   0.12393   0.66625   0.00000  Uiso   1.00
O813   O     0.79354   0.20646   0.83749   0.00000  Uiso   1.00
O814   O     0.87755   0.17493   0.65877   0.00000  Uiso   1.00
O815   O     0.83865   0.16135   0.83749   0.00000  Uiso   1.00
O816   O     0.72711   0.20231   0.90240   0.00000  Uiso   1.00
O817   O     0.84515   0.08101   0.77820   0.00000  Uiso   1.00
O818   O     0.81247   0.26136   0.76767   0.00000  Uiso   1.00
O819   O     0.74119   0.13251   0.73607   0.00000  Uiso   1.00
O820   O     0.93452   0.19179   0.71806   0.00000  Uiso   1.00
O821   O     0.73656   0.18960   0.77820   0.00000  Uiso   1.00
O822   O     0.92106   0.15277   0.76768   0.00000  Uiso   1.00
O823   O     0.80467   0.06903   0.73607   0.00000  Uiso   1.00
O824   O     0.87104   0.25527   0.71806   0.00000  Uiso   1.00
Zn825  Zn    0.85910   0.14090   0.78278   0.00000  Uiso   1.00
Zn826  Zn    0.80125   0.12378   0.72258   0.00000  Uiso   1.00
Zn827  Zn    0.87833   0.19664   0.71188   0.00000  Uiso   1.00
Zn828  Zn    0.79465   0.20535   0.78277   0.00000  Uiso   1.00
Br829  Br    0.22990   0.34608   0.69722   0.00000  Uiso   1.00
Br830  Br    0.22560   0.53783   0.89031   0.00000  Uiso   1.00
Br831  Br    0.12704   0.56748   0.59266   0.00000  Uiso   1.00
C832   C     0.05254   0.49344   0.75863   0.00000  Uiso   1.00
C833   C     0.21093   0.48114   0.95919   0.00000  Uiso   1.00
C834   C     0.23650   0.46703   0.97839   0.00000  Uiso   1.00
C835   C     0.28116   0.50699   0.74111   0.00000  Uiso   1.00
C836   C     0.22577   0.47177   0.51936   0.00000  Uiso   1.00
C837   C     0.18823   0.49064   0.54160   0.00000  Uiso   1.00
C838   C     0.25091   0.45577   0.53845   0.00000  Uiso   1.00
C839   C     0.23847   0.45732   0.57940   0.00000  Uiso   1.00
C840   C     0.17330   0.48616   0.58227   0.00000  Uiso   1.00
C841   C     0.32724   0.50967   0.73731   0.00000  Uiso   1.00
C842   C     0.00710   0.49124   0.76216   0.00000  Uiso   1.00
C843   C     0.09184   0.53634   0.92187   0.00000  Uiso   1.00
C844   C     0.18153   0.65561   0.73741   0.00000  Uiso   1.00
C845   C     0.15212   0.34544   0.76181   0.00000  Uiso   1.00
C846   C     0.15569   0.38954   0.75914   0.00000  Uiso   1.00
C847   C     0.17703   0.61110   0.74118   0.00000  Uiso   1.00
C848   C     0.18869   0.47865   0.64396   0.00000  Uiso   1.00
C849   C     0.14522   0.52092   0.85618   0.00000  Uiso   1.00
C850   C     0.13394   0.52768   0.89956   0.00000  Uiso   1.00
C851   C     0.19913   0.47164   0.60122   0.00000  Uiso   1.00
C852   C     0.08209   0.54168   0.96327   0.00000  Uiso   1.00
C853   C     0.03328   0.56777   0.91763   0.00000  Uiso   1.00
C854   C     0.16514   0.52418   0.91864   0.00000  Uiso   1.00
C855   C     0.32090   0.54893   0.93903   0.00000  Uiso   1.00
C856   C     0.29147   0.58283   0.95834   0.00000  Uiso   1.00
C857   C     0.15220   0.52133   0.95983   0.00000  Uiso   1.00
C858   C     0.11207   0.53489   0.98204   0.00000  Uiso   1.00
C859   C     0.17714   0.50526   0.97988   0.00000  Uiso   1.00
C860   C     0.16562   0.51061   0.52199   0.00000  Uiso   1.00
C861   C     0.13166   0.53534   0.54227   0.00000  Uiso   1.00
C862   C     0.10308   0.54345   0.52281   0.00000  Uiso   1.00
H863   H     0.07512   0.55919   0.53928   0.00000  Uiso   1.00
H864   H     0.21730   0.47167   0.92804   0.00000  Uiso   1.00
H865   H     0.03122   0.58273   0.89219   0.00000  Uiso   1.00
H866   H     0.04609   0.59342   0.93672   0.00000  Uiso   1.00
H867   H     0.30689   0.52799   0.91752   0.00000  Uiso   1.00
H868   H     0.32206   0.52979   0.96206   0.00000  Uiso   1.00
H869   H     0.30437   0.60342   0.98073   0.00000  Uiso   1.00
H870   H     0.25858   0.56819   0.97325   0.00000  Uiso   1.00
H871   H     0.28898   0.60190   0.93576   0.00000  Uiso   1.00
H872   H     0.28034   0.44249   0.52172   0.00000  Uiso   1.00
H873   H     0.01716   0.52661   0.71421   0.00000  Uiso   1.00
H874   H     0.31778   0.47442   0.78563   0.00000  Uiso   1.00
H875   H     0.12482   0.66531   0.78432   0.00000  Uiso   1.00
H876   H     0.14169   0.49352   0.59985   0.00000  Uiso   1.00
H877   H     0.25913   0.44682   0.59407   0.00000  Uiso   1.00
H878   H     0.26345   0.45030   0.96116   0.00000  Uiso   1.00
H879   H     0.05059   0.54949   0.98122   0.00000  Uiso   1.00
O880   O     0.16667   0.50000   0.75000   0.00000  Uiso   1.00
O881   O     0.15693   0.45726   0.66625   0.00000  Uiso   1.00
O882   O     0.12687   0.53979   0.83749   0.00000  Uiso   1.00
O883   O     0.21088   0.50826   0.65877   0.00000  Uiso   1.00
O884   O     0.17198   0.49468   0.83749   0.00000  Uiso   1.00
O885   O     0.06045   0.53565   0.90240   0.00000  Uiso   1.00
O886   O     0.17849   0.41434   0.77820   0.00000  Uiso   1.00
O887   O     0.14581   0.59469   0.76767   0.00000  Uiso   1.00
O888   O     0.07452   0.46584   0.73607   0.00000  Uiso   1.00
O889   O     0.26785   0.52512   0.71806   0.00000  Uiso   1.00
O890   O     0.06990   0.52293   0.77820   0.00000  Uiso   1.00
O891   O     0.25440   0.48610   0.76768   0.00000  Uiso   1.00
O892   O     0.13800   0.40236   0.73607   0.00000  Uiso   1.00
O893   O     0.20437   0.58860   0.71806   0.00000  Uiso   1.00
Zn894  Zn    0.19244   0.47423   0.78278   0.00000  Uiso   1.00
Zn895  Zn    0.13459   0.45711   0.72258   0.00000  Uiso   1.00
Zn896  Zn    0.21166   0.52997   0.71188   0.00000  Uiso   1.00
Zn897  Zn    0.12798   0.53868   0.78277   0.00000  Uiso   1.00
Br898  Br    0.56324   0.34608   0.69722   0.00000  Uiso   1.00
Br899  Br    0.55894   0.53783   0.89031   0.00000  Uiso   1.00
Br900  Br    0.46037   0.56748   0.59266   0.00000  Uiso   1.00
C901   C     0.38587   0.49344   0.75863   0.00000  Uiso   1.00
C902   C     0.54426   0.48114   0.95919   0.00000  Uiso   1.00
C903   C     0.56983   0.46703   0.97839   0.00000  Uiso   1.00
C904   C     0.61449   0.50699   0.74111   0.00000  Uiso   1.00
C905   C     0.55910   0.47177   0.51936   0.00000  Uiso   1.00
C906   C     0.52156   0.49064   0.54160   0.00000  Uiso   1.00
C907   C     0.58425   0.45577   0.53845   0.00000  Uiso   1.00
C908   C     0.57181   0.45732   0.57940   0.00000  Uiso   1.00
C909   C     0.50664   0.48616   0.58227   0.00000  Uiso   1.00
C910   C     0.66057   0.50967   0.73731   0.00000  Uiso   1.00
C911   C     0.34044   0.49124   0.76216   0.00000  Uiso   1.00
C912   C     0.42517   0.53634   0.92187   0.00000  Uiso   1.00
C913   C     0.51487   0.65561   0.73741   0.00000  Uiso   1.00
C914   C     0.48545   0.34544   0.76181   0.00000  Uiso   1.00
C915   C     0.48903   0.38954   0.75914   0.00000  Uiso   1.00
C916   C     0.51037   0.61110   0.74118   0.00000  Uiso   1.00
C917   C     0.52203   0.47865   0.64396   0.00000  Uiso   1.00
C918   C     0.47855   0.52092   0.85618   0.00000  Uiso   1.00
C919   C     0.46727   0.52768   0.89956   0.00000  Uiso   1.00
C920   C     0.53246   0.47164   0.60122   0.00000  Uiso   1.00
C921   C     0.41543   0.54168   0.96327   0.00000  Uiso   1.00
C922   C     0.36661   0.56777   0.91763   0.00000  Uiso   1.00
C923   C     0.49847   0.52418   0.91864   0.00000  Uiso   1.00
C924   C     0.65423   0.54893   0.93903   0.00000  Uiso   1.00
C925   C     0.62480   0.58283   0.95834   0.00000  Uiso   1.00
C926   C     0.48554   0.52133   0.95983   0.00000  Uiso   1.00
C927   C     0.44541   0.53489   0.98204   0.00000  Uiso   1.00
C928   C     0.51048   0.50526   0.97988   0.00000  Uiso   1.00
C929   C     0.49895   0.51061   0.52199   0.00000  Uiso   1.00
C930   C     0.46499   0.53534   0.54227   0.00000  Uiso   1.00
C931   C     0.43641   0.54345   0.52281   0.00000  Uiso   1.00
H932   H     0.40846   0.55919   0.53928   0.00000  Uiso   1.00
H933   H     0.55064   0.47167   0.92804   0.00000  Uiso   1.00
H934   H     0.36455   0.58273   0.89219   0.00000  Uiso   1.00
H935   H     0.37943   0.59342   0.93672   0.00000  Uiso   1.00
H936   H     0.64022   0.52799   0.91752   0.00000  Uiso   1.00
H937   H     0.65540   0.52979   0.96206   0.00000  Uiso   1.00
H938   H     0.63771   0.60342   0.98073   0.00000  Uiso   1.00
H939   H     0.59191   0.56819   0.97325   0.00000  Uiso   1.00
H940   H     0.62232   0.60190   0.93576   0.00000  Uiso   1.00
H941   H     0.61367   0.44249   0.52172   0.00000  Uiso   1.00
H942   H     0.35049   0.52661   0.71421   0.00000  Uiso   1.00
H943   H     0.65111   0.47442   0.78563   0.00000  Uiso   1.00
H944   H     0.45815   0.66531   0.78432   0.00000  Uiso   1.00
H945   H     0.47502   0.49352   0.59985   0.00000  Uiso   1.00
H946   H     0.59246   0.44682   0.59407   0.00000  Uiso   1.00
H947   H     0.59678   0.45030   0.96116   0.00000  Uiso   1.00
H948   H     0.38392   0.54949   0.98122   0.00000  Uiso   1.00
O949   O     0.50000   0.50000   0.75000   0.00000  Uiso   1.00
O950   O     0.49027   0.45726   0.66625   0.00000  Uiso   1.00
O951   O     0.46020   0.53979   0.83749   0.00000  Uiso   1.00
O952   O     0.54421   0.50826   0.65877   0.00000  Uiso   1.00
O953   O     0.50532   0.49468   0.83749   0.00000  Uiso   1.00
O954   O     0.39378   0.53565   0.90240   0.00000  Uiso   1.00
O955   O     0.51182   0.41434   0.77820   0.00000  Uiso   1.00
O956   O     0.47914   0.59469   0.76767   0.00000  Uiso   1.00
O957   O     0.40785   0.46584   0.73607   0.00000  Uiso   1.00
O958   O     0.60119   0.52512   0.71806   0.00000  Uiso   1.00
O959   O     0.40323   0.52293   0.77820   0.00000  Uiso   1.00
O960   O     0.58773   0.48610   0.76768   0.00000  Uiso   1.00
O961   O     0.47133   0.40236   0.73607   0.00000  Uiso   1.00
O962   O     0.53771   0.58860   0.71806   0.00000  Uiso   1.00
Zn963  Zn    0.52577   0.47423   0.78278   0.00000  Uiso   1.00
Zn964  Zn    0.46792   0.45711   0.72258   0.00000  Uiso   1.00
Zn965  Zn    0.54500   0.52997   0.71188   0.00000  Uiso   1.00
Zn966  Zn    0.46131   0.53868   0.78277   0.00000  Uiso   1.00
Br967  Br    0.89657   0.34608   0.69722   0.00000  Uiso   1.00
Br968  Br    0.89227   0.53783   0.89031   0.00000  Uiso   1.00
Br969  Br    0.79370   0.56748   0.59266   0.00000  Uiso   1.00
C970   C     0.71920   0.49344   0.75863   0.00000  Uiso   1.00
C971   C     0.87759   0.48114   0.95919   0.00000  Uiso   1.00
C972   C     0.90316   0.46703   0.97839   0.00000  Uiso   1.00
C973   C     0.94783   0.50699   0.74111   0.00000  Uiso   1.00
C974   C     0.89244   0.47177   0.51936   0.00000  Uiso   1.00
C975   C     0.85490   0.49064   0.54160   0.00000  Uiso   1.00
C976   C     0.91758   0.45577   0.53845   0.00000  Uiso   1.00
C977   C     0.90514   0.45732   0.57940   0.00000  Uiso   1.00
C978   C     0.83997   0.48616   0.58227   0.00000  Uiso   1.00
C979   C     0.99391   0.50967   0.73731   0.00000  Uiso   1.00
C980   C     0.67377   0.49124   0.76216   0.00000  Uiso   1.00
C981   C     0.75851   0.53634   0.92187   0.00000  Uiso   1.00
C982   C     0.84820   0.65561   0.73741   0.00000  Uiso   1.00
C983   C     0.81879   0.34544   0.76181   0.00000  Uiso   1.00
C984   C     0.82236   0.38954   0.75914   0.00000  Uiso   1.00
C985   C     0.84370   0.61110   0.74118   0.00000  Uiso   1.00
C986   C     0.85536   0.47865   0.64396   0.00000  Uiso   1.00
C987   C     0.81188   0.52092   0.85618   0.00000  Uiso   1.00
C988   C     0.80060   0.52768   0.89956   0.00000  Uiso   1.00
C989   C     0.86579   0.47164   0.60122   0.00000  Uiso   1.00
C990   C     0.74876   0.54168   0.96327   0.00000  Uiso   1.00
C991   C     0.69995   0.56777   0.91763   0.00000  Uiso   1.00
C992   C     0.83180   0.52418   0.91864   0.00000  Uiso   1.00
C993   C     0.98756   0.54893   0.93903   0.00000  Uiso   1.00
C994   C     0.95813   0.58283   0.95834   0.00000  Uiso   1.00
C995   C     0.81887   0.52133   0.95983   0.00000  Uiso   1.00
C996   C     0.77874   0.53489   0.98204   0.00000  Uiso   1.00
C997   C     0.84381   0.50526   0.97988   0.00000  Uiso   1.00
C998   C     0.83229   0.51061   0.52199   0.00000  Uiso   1.00
C999   C     0.79832   0.53534   0.54227   0.00000  Uiso   1.00
C1000  C     0.76974   0.54345   0.52281   0.00000  Uiso   1.00
H1001  H     0.74179   0.55919   0.53928   0.00000  Uiso   1.00
H1002  H     0.88397   0.47167   0.92804   0.00000  Uiso   1.00
H1003  H     0.69789   0.58273   0.89219   0.00000  Uiso   1.00
H1004  H     0.71276   0.59342   0.93672   0.00000  Uiso   1.00
H1005  H     0.97355   0.52799   0.91752   0.00000  Uiso   1.00
H1006  H     0.98873   0.52979   0.96206   0.00000  Uiso   1.00
H1007  H     0.97104   0.60342   0.98073   0.00000  Uiso   1.00
H1008  H     0.92525   0.56819   0.97325   0.00000  Uiso   1.00
H1009  H     0.95565   0.60190   0.93576   0.00000  Uiso   1.00
H1010  H     0.94700   0.44249   0.52172   0.00000  Uiso   1.00
H1011  H     0.68382   0.52661   0.71421   0.00000  Uiso   1.00
H1012  H     0.98445   0.47442   0.78563   0.00000  Uiso   1.00
H1013  H     0.79149   0.66531   0.78432   0.00000  Uiso   1.00
H1014  H     0.80836   0.49352   0.59985   0.00000  Uiso   1.00
H1015  H     0.92580   0.44682   0.59407   0.00000  Uiso   1.00
H1016  H     0.93011   0.45030   0.96116   0.00000  Uiso   1.00
H1017  H     0.71726   0.54949   0.98122   0.00000  Uiso   1.00
O1018  O     0.83333   0.50000   0.75000   0.00000  Uiso   1.00
O1019  O     0.82360   0.45726   0.66625   0.00000  Uiso   1.00
O1020  O     0.79354   0.53979   0.83749   0.00000  Uiso   1.00
O1021  O     0.87755   0.50826   0.65877   0.00000  Uiso   1.00
O1022  O     0.83865   0.49468   0.83749   0.00000  Uiso   1.00
O1023  O     0.72711   0.53565   0.90240   0.00000  Uiso   1.00
O1024  O     0.84515   0.41434   0.77820   0.00000  Uiso   1.00
O1025  O     0.81247   0.59469   0.76767   0.00000  Uiso   1.00
O1026  O     0.74119   0.46584   0.73607   0.00000  Uiso   1.00
O1027  O     0.93452   0.52512   0.71806   0.00000  Uiso   1.00
O1028  O     0.73656   0.52293   0.77820   0.00000  Uiso   1.00
O1029  O     0.92106   0.48610   0.76768   0.00000  Uiso   1.00
O1030  O     0.80467   0.40236   0.73607   0.00000  Uiso   1.00
O1031  O     0.87104   0.58860   0.71806   0.00000  Uiso   1.00
Zn1032 Zn    0.85910   0.47423   0.78278   0.00000  Uiso   1.00
Zn1033 Zn    0.80125   0.45711   0.72258   0.00000  Uiso   1.00
Zn1034 Zn    0.87833   0.52997   0.71188   0.00000  Uiso   1.00
Zn1035 Zn    0.79465   0.53868   0.78277   0.00000  Uiso   1.00
Br1036 Br    0.22990   0.67941   0.69722   0.00000  Uiso   1.00
Br1037 Br    0.22560   0.87117   0.89031   0.00000  Uiso   1.00
Br1038 Br    0.12704   0.90081   0.59266   0.00000  Uiso   1.00
C1039  C     0.05254   0.82677   0.75863   0.00000  Uiso   1.00
C1040  C     0.21093   0.81448   0.95919   0.00000  Uiso   1.00
C1041  C     0.23650   0.80036   0.97839   0.00000  Uiso   1.00
C1042  C     0.28116   0.84032   0.74111   0.00000  Uiso   1.00
C1043  C     0.22577   0.80510   0.51936   0.00000  Uiso   1.00
C1044  C     0.18823   0.82397   0.54160   0.00000  Uiso   1.00
C1045  C     0.25091   0.78911   0.53845   0.00000  Uiso   1.00
C1046  C     0.23847   0.79066   0.57940   0.00000  Uiso   1.00
C1047  C     0.17330   0.81949   0.58227   0.00000  Uiso   1.00
C1048  C     0.32724   0.84300   0.73731   0.00000  Uiso   1.00
C1049  C     0.00710   0.82457   0.76216   0.00000  Uiso   1.00
C1050  C     0.09184   0.86967   0.92187   0.00000  Uiso   1.00
C1051  C     0.18153   0.98894   0.73741   0.00000  Uiso   1.00
C1052  C     0.15212   0.67878   0.76181   0.00000  Uiso   1.00
C1053  C     0.15569   0.72287   0.75914   0.00000  Uiso   1.00
C1054  C     0.17703   0.94443   0.74118   0.00000  Uiso   1.00
C1055  C     0.18869   0.81198   0.64396   0.00000  Uiso   1.00
C1056  C     0.14522   0.85426   0.85618   0.00000  Uiso   1.00
C1057  C     0.13394   0.86101   0.89956   0.00000  Uiso   1.00
C1058  C     0.19913   0.80498   0.60122   0.00000  Uiso   1.00
C1059  C     0.08209   0.87502   0.96327   0.00000  Uiso   1.00
C1060  C     0.03328   0.90110   0.91763   0.00000  Uiso   1.00
C1061  C     0.16514   0.85751   0.91864   0.00000  Uiso   1.00
C1062  C     0.32090   0.88226   0.93903   0.00000  Uiso   1.00
C1063  C     0.29147   0.91616   0.95834   0.00000  Uiso   1.00
C1064  C     0.15220   0.85466   0.95983   0.00000  Uiso   1.00
C1065  C     0.11207   0.86822   0.98204   0.00000  Uiso   1.00
C1066  C     0.17714   0.83860   0.97988   0.00000  Uiso   1.00
C1067  C     0.16562   0.84394   0.52199   0.00000  Uiso   1.00
C1068  C     0.13166   0.86867   0.54227   0.00000  Uiso   1.00
C1069  C     0.10308   0.87679   0.52281   0.00000  Uiso   1.00
H1070  H     0.07512   0.89253   0.53928   0.00000  Uiso   1.00
H1071  H     0.21730   0.80500   0.92804   0.00000  Uiso   1.00
H1072  H     0.03122   0.91607   0.89219   0.00000  Uiso   1.00
H1073  H     0.04609   0.92676   0.93672   0.00000  Uiso   1.00
H1074  H     0.30689   0.86132   0.91752   0.00000  Uiso   1.00
H1075  H     0.32206   0.86313   0.96206   0.00000  Uiso   1.00
H1076  H     0.30437   0.93675   0.98073   0.00000  Uiso   1.00
H1077  H     0.25858   0.90152   0.97325   0.00000  Uiso   1.00
H1078  H     0.28898   0.93524   0.93576   0.00000  Uiso   1.00
H1079  H     0.28034   0.77582   0.52172   0.00000  Uiso   1.00
H1080  H     0.01716   0.85994   0.71421   0.00000  Uiso   1.00
H1081  H     0.31778   0.80775   0.78563   0.00000  Uiso   1.00
H1082  H     0.12482   0.99865   0.78432   0.00000  Uiso   1.00
H1083  H     0.14169   0.82685   0.59985   0.00000  Uiso   1.00
H1084  H     0.25913   0.78016   0.59407   0.00000  Uiso   1.00
H1085  H     0.26345   0.78364   0.96116   0.00000  Uiso   1.00
H1086  H     0.05059   0.88282   0.98122   0.00000  Uiso   1.00
O1087  O     0.16667   0.83333   0.75000   0.00000  Uiso   1.00
O1088  O     0.15693   0.79060   0.66625   0.00000  Uiso   1.00
O1089  O     0.12687   0.87313   0.83749   0.00000  Uiso   1.00
O1090  O     0.21088   0.84159   0.65877   0.00000  Uiso   1.00
O1091  O     0.17198   0.82802   0.83749   0.00000  Uiso   1.00
O1092  O     0.06045   0.86898   0.90240   0.00000  Uiso   1.00
O1093  O     0.17849   0.74768   0.77820   0.00000  Uiso   1.00
O1094  O     0.14581   0.92803   0.76767   0.00000  Uiso   1.00
O1095  O     0.07452   0.79917   0.73607   0.00000  Uiso   1.00
O1096  O     0.26785   0.85845   0.71806   0.00000  Uiso   1.00
O1097  O     0.06990   0.85627   0.77820   0.00000  Uiso   1.00
O1098  O     0.25440   0.81944   0.76768   0.00000  Uiso   1.00
O1099  O     0.13800   0.73570   0.73607   0.00000  Uiso   1.00
O1100  O     0.20437   0.92193   0.71806   0.00000  Uiso   1.00
Zn1101 Zn    0.19244   0.80756   0.78278   0.00000  Uiso   1.00
Zn1102 Zn    0.13459   0.79044   0.72258   0.00000  Uiso   1.00
Zn1103 Zn    0.21166   0.86331   0.71188   0.00000  Uiso   1.00
Zn1104 Zn    0.12798   0.87202   0.78277   0.00000  Uiso   1.00
Br1105 Br    0.56324   0.67941   0.69722   0.00000  Uiso   1.00
Br1106 Br    0.55894   0.87117   0.89031   0.00000  Uiso   1.00
Br1107 Br    0.46037   0.90081   0.59266   0.00000  Uiso   1.00
C1108  C     0.38587   0.82677   0.75863   0.00000  Uiso   1.00
C1109  C     0.54426   0.81448   0.95919   0.00000  Uiso   1.00
C1110  C     0.56983   0.80036   0.97839   0.00000  Uiso   1.00
C1111  C     0.61449   0.84032   0.74111   0.00000  Uiso   1.00
C1112  C     0.55910   0.80510   0.51936   0.00000  Uiso   1.00
C1113  C     0.52156   0.82397   0.54160   0.00000  Uiso   1.00
C1114  C     0.58425   0.78911   0.53845   0.00000  Uiso   1.00
C1115  C     0.57181   0.79066   0.57940   0.00000  Uiso   1.00
C1116  C     0.50664   0.81949   0.58227   0.00000  Uiso   1.00
C1117  C     0.66057   0.84300   0.73731   0.00000  Uiso   1.00
C1118  C     0.34044   0.82457   0.76216   0.00000  Uiso   1.00
C1119  C     0.42517   0.86967   0.92187   0.00000  Uiso   1.00
C1120  C     0.51487   0.98894   0.73741   0.00000  Uiso   1.00
C1121  C     0.48545   0.67878   0.76181   0.00000  Uiso   1.00
C1122  C     0.48903   0.72287   0.75914   0.00000  Uiso   1.00
C1123  C     0.51037   0.94443   0.74118   0.00000  Uiso   1.00
C1124  C     0.52203   0.81198   0.64396   0.00000  Uiso   1.00
C1125  C     0.47855   0.85426   0.85618   0.00000  Uiso   1.00
C1126  C     0.46727   0.86101   0.89956   0.00000  Uiso   1.00
C1127  C     0.53246   0.80498   0.60122   0.00000  Uiso   1.00
C1128  C     0.41543   0.87502   0.96327   0.00000  Uiso   1.00
C1129  C     0.36661   0.90110   0.91763   0.00000  Uiso   1.00
C1130  C     0.49847   0.85751   0.91864   0.00000  Uiso   1.00
C1131  C     0.65423   0.88226   0.93903   0.00000  Uiso   1.00
C1132  C     0.62480   0.91616   0.95834   0.00000  Uiso   1.00
C1133  C     0.48554   0.85466   0.95983   0.00000  Uiso   1.00
C1134  C     0.44541   0.86822   0.98204   0.00000  Uiso   1.00
C1135  C     0.51048   0.83860   0.97988   0.00000  Uiso   1.00
C1136  C     0.49895   0.84394   0.52199   0.00000  Uiso   1.00
C1137  C     0.46499   0.86867   0.54227   0.00000  Uiso   1.00
C1138  C     0.43641   0.87679   0.52281   0.00000  Uiso   1.00
H1139  H     0.40846   0.89253   0.53928   0.00000  Uiso   1.00
H1140  H     0.55064   0.80500   0.92804   0.00000  Uiso   1.00
H1141  H     0.36455   0.91607   0.89219   0.00000  Uiso   1.00
H1142  H     0.37943   0.92676   0.93672   0.00000  Uiso   1.00
H1143  H     0.64022   0.86132   0.91752   0.00000  Uiso   1.00
H1144  H     0.65540   0.86313   0.96206   0.00000  Uiso   1.00
H1145  H     0.63771   0.93675   0.98073   0.00000  Uiso   1.00
H1146  H     0.59191   0.90152   0.97325   0.00000  Uiso   1.00
H1147  H     0.62232   0.93524   0.93576   0.00000  Uiso   1.00
H1148  H     0.61367   0.77582   0.52172   0.00000  Uiso   1.00
H1149  H     0.35049   0.85994   0.71421   0.00000  Uiso   1.00
H1150  H     0.65111   0.80775   0.78563   0.00000  Uiso   1.00
H1151  H     0.45815   0.99865   0.78432   0.00000  Uiso   1.00
H1152  H     0.47502   0.82685   0.59985   0.00000  Uiso   1.00
H1153  H     0.59246   0.78016   0.59407   0.00000  Uiso   1.00
H1154  H     0.59678   0.78364   0.96116   0.00000  Uiso   1.00
H1155  H     0.38392   0.88282   0.98122   0.00000  Uiso   1.00
O1156  O     0.50000   0.83333   0.75000   0.00000  Uiso   1.00
O1157  O     0.49027   0.79060   0.66625   0.00000  Uiso   1.00
O1158  O     0.46020   0.87313   0.83749   0.00000  Uiso   1.00
O1159  O     0.54421   0.84159   0.65877   0.00000  Uiso   1.00
O1160  O     0.50532   0.82802   0.83749   0.00000  Uiso   1.00
O1161  O     0.39378   0.86898   0.90240   0.00000  Uiso   1.00
O1162  O     0.51182   0.74768   0.77820   0.00000  Uiso   1.00
O1163  O     0.47914   0.92803   0.76767   0.00000  Uiso   1.00
O1164  O     0.40785   0.79917   0.73607   0.00000  Uiso   1.00
O1165  O     0.60119   0.85845   0.71806   0.00000  Uiso   1.00
O1166  O     0.40323   0.85627   0.77820   0.00000  Uiso   1.00
O1167  O     0.58773   0.81944   0.76768   0.00000  Uiso   1.00
O1168  O     0.47133   0.73570   0.73607   0.00000  Uiso   1.00
O1169  O     0.53771   0.92193   0.71806   0.00000  Uiso   1.00
Zn1170 Zn    0.52577   0.80756   0.78278   0.00000  Uiso   1.00
Zn1171 Zn    0.46792   0.79044   0.72258   0.00000  Uiso   1.00
Zn1172 Zn    0.54500   0.86331   0.71188   0.00000  Uiso   1.00
Zn1173 Zn    0.46131   0.87202   0.78277   0.00000  Uiso   1.00
Br1174 Br    0.89657   0.67941   0.69722   0.00000  Uiso   1.00
Br1175 Br    0.89227   0.87117   0.89031   0.00000  Uiso   1.00
Br1176 Br    0.79370   0.90081   0.59266   0.00000  Uiso   1.00
C1177  C     0.71920   0.82677   0.75863   0.00000  Uiso   1.00
C1178  C     0.87759   0.81448   0.95919   0.00000  Uiso   1.00
C1179  C     0.90316   0.80036   0.97839   0.00000  Uiso   1.00
C1180  C     0.94783   0.84032   0.74111   0.00000  Uiso   1.00
C1181  C     0.89244   0.80510   0.51936   0.00000  Uiso   1.00
C1182  C     0.85490   0.82397   0.54160   0.00000  Uiso   1.00
C1183  C     0.91758   0.78911   0.53845   0.00000  Uiso   1.00
C1184  C     0.90514   0.79066   0.57940   0.00000  Uiso   1.00
C1185  C     0.83997   0.81949   0.58227   0.00000  Uiso   1.00
C1186  C     0.99391   0.84300   0.73731   0.00000  Uiso   1.00
C1187  C     0.67377   0.82457   0.76216   0.00000  Uiso   1.00
C1188  C     0.75851   0.86967   0.92187   0.00000  Uiso   1.00
C1189  C     0.84820   0.98894   0.73741   0.00000  Uiso   1.00
C1190  C     0.81879   0.67878   0.76181   0.00000  Uiso   1.00
C1191  C     0.82236   0.72287   0.75914   0.00000  Uiso   1.00
C1192  C     0.84370   0.94443   0.74118   0.00000  Uiso   1.00
C1193  C     0.85536   0.81198   0.64396   0.00000  Uiso   1.00
C1194  C     0.81188   0.85426   0.85618   0.00000  Uiso   1.00
C1195  C     0.80060   0.86101   0.89956   0.00000  Uiso   1.00
C1196  C     0.86579   0.80498   0.60122   0.00000  Uiso   1.00
C1197  C     0.74876   0.87502   0.96327   0.00000  Uiso   1.00
C1198  C     0.69995   0.90110   0.91763   0.00000  Uiso   1.00
C1199  C     0.83180   0.85751   0.91864   0.00000  Uiso   1.00
C1200  C     0.98756   0.88226   0.93903   0.00000  Uiso   1.00
C1201  C     0.95813   0.91616   0.95834   0.00000  Uiso   1.00
C1202  C     0.81887   0.85466   0.95983   0.00000  Uiso   1.00
C1203  C     0.77874   0.86822   0.98204   0.00000  Uiso   1.00
C1204  C     0.84381   0.83860   0.97988   0.00000  Uiso   1.00
C1205  C     0.83229   0.84394   0.52199   0.00000  Uiso   1.00
C1206  C     0.79832   0.86867   0.54227   0.00000  Uiso   1.00
C1207  C     0.76974   0.87679   0.52281   0.00000  Uiso   1.00
H1208  H     0.74179   0.89253   0.53928   0.00000  Uiso   1.00
H1209  H     0.88397   0.80500   0.92804   0.00000  Uiso   1.00
H1210  H     0.69789   0.91607   0.89219   0.00000  Uiso   1.00
H1211  H     0.71276   0.92676   0.93672   0.00000  Uiso   1.00
H1212  H     0.97355   0.86132   0.91752   0.00000  Uiso   1.00
H1213  H     0.98873   0.86313   0.96206   0.00000  Uiso   1.00
H1214  H     0.97104   0.93675   0.98073   0.00000  Uiso   1.00
H1215  H     0.92525   0.90152   0.97325   0.00000  Uiso   1.00
H1216  H     0.95565   0.93524   0.93576   0.00000  Uiso   1.00
H1217  H     0.94700   0.77582   0.52172   0.00000  Uiso   1.00
H1218  H     0.68382   0.85994   0.71421   0.00000  Uiso   1.00
H1219  H     0.98445   0.80775   0.78563   0.00000  Uiso   1.00
H1220  H     0.79149   0.99865   0.78432   0.00000  Uiso   1.00
H1221  H     0.80836   0.82685   0.59985   0.00000  Uiso   1.00
H1222  H     0.92580   0.78016   0.59407   0.00000  Uiso   1.00
H1223  H     0.93011   0.78364   0.96116   0.00000  Uiso   1.00
H1224  H     0.71726   0.88282   0.98122   0.00000  Uiso   1.00
O1225  O     0.83333   0.83333   0.75000   0.00000  Uiso   1.00
O1226  O     0.82360   0.79060   0.66625   0.00000  Uiso   1.00
O1227  O     0.79354   0.87313   0.83749   0.00000  Uiso   1.00
O1228  O     0.87755   0.84159   0.65877   0.00000  Uiso   1.00
O1229  O     0.83865   0.82802   0.83749   0.00000  Uiso   1.00
O1230  O     0.72711   0.86898   0.90240   0.00000  Uiso   1.00
O1231  O     0.84515   0.74768   0.77820   0.00000  Uiso   1.00
O1232  O     0.81247   0.92803   0.76767   0.00000  Uiso   1.00
O1233  O     0.74119   0.79917   0.73607   0.00000  Uiso   1.00
O1234  O     0.93452   0.85845   0.71806   0.00000  Uiso   1.00
O1235  O     0.73656   0.85627   0.77820   0.00000  Uiso   1.00
O1236  O     0.92106   0.81944   0.76768   0.00000  Uiso   1.00
O1237  O     0.80467   0.73570   0.73607   0.00000  Uiso   1.00
O1238  O     0.87104   0.92193   0.71806   0.00000  Uiso   1.00
Zn1239 Zn    0.85910   0.80756   0.78278   0.00000  Uiso   1.00
Zn1240 Zn    0.80125   0.79044   0.72258   0.00000  Uiso   1.00
Zn1241 Zn    0.87833   0.86331   0.71188   0.00000  Uiso   1.00
Zn1242 Zn    0.79465   0.87202   0.78277   0.00000  Uiso   1.00
loop_
_geom_bond_atom_site_label_1
_geom_bond_atom_site_label_2
_geom_bond_distance
_geom_bond_site_symmetry_2
_ccdc_geom_bond_type
Br1    C430    1.930   1_545 S
Br2    C26     1.941   .     S
Br3    C33     1.929   .     S
C4     O60     1.272   .     A
C4     C14     1.439   .     S
C4     O62     1.272   .     A
C5     C6      1.385   .     A
C5     C31     1.410   .     A
C5     H36     1.078   .     S
C6     H50     1.084   .     S
C6     C629    1.390   .     S
C7     O63     1.275   .     A
C7     C13     1.457   .     S
C7     O61     1.280   .     A
C8     C10     1.403   .     A
C8     C9      1.420   .     A
C8     C627    1.390   1_554 S
C9     C12     1.407   .     A
C9     C32     1.426   .     A
C10    C11     1.391   .     A
C10    H44     1.084   .     S
C11    H49     1.083   .     S
C11    C23     1.397   .     A
C12    H48     1.077   .     S
C12    C23     1.392   .     A
C13    C83     1.336   .     S
C13    H114    1.087   .     S
C14    C151    1.336   1_455 S
C14    H184    1.086   1_455 S
C15    O57     1.395   .     S
C15    C24     1.407   .     A
C15    C22     1.413   .     A
C16    C19     1.455   .     S
C16    Br208   1.930   .     S
C16    C224    1.336   .     S
C17    C18     1.436   .     S
C17    C430    1.336   1_545 S
C17    H461    1.086   1_545 S
C18    O64     1.279   .     A
C18    O58     1.279   .     A
C19    O65     1.266   .     A
C19    O59     1.270   .     A
C20    C23     1.453   .     S
C20    O53     1.277   .     A
C20    O55     1.269   .     A
C21    O56     1.287   .     A
C21    O54     1.282   .     A
C21    C22     1.474   .     S
C22    C26     1.408   .     A
C24    H51     1.081   .     S
C24    C30     1.397   .     A
C25    H38     1.116   .     S
C25    O57     1.417   .     S
C25    H37     1.111   .     S
C25    C165    1.533   1_455 S
C26    C29     1.415   .     A
C27    H40     1.110   .     S
C27    C28     1.526   .     S
C27    H39     1.111   .     S
C27    C94     1.533   .     S
C28    H43     1.111   .     S
C28    H42     1.110   .     S
C28    H41     1.111   .     S
C29    C30     1.411   .     A
C29    C31     1.423   .     A
C30    C655    1.393   .     S
C31    C653    1.429   .     S
C32    C33     1.424   .     A
C32    C652    1.429   1_554 S
C33    C34     1.390   .     A
C34    H35     1.084   .     S
C34    C651    1.393   1_554 S
H45    C151    1.087   1_455 S
H46    C83     1.086   .     S
H47    C224    1.086   .     S
O52    Zn67    1.948   .     S
O52    Zn66    1.962   .     S
O52    Zn69    1.933   .     S
O52    Zn68    1.921   .     S
O53    Zn67    1.923   .     S
O54    Zn69    1.938   .     S
O55    Zn68    1.937   .     S
O56    Zn66    1.924   .     S
O58    Zn66    1.929   .     S
O59    Zn69    1.927   .     S
O60    Zn67    1.926   .     S
O61    Zn68    1.940   .     S
O62    Zn69    1.934   .     S
O63    Zn66    1.920   .     S
O64    Zn67    1.936   .     S
O65    Zn68    1.933   .     S
Br70   C499    1.930   1_545 S
Br71   C95     1.941   .     S
Br72   C102    1.929   .     S
C73    O129    1.272   .     A
C73    C83     1.439   .     S
C73    O131    1.272   .     A
C74    C75     1.385   .     A
C74    C100    1.410   .     A
C74    H105    1.078   .     S
C75    H119    1.084   .     S
C75    C698    1.390   .     S
C76    O132    1.275   .     A
C76    C82     1.457   .     S
C76    O130    1.280   .     A
C77    C79     1.403   .     A
C77    C78     1.420   .     A
C77    C696    1.390   1_554 S
C78    C81     1.407   .     A
C78    C101    1.426   .     A
C79    C80     1.391   .     A
C79    H113    1.084   .     S
C80    H118    1.083   .     S
C80    C92     1.397   .     A
C81    H117    1.077   .     S
C81    C92     1.392   .     A
C82    C152    1.336   .     S
C82    H183    1.087   .     S
C84    O126    1.395   .     S
C84    C93     1.407   .     A
C84    C91     1.413   .     A
C85    C88     1.455   .     S
C85    Br277   1.930   .     S
C85    C293    1.336   .     S
C86    C87     1.436   .     S
C86    C499    1.336   1_545 S
C86    H530    1.086   1_545 S
C87    O133    1.279   .     A
C87    O127    1.279   .     A
C88    O134    1.266   .     A
C88    O128    1.270   .     A
C89    C92     1.453   .     S
C89    O122    1.277   .     A
C89    O124    1.269   .     A
C90    O125    1.287   .     A
C90    O123    1.282   .     A
C90    C91     1.474   .     S
C91    C95     1.408   .     A
C93    H120    1.081   .     S
C93    C99     1.397   .     A
C94    H107    1.116   .     S
C94    O126    1.417   .     S
C94    H106    1.111   .     S
C95    C98     1.415   .     A
C96    H109    1.110   .     S
C96    C97     1.526   .     S
C96    H108    1.111   .     S
C96    C163    1.533   .     S
C97    H112    1.111   .     S
C97    H111    1.110   .     S
C97    H110    1.111   .     S
C98    C99     1.411   .     A
C98    C100    1.423   .     A
C99    C724    1.393   .     S
C100   C722    1.429   .     S
C101   C102    1.424   .     A
C101   C721    1.429   1_554 S
C102   C103    1.390   .     A
C103   H104    1.084   .     S
C103   C720    1.393   1_554 S
H115   C152    1.086   .     S
H116   C293    1.086   .     S
O121   Zn136   1.948   .     S
O121   Zn135   1.962   .     S
O121   Zn138   1.933   .     S
O121   Zn137   1.921   .     S
O122   Zn136   1.923   .     S
O123   Zn138   1.938   .     S
O124   Zn137   1.937   .     S
O125   Zn135   1.924   .     S
O127   Zn135   1.929   .     S
O128   Zn138   1.927   .     S
O129   Zn136   1.926   .     S
O130   Zn137   1.940   .     S
O131   Zn138   1.934   .     S
O132   Zn135   1.920   .     S
O133   Zn136   1.936   .     S
O134   Zn137   1.933   .     S
Br139  C568    1.930   1_545 S
Br140  C164    1.941   .     S
Br141  C171    1.929   .     S
C142   O198    1.272   .     A
C142   C152    1.439   .     S
C142   O200    1.272   .     A
C143   C144    1.385   .     A
C143   C169    1.410   .     A
C143   H174    1.078   .     S
C144   H188    1.084   .     S
C144   C767    1.390   .     S
C145   O201    1.275   .     A
C145   C151    1.457   .     S
C145   O199    1.280   .     A
C146   C148    1.403   .     A
C146   C147    1.420   .     A
C146   C765    1.390   1_554 S
C147   C150    1.407   .     A
C147   C170    1.426   .     A
C148   C149    1.391   .     A
C148   H182    1.084   .     S
C149   H187    1.083   .     S
C149   C161    1.397   .     A
C150   H186    1.077   .     S
C150   C161    1.392   .     A
C151   C14     1.336   1_655 S
C151   H45     1.087   1_655 S
C153   O195    1.395   .     S
C153   C162    1.407   .     A
C153   C160    1.413   .     A
C154   C157    1.455   .     S
C154   Br346   1.930   .     S
C154   C362    1.336   .     S
C155   C156    1.436   .     S
C155   C568    1.336   1_545 S
C155   H599    1.086   1_545 S
C156   O202    1.279   .     A
C156   O196    1.279   .     A
C157   O203    1.266   .     A
C157   O197    1.270   .     A
C158   C161    1.453   .     S
C158   O191    1.277   .     A
C158   O193    1.269   .     A
C159   O194    1.287   .     A
C159   O192    1.282   .     A
C159   C160    1.474   .     S
C160   C164    1.408   .     A
C162   H189    1.081   .     S
C162   C168    1.397   .     A
C163   H176    1.116   .     S
C163   O195    1.417   .     S
C163   H175    1.111   .     S
C164   C167    1.415   .     A
C165   H178    1.110   .     S
C165   C166    1.526   .     S
C165   H177    1.111   .     S
C165   C25     1.533   1_655 S
C166   H181    1.111   .     S
C166   H180    1.110   .     S
C166   H179    1.111   .     S
C167   C168    1.411   .     A
C167   C169    1.423   .     A
C168   C793    1.393   .     S
C169   C791    1.429   .     S
C170   C171    1.424   .     A
C170   C790    1.429   1_554 S
C171   C172    1.390   .     A
C172   H173    1.084   .     S
C172   C789    1.393   1_554 S
H184   C14     1.086   1_655 S
H185   C362    1.086   .     S
O190   Zn205   1.948   .     S
O190   Zn204   1.962   .     S
O190   Zn207   1.933   .     S
O190   Zn206   1.921   .     S
O191   Zn205   1.923   .     S
O192   Zn207   1.938   .     S
O193   Zn206   1.937   .     S
O194   Zn204   1.924   .     S
O196   Zn204   1.929   .     S
O197   Zn207   1.927   .     S
O198   Zn205   1.926   .     S
O199   Zn206   1.940   .     S
O200   Zn207   1.934   .     S
O201   Zn204   1.920   .     S
O202   Zn205   1.936   .     S
O203   Zn206   1.933   .     S
Br209  C233    1.941   .     S
Br210  C240    1.929   .     S
C211   O267    1.272   .     A
C211   C221    1.439   .     S
C211   O269    1.272   .     A
C212   C213    1.385   .     A
C212   C238    1.410   .     A
C212   H243    1.078   .     S
C213   H257    1.084   .     S
C213   C836    1.390   .     S
C214   O270    1.275   .     A
C214   C220    1.457   .     S
C214   O268    1.280   .     A
C215   C217    1.403   .     A
C215   C216    1.420   .     A
C215   C834    1.390   1_554 S
C216   C219    1.407   .     A
C216   C239    1.426   .     A
C217   C218    1.391   .     A
C217   H251    1.084   .     S
C218   H256    1.083   .     S
C218   C230    1.397   .     A
C219   H255    1.077   .     S
C219   C230    1.392   .     A
C220   C290    1.336   .     S
C220   H321    1.087   .     S
C221   C358    1.336   1_455 S
C221   H391    1.086   1_455 S
C222   O264    1.395   .     S
C222   C231    1.407   .     A
C222   C229    1.413   .     A
C223   C226    1.455   .     S
C223   Br415   1.930   .     S
C223   C431    1.336   .     S
C224   C225    1.436   .     S
C225   O271    1.279   .     A
C225   O265    1.279   .     A
C226   O272    1.266   .     A
C226   O266    1.270   .     A
C227   C230    1.453   .     S
C227   O260    1.277   .     A
C227   O262    1.269   .     A
C228   O263    1.287   .     A
C228   O261    1.282   .     A
C228   C229    1.474   .     S
C229   C233    1.408   .     A
C231   H258    1.081   .     S
C231   C237    1.397   .     A
C232   H245    1.116   .     S
C232   O264    1.417   .     S
C232   H244    1.111   .     S
C232   C372    1.533   1_455 S
C233   C236    1.415   .     A
C234   H247    1.110   .     S
C234   C235    1.526   .     S
C234   H246    1.111   .     S
C234   C301    1.533   .     S
C235   H250    1.111   .     S
C235   H249    1.110   .     S
C235   H248    1.111   .     S
C236   C237    1.411   .     A
C236   C238    1.423   .     A
C237   C862    1.393   .     S
C238   C860    1.429   .     S
C239   C240    1.424   .     A
C239   C859    1.429   1_554 S
C240   C241    1.390   .     A
C241   H242    1.084   .     S
C241   C858    1.393   1_554 S
H252   C358    1.087   1_455 S
H253   C290    1.086   .     S
H254   C431    1.086   .     S
O259   Zn274   1.948   .     S
O259   Zn273   1.962   .     S
O259   Zn276   1.933   .     S
O259   Zn275   1.921   .     S
O260   Zn274   1.923   .     S
O261   Zn276   1.938   .     S
O262   Zn275   1.937   .     S
O263   Zn273   1.924   .     S
O265   Zn273   1.929   .     S
O266   Zn276   1.927   .     S
O267   Zn274   1.926   .     S
O268   Zn275   1.940   .     S
O269   Zn276   1.934   .     S
O270   Zn273   1.920   .     S
O271   Zn274   1.936   .     S
O272   Zn275   1.933   .     S
Br278  C302    1.941   .     S
Br279  C309    1.929   .     S
C280   O336    1.272   .     A
C280   C290    1.439   .     S
C280   O338    1.272   .     A
C281   C282    1.385   .     A
C281   C307    1.410   .     A
C281   H312    1.078   .     S
C282   H326    1.084   .     S
C282   C905    1.390   .     S
C283   O339    1.275   .     A
C283   C289    1.457   .     S
C283   O337    1.280   .     A
C284   C286    1.403   .     A
C284   C285    1.420   .     A
C284   C903    1.390   1_554 S
C285   C288    1.407   .     A
C285   C308    1.426   .     A
C286   C287    1.391   .     A
C286   H320    1.084   .     S
C287   H325    1.083   .     S
C287   C299    1.397   .     A
C288   H324    1.077   .     S
C288   C299    1.392   .     A
C289   C359    1.336   .     S
C289   H390    1.087   .     S
C291   O333    1.395   .     S
C291   C300    1.407   .     A
C291   C298    1.413   .     A
C292   C295    1.455   .     S
C292   Br484   1.930   .     S
C292   C500    1.336   .     S
C293   C294    1.436   .     S
C294   O340    1.279   .     A
C294   O334    1.279   .     A
C295   O341    1.266   .     A
C295   O335    1.270   .     A
C296   C299    1.453   .     S
C296   O329    1.277   .     A
C296   O331    1.269   .     A
C297   O332    1.287   .     A
C297   O330    1.282   .     A
C297   C298    1.474   .     S
C298   C302    1.408   .     A
C300   H327    1.081   .     S
C300   C306    1.397   .     A
C301   H314    1.116   .     S
C301   O333    1.417   .     S
C301   H313    1.111   .     S
C302   C305    1.415   .     A
C303   H316    1.110   .     S
C303   C304    1.526   .     S
C303   H315    1.111   .     S
C303   C370    1.533   .     S
C304   H319    1.111   .     S
C304   H318    1.110   .     S
C304   H317    1.111   .     S
C305   C306    1.411   .     A
C305   C307    1.423   .     A
C306   C931    1.393   .     S
C307   C929    1.429   .     S
C308   C309    1.424   .     A
C308   C928    1.429   1_554 S
C309   C310    1.390   .     A
C310   H311    1.084   .     S
C310   C927    1.393   1_554 S
H322   C359    1.086   .     S
H323   C500    1.086   .     S
O328   Zn343   1.948   .     S
O328   Zn342   1.962   .     S
O328   Zn345   1.933   .     S
O328   Zn344   1.921   .     S
O329   Zn343   1.923   .     S
O330   Zn345   1.938   .     S
O331   Zn344   1.937   .     S
O332   Zn342   1.924   .     S
O334   Zn342   1.929   .     S
O335   Zn345   1.927   .     S
O336   Zn343   1.926   .     S
O337   Zn344   1.940   .     S
O338   Zn345   1.934   .     S
O339   Zn342   1.920   .     S
O340   Zn343   1.936   .     S
O341   Zn344   1.933   .     S
Br347  C371    1.941   .     S
Br348  C378    1.929   .     S
C349   O405    1.272   .     A
C349   C359    1.439   .     S
C349   O407    1.272   .     A
C350   C351    1.385   .     A
C350   C376    1.410   .     A
C350   H381    1.078   .     S
C351   H395    1.084   .     S
C351   C974    1.390   .     S
C352   O408    1.275   .     A
C352   C358    1.457   .     S
C352   O406    1.280   .     A
C353   C355    1.403   .     A
C353   C354    1.420   .     A
C353   C972    1.390   1_554 S
C354   C357    1.407   .     A
C354   C377    1.426   .     A
C355   C356    1.391   .     A
C355   H389    1.084   .     S
C356   H394    1.083   .     S
C356   C368    1.397   .     A
C357   H393    1.077   .     S
C357   C368    1.392   .     A
C358   C221    1.336   1_655 S
C358   H252    1.087   1_655 S
C360   O402    1.395   .     S
C360   C369    1.407   .     A
C360   C367    1.413   .     A
C361   C364    1.455   .     S
C361   Br553   1.930   .     S
C361   C569    1.336   .     S
C362   C363    1.436   .     S
C363   O409    1.279   .     A
C363   O403    1.279   .     A
C364   O410    1.266   .     A
C364   O404    1.270   .     A
C365   C368    1.453   .     S
C365   O398    1.277   .     A
C365   O400    1.269   .     A
C366   O401    1.287   .     A
C366   O399    1.282   .     A
C366   C367    1.474   .     S
C367   C371    1.408   .     A
C369   H396    1.081   .     S
C369   C375    1.397   .     A
C370   H383    1.116   .     S
C370   O402    1.417   .     S
C370   H382    1.111   .     S
C371   C374    1.415   .     A
C372   H385    1.110   .     S
C372   C373    1.526   .     S
C372   H384    1.111   .     S
C372   C232    1.533   1_655 S
C373   H388    1.111   .     S
C373   H387    1.110   .     S
C373   H386    1.111   .     S
C374   C375    1.411   .     A
C374   C376    1.423   .     A
C375   C1000   1.393   .     S
C376   C998    1.429   .     S
C377   C378    1.424   .     A
C377   C997    1.429   1_554 S
C378   C379    1.390   .     A
C379   H380    1.084   .     S
C379   C996    1.393   1_554 S
H391   C221    1.086   1_655 S
H392   C569    1.086   .     S
O397   Zn412   1.948   .     S
O397   Zn411   1.962   .     S
O397   Zn414   1.933   .     S
O397   Zn413   1.921   .     S
O398   Zn412   1.923   .     S
O399   Zn414   1.938   .     S
O400   Zn413   1.937   .     S
O401   Zn411   1.924   .     S
O403   Zn411   1.929   .     S
O404   Zn414   1.927   .     S
O405   Zn412   1.926   .     S
O406   Zn413   1.940   .     S
O407   Zn414   1.934   .     S
O408   Zn411   1.920   .     S
O409   Zn412   1.936   .     S
O410   Zn413   1.933   .     S
Br416  C440    1.941   .     S
Br417  C447    1.929   .     S
C418   O474    1.272   .     A
C418   C428    1.439   .     S
C418   O476    1.272   .     A
C419   C420    1.385   .     A
C419   C445    1.410   .     A
C419   H450    1.078   .     S
C420   H464    1.084   .     S
C420   C1043   1.390   .     S
C421   O477    1.275   .     A
C421   C427    1.457   .     S
C421   O475    1.280   .     A
C422   C424    1.403   .     A
C422   C423    1.420   .     A
C422   C1041   1.390   1_554 S
C423   C426    1.407   .     A
C423   C446    1.426   .     A
C424   C425    1.391   .     A
C424   H458    1.084   .     S
C425   H463    1.083   .     S
C425   C437    1.397   .     A
C426   H462    1.077   .     S
C426   C437    1.392   .     A
C427   C497    1.336   .     S
C427   H528    1.087   .     S
C428   C565    1.336   1_455 S
C428   H598    1.086   1_455 S
C429   O471    1.395   .     S
C429   C438    1.407   .     A
C429   C436    1.413   .     A
C430   C433    1.455   .     S
C430   Br1     1.930   1_565 S
C430   C17     1.336   1_565 S
C431   C432    1.436   .     S
C432   O478    1.279   .     A
C432   O472    1.279   .     A
C433   O479    1.266   .     A
C433   O473    1.270   .     A
C434   C437    1.453   .     S
C434   O467    1.277   .     A
C434   O469    1.269   .     A
C435   O470    1.287   .     A
C435   O468    1.282   .     A
C435   C436    1.474   .     S
C436   C440    1.408   .     A
C438   H465    1.081   .     S
C438   C444    1.397   .     A
C439   H452    1.116   .     S
C439   O471    1.417   .     S
C439   H451    1.111   .     S
C439   C579    1.533   1_455 S
C440   C443    1.415   .     A
C441   H454    1.110   .     S
C441   C442    1.526   .     S
C441   H453    1.111   .     S
C441   C508    1.533   .     S
C442   H457    1.111   .     S
C442   H456    1.110   .     S
C442   H455    1.111   .     S
C443   C444    1.411   .     A
C443   C445    1.423   .     A
C444   C1069   1.393   .     S
C445   C1067   1.429   .     S
C446   C447    1.424   .     A
C446   C1066   1.429   1_554 S
C447   C448    1.390   .     A
C448   H449    1.084   .     S
C448   C1065   1.393   1_554 S
H459   C565    1.087   1_455 S
H460   C497    1.086   .     S
H461   C17     1.086   1_565 S
O466   Zn481   1.948   .     S
O466   Zn480   1.962   .     S
O466   Zn483   1.933   .     S
O466   Zn482   1.921   .     S
O467   Zn481   1.923   .     S
O468   Zn483   1.938   .     S
O469   Zn482   1.937   .     S
O470   Zn480   1.924   .     S
O472   Zn480   1.929   .     S
O473   Zn483   1.927   .     S
O474   Zn481   1.926   .     S
O475   Zn482   1.940   .     S
O476   Zn483   1.934   .     S
O477   Zn480   1.920   .     S
O478   Zn481   1.936   .     S
O479   Zn482   1.933   .     S
Br485  C509    1.941   .     S
Br486  C516    1.929   .     S
C487   O543    1.272   .     A
C487   C497    1.439   .     S
C487   O545    1.272   .     A
C488   C489    1.385   .     A
C488   C514    1.410   .     A
C488   H519    1.078   .     S
C489   H533    1.084   .     S
C489   C1112   1.390   .     S
C490   O546    1.275   .     A
C490   C496    1.457   .     S
C490   O544    1.280   .     A
C491   C493    1.403   .     A
C491   C492    1.420   .     A
C491   C1110   1.390   1_554 S
C492   C495    1.407   .     A
C492   C515    1.426   .     A
C493   C494    1.391   .     A
C493   H527    1.084   .     S
C494   H532    1.083   .     S
C494   C506    1.397   .     A
C495   H531    1.077   .     S
C495   C506    1.392   .     A
C496   C566    1.336   .     S
C496   H597    1.087   .     S
C498   O540    1.395   .     S
C498   C507    1.407   .     A
C498   C505    1.413   .     A
C499   C502    1.455   .     S
C499   Br70    1.930   1_565 S
C499   C86     1.336   1_565 S
C500   C501    1.436   .     S
C501   O547    1.279   .     A
C501   O541    1.279   .     A
C502   O548    1.266   .     A
C502   O542    1.270   .     A
C503   C506    1.453   .     S
C503   O536    1.277   .     A
C503   O538    1.269   .     A
C504   O539    1.287   .     A
C504   O537    1.282   .     A
C504   C505    1.474   .     S
C505   C509    1.408   .     A
C507   H534    1.081   .     S
C507   C513    1.397   .     A
C508   H521    1.116   .     S
C508   O540    1.417   .     S
C508   H520    1.111   .     S
C509   C512    1.415   .     A
C510   H523    1.110   .     S
C510   C511    1.526   .     S
C510   H522    1.111   .     S
C510   C577    1.533   .     S
C511   H526    1.111   .     S
C511   H525    1.110   .     S
C511   H524    1.111   .     S
C512   C513    1.411   .     A
C512   C514    1.423   .     A
C513   C1138   1.393   .     S
C514   C1136   1.429   .     S
C515   C516    1.424   .     A
C515   C1135   1.429   1_554 S
C516   C517    1.390   .     A
C517   H518    1.084   .     S
C517   C1134   1.393   1_554 S
H529   C566    1.086   .     S
H530   C86     1.086   1_565 S
O535   Zn550   1.948   .     S
O535   Zn549   1.962   .     S
O535   Zn552   1.933   .     S
O535   Zn551   1.921   .     S
O536   Zn550   1.923   .     S
O537   Zn552   1.938   .     S
O538   Zn551   1.937   .     S
O539   Zn549   1.924   .     S
O541   Zn549   1.929   .     S
O542   Zn552   1.927   .     S
O543   Zn550   1.926   .     S
O544   Zn551   1.940   .     S
O545   Zn552   1.934   .     S
O546   Zn549   1.920   .     S
O547   Zn550   1.936   .     S
O548   Zn551   1.933   .     S
Br554  C578    1.941   .     S
Br555  C585    1.929   .     S
C556   O612    1.272   .     A
C556   C566    1.439   .     S
C556   O614    1.272   .     A
C557   C558    1.385   .     A
C557   C583    1.410   .     A
C557   H588    1.078   .     S
C558   H602    1.084   .     S
C558   C1181   1.390   .     S
C559   O615    1.275   .     A
C559   C565    1.457   .     S
C559   O613    1.280   .     A
C560   C562    1.403   .     A
C560   C561    1.420   .     A
C560   C1179   1.390   1_554 S
C561   C564    1.407   .     A
C561   C584    1.426   .     A
C562   C563    1.391   .     A
C562   H596    1.084   .     S
C563   H601    1.083   .     S
C563   C575    1.397   .     A
C564   H600    1.077   .     S
C564   C575    1.392   .     A
C565   C428    1.336   1_655 S
C565   H459    1.087   1_655 S
C567   O609    1.395   .     S
C567   C576    1.407   .     A
C567   C574    1.413   .     A
C568   C571    1.455   .     S
C568   Br139   1.930   1_565 S
C568   C155    1.336   1_565 S
C569   C570    1.436   .     S
C570   O616    1.279   .     A
C570   O610    1.279   .     A
C571   O617    1.266   .     A
C571   O611    1.270   .     A
C572   C575    1.453   .     S
C572   O605    1.277   .     A
C572   O607    1.269   .     A
C573   O608    1.287   .     A
C573   O606    1.282   .     A
C573   C574    1.474   .     S
C574   C578    1.408   .     A
C576   H603    1.081   .     S
C576   C582    1.397   .     A
C577   H590    1.116   .     S
C577   O609    1.417   .     S
C577   H589    1.111   .     S
C578   C581    1.415   .     A
C579   H592    1.110   .     S
C579   C580    1.526   .     S
C579   H591    1.111   .     S
C579   C439    1.533   1_655 S
C580   H595    1.111   .     S
C580   H594    1.110   .     S
C580   H593    1.111   .     S
C581   C582    1.411   .     A
C581   C583    1.423   .     A
C582   C1207   1.393   .     S
C583   C1205   1.429   .     S
C584   C585    1.424   .     A
C584   C1204   1.429   1_554 S
C585   C586    1.390   .     A
C586   H587    1.084   .     S
C586   C1203   1.393   1_554 S
H598   C428    1.086   1_655 S
H599   C155    1.086   1_565 S
O604   Zn619   1.948   .     S
O604   Zn618   1.962   .     S
O604   Zn621   1.933   .     S
O604   Zn620   1.921   .     S
O605   Zn619   1.923   .     S
O606   Zn621   1.938   .     S
O607   Zn620   1.937   .     S
O608   Zn618   1.924   .     S
O610   Zn618   1.929   .     S
O611   Zn621   1.927   .     S
O612   Zn619   1.926   .     S
O613   Zn620   1.940   .     S
O614   Zn621   1.934   .     S
O615   Zn618   1.920   .     S
O616   Zn619   1.936   .     S
O617   Zn620   1.933   .     S
Br622  C1051   1.930   1_545 S
Br623  C647    1.941   .     S
Br624  C654    1.929   .     S
C625   O681    1.272   .     A
C625   C635    1.439   .     S
C625   O683    1.272   .     A
C626   C627    1.385   .     A
C626   C652    1.410   .     A
C626   H657    1.078   .     S
C627   H671    1.084   .     S
C627   C8      1.390   1_556 S
C628   O684    1.275   .     A
C628   C634    1.457   .     S
C628   O682    1.280   .     A
C629   C631    1.403   .     A
C629   C630    1.420   .     A
C630   C633    1.407   .     A
C630   C653    1.426   .     A
C631   C632    1.391   .     A
C631   H665    1.084   .     S
C632   H670    1.083   .     S
C632   C644    1.397   .     A
C633   H669    1.077   .     S
C633   C644    1.392   .     A
C634   C704    1.336   .     S
C634   H735    1.087   .     S
C635   C772    1.336   1_455 S
C635   H805    1.086   1_455 S
C636   O678    1.395   .     S
C636   C645    1.407   .     A
C636   C643    1.413   .     A
C637   C640    1.455   .     S
C637   Br829   1.930   .     S
C637   C845    1.336   .     S
C638   C639    1.436   .     S
C638   C1051   1.336   1_545 S
C638   H1082   1.086   1_545 S
C639   O685    1.279   .     A
C639   O679    1.279   .     A
C640   O686    1.266   .     A
C640   O680    1.270   .     A
C641   C644    1.453   .     S
C641   O674    1.277   .     A
C641   O676    1.269   .     A
C642   O677    1.287   .     A
C642   O675    1.282   .     A
C642   C643    1.474   .     S
C643   C647    1.408   .     A
C645   H672    1.081   .     S
C645   C651    1.397   .     A
C646   H659    1.116   .     S
C646   O678    1.417   .     S
C646   H658    1.111   .     S
C646   C786    1.533   1_455 S
C647   C650    1.415   .     A
C648   H661    1.110   .     S
C648   C649    1.526   .     S
C648   H660    1.111   .     S
C648   C715    1.533   .     S
C649   H664    1.111   .     S
C649   H663    1.110   .     S
C649   H662    1.111   .     S
C650   C651    1.411   .     A
C650   C652    1.423   .     A
C651   C34     1.393   1_556 S
C652   C32     1.429   1_556 S
C653   C654    1.424   .     A
C654   C655    1.390   .     A
C655   H656    1.084   .     S
H666   C772    1.087   1_455 S
H667   C704    1.086   .     S
H668   C845    1.086   .     S
O673   Zn688   1.948   .     S
O673   Zn687   1.962   .     S
O673   Zn690   1.933   .     S
O673   Zn689   1.921   .     S
O674   Zn688   1.923   .     S
O675   Zn690   1.938   .     S
O676   Zn689   1.937   .     S
O677   Zn687   1.924   .     S
O679   Zn687   1.929   .     S
O680   Zn690   1.927   .     S
O681   Zn688   1.926   .     S
O682   Zn689   1.940   .     S
O683   Zn690   1.934   .     S
O684   Zn687   1.920   .     S
O685   Zn688   1.936   .     S
O686   Zn689   1.933   .     S
Br691  C1120   1.930   1_545 S
Br692  C716    1.941   .     S
Br693  C723    1.929   .     S
C694   O750    1.272   .     A
C694   C704    1.439   .     S
C694   O752    1.272   .     A
C695   C696    1.385   .     A
C695   C721    1.410   .     A
C695   H726    1.078   .     S
C696   H740    1.084   .     S
C696   C77     1.390   1_556 S
C697   O753    1.275   .     A
C697   C703    1.457   .     S
C697   O751    1.280   .     A
C698   C700    1.403   .     A
C698   C699    1.420   .     A
C699   C702    1.407   .     A
C699   C722    1.426   .     A
C700   C701    1.391   .     A
C700   H734    1.084   .     S
C701   H739    1.083   .     S
C701   C713    1.397   .     A
C702   H738    1.077   .     S
C702   C713    1.392   .     A
C703   C773    1.336   .     S
C703   H804    1.087   .     S
C705   O747    1.395   .     S
C705   C714    1.407   .     A
C705   C712    1.413   .     A
C706   C709    1.455   .     S
C706   Br898   1.930   .     S
C706   C914    1.336   .     S
C707   C708    1.436   .     S
C707   C1120   1.336   1_545 S
C707   H1151   1.086   1_545 S
C708   O754    1.279   .     A
C708   O748    1.279   .     A
C709   O755    1.266   .     A
C709   O749    1.270   .     A
C710   C713    1.453   .     S
C710   O743    1.277   .     A
C710   O745    1.269   .     A
C711   O746    1.287   .     A
C711   O744    1.282   .     A
C711   C712    1.474   .     S
C712   C716    1.408   .     A
C714   H741    1.081   .     S
C714   C720    1.397   .     A
C715   H728    1.116   .     S
C715   O747    1.417   .     S
C715   H727    1.111   .     S
C716   C719    1.415   .     A
C717   H730    1.110   .     S
C717   C718    1.526   .     S
C717   H729    1.111   .     S
C717   C784    1.533   .     S
C718   H733    1.111   .     S
C718   H732    1.110   .     S
C718   H731    1.111   .     S
C719   C720    1.411   .     A
C719   C721    1.423   .     A
C720   C103    1.393   1_556 S
C721   C101    1.429   1_556 S
C722   C723    1.424   .     A
C723   C724    1.390   .     A
C724   H725    1.084   .     S
H736   C773    1.086   .     S
H737   C914    1.086   .     S
O742   Zn757   1.948   .     S
O742   Zn756   1.962   .     S
O742   Zn759   1.933   .     S
O742   Zn758   1.921   .     S
O743   Zn757   1.923   .     S
O744   Zn759   1.938   .     S
O745   Zn758   1.937   .     S
O746   Zn756   1.924   .     S
O748   Zn756   1.929   .     S
O749   Zn759   1.927   .     S
O750   Zn757   1.926   .     S
O751   Zn758   1.940   .     S
O752   Zn759   1.934   .     S
O753   Zn756   1.920   .     S
O754   Zn757   1.936   .     S
O755   Zn758   1.933   .     S
Br760  C1189   1.930   1_545 S
Br761  C785    1.941   .     S
Br762  C792    1.929   .     S
C763   O819    1.272   .     A
C763   C773    1.439   .     S
C763   O821    1.272   .     A
C764   C765    1.385   .     A
C764   C790    1.410   .     A
C764   H795    1.078   .     S
C765   H809    1.084   .     S
C765   C146    1.390   1_556 S
C766   O822    1.275   .     A
C766   C772    1.457   .     S
C766   O820    1.280   .     A
C767   C769    1.403   .     A
C767   C768    1.420   .     A
C768   C771    1.407   .     A
C768   C791    1.426   .     A
C769   C770    1.391   .     A
C769   H803    1.084   .     S
C770   H808    1.083   .     S
C770   C782    1.397   .     A
C771   H807    1.077   .     S
C771   C782    1.392   .     A
C772   C635    1.336   1_655 S
C772   H666    1.087   1_655 S
C774   O816    1.395   .     S
C774   C783    1.407   .     A
C774   C781    1.413   .     A
C775   C778    1.455   .     S
C775   Br967   1.930   .     S
C775   C983    1.336   .     S
C776   C777    1.436   .     S
C776   C1189   1.336   1_545 S
C776   H1220   1.086   1_545 S
C777   O823    1.279   .     A
C777   O817    1.279   .     A
C778   O824    1.266   .     A
C778   O818    1.270   .     A
C779   C782    1.453   .     S
C779   O812    1.277   .     A
C779   O814    1.269   .     A
C780   O815    1.287   .     A
C780   O813    1.282   .     A
C780   C781    1.474   .     S
C781   C785    1.408   .     A
C783   H810    1.081   .     S
C783   C789    1.397   .     A
C784   H797    1.116   .     S
C784   O816    1.417   .     S
C784   H796    1.111   .     S
C785   C788    1.415   .     A
C786   H799    1.110   .     S
C786   C787    1.526   .     S
C786   H798    1.111   .     S
C786   C646    1.533   1_655 S
C787   H802    1.111   .     S
C787   H801    1.110   .     S
C787   H800    1.111   .     S
C788   C789    1.411   .     A
C788   C790    1.423   .     A
C789   C172    1.393   1_556 S
C790   C170    1.429   1_556 S
C791   C792    1.424   .     A
C792   C793    1.390   .     A
C793   H794    1.084   .     S
H805   C635    1.086   1_655 S
H806   C983    1.086   .     S
O811   Zn826   1.948   .     S
O811   Zn825   1.962   .     S
O811   Zn828   1.933   .     S
O811   Zn827   1.921   .     S
O812   Zn826   1.923   .     S
O813   Zn828   1.938   .     S
O814   Zn827   1.937   .     S
O815   Zn825   1.924   .     S
O817   Zn825   1.929   .     S
O818   Zn828   1.927   .     S
O819   Zn826   1.926   .     S
O820   Zn827   1.940   .     S
O821   Zn828   1.934   .     S
O822   Zn825   1.920   .     S
O823   Zn826   1.936   .     S
O824   Zn827   1.933   .     S
Br830  C854    1.941   .     S
Br831  C861    1.929   .     S
C832   O888    1.272   .     A
C832   C842    1.439   .     S
C832   O890    1.272   .     A
C833   C834    1.385   .     A
C833   C859    1.410   .     A
C833   H864    1.078   .     S
C834   H878    1.084   .     S
C834   C215    1.390   1_556 S
C835   O891    1.275   .     A
C835   C841    1.457   .     S
C835   O889    1.280   .     A
C836   C838    1.403   .     A
C836   C837    1.420   .     A
C837   C840    1.407   .     A
C837   C860    1.426   .     A
C838   C839    1.391   .     A
C838   H872    1.084   .     S
C839   H877    1.083   .     S
C839   C851    1.397   .     A
C840   H876    1.077   .     S
C840   C851    1.392   .     A
C841   C911    1.336   .     S
C841   H942    1.087   .     S
C842   C979    1.336   1_455 S
C842   H1012   1.086   1_455 S
C843   O885    1.395   .     S
C843   C852    1.407   .     A
C843   C850    1.413   .     A
C844   C847    1.455   .     S
C844   Br1036  1.930   .     S
C844   C1052   1.336   .     S
C845   C846    1.436   .     S
C846   O892    1.279   .     A
C846   O886    1.279   .     A
C847   O893    1.266   .     A
C847   O887    1.270   .     A
C848   C851    1.453   .     S
C848   O881    1.277   .     A
C848   O883    1.269   .     A
C849   O884    1.287   .     A
C849   O882    1.282   .     A
C849   C850    1.474   .     S
C850   C854    1.408   .     A
C852   H879    1.081   .     S
C852   C858    1.397   .     A
C853   H866    1.116   .     S
C853   O885    1.417   .     S
C853   H865    1.111   .     S
C853   C993    1.533   1_455 S
C854   C857    1.415   .     A
C855   H868    1.110   .     S
C855   C856    1.526   .     S
C855   H867    1.111   .     S
C855   C922    1.533   .     S
C856   H871    1.111   .     S
C856   H870    1.110   .     S
C856   H869    1.111   .     S
C857   C858    1.411   .     A
C857   C859    1.423   .     A
C858   C241    1.393   1_556 S
C859   C239    1.429   1_556 S
C860   C861    1.424   .     A
C861   C862    1.390   .     A
C862   H863    1.084   .     S
H873   C979    1.087   1_455 S
H874   C911    1.086   .     S
H875   C1052   1.086   .     S
O880   Zn895   1.948   .     S
O880   Zn894   1.962   .     S
O880   Zn897   1.933   .     S
O880   Zn896   1.921   .     S
O881   Zn895   1.923   .     S
O882   Zn897   1.938   .     S
O883   Zn896   1.937   .     S
O884   Zn894   1.924   .     S
O886   Zn894   1.929   .     S
O887   Zn897   1.927   .     S
O888   Zn895   1.926   .     S
O889   Zn896   1.940   .     S
O890   Zn897   1.934   .     S
O891   Zn894   1.920   .     S
O892   Zn895   1.936   .     S
O893   Zn896   1.933   .     S
Br899  C923    1.941   .     S
Br900  C930    1.929   .     S
C901   O957    1.272   .     A
C901   C911    1.439   .     S
C901   O959    1.272   .     A
C902   C903    1.385   .     A
C902   C928    1.410   .     A
C902   H933    1.078   .     S
C903   H947    1.084   .     S
C903   C284    1.390   1_556 S
C904   O960    1.275   .     A
C904   C910    1.457   .     S
C904   O958    1.280   .     A
C905   C907    1.403   .     A
C905   C906    1.420   .     A
C906   C909    1.407   .     A
C906   C929    1.426   .     A
C907   C908    1.391   .     A
C907   H941    1.084   .     S
C908   H946    1.083   .     S
C908   C920    1.397   .     A
C909   H945    1.077   .     S
C909   C920    1.392   .     A
C910   C980    1.336   .     S
C910   H1011   1.087   .     S
C912   O954    1.395   .     S
C912   C921    1.407   .     A
C912   C919    1.413   .     A
C913   C916    1.455   .     S
C913   Br1105  1.930   .     S
C913   C1121   1.336   .     S
C914   C915    1.436   .     S
C915   O961    1.279   .     A
C915   O955    1.279   .     A
C916   O962    1.266   .     A
C916   O956    1.270   .     A
C917   C920    1.453   .     S
C917   O950    1.277   .     A
C917   O952    1.269   .     A
C918   O953    1.287   .     A
C918   O951    1.282   .     A
C918   C919    1.474   .     S
C919   C923    1.408   .     A
C921   H948    1.081   .     S
C921   C927    1.397   .     A
C922   H935    1.116   .     S
C922   O954    1.417   .     S
C922   H934    1.111   .     S
C923   C926    1.415   .     A
C924   H937    1.110   .     S
C924   C925    1.526   .     S
C924   H936    1.111   .     S
C924   C991    1.533   .     S
C925   H940    1.111   .     S
C925   H939    1.110   .     S
C925   H938    1.111   .     S
C926   C927    1.411   .     A
C926   C928    1.423   .     A
C927   C310    1.393   1_556 S
C928   C308    1.429   1_556 S
C929   C930    1.424   .     A
C930   C931    1.390   .     A
C931   H932    1.084   .     S
H943   C980    1.086   .     S
H944   C1121   1.086   .     S
O949   Zn964   1.948   .     S
O949   Zn963   1.962   .     S
O949   Zn966   1.933   .     S
O949   Zn965   1.921   .     S
O950   Zn964   1.923   .     S
O951   Zn966   1.938   .     S
O952   Zn965   1.937   .     S
O953   Zn963   1.924   .     S
O955   Zn963   1.929   .     S
O956   Zn966   1.927   .     S
O957   Zn964   1.926   .     S
O958   Zn965   1.940   .     S
O959   Zn966   1.934   .     S
O960   Zn963   1.920   .     S
O961   Zn964   1.936   .     S
O962   Zn965   1.933   .     S
Br968  C992    1.941   .     S
Br969  C999    1.929   .     S
C970   O1026   1.272   .     A
C970   C980    1.439   .     S
C970   O1028   1.272   .     A
C971   C972    1.385   .     A
C971   C997    1.410   .     A
C971   H1002   1.078   .     S
C972   H1016   1.084   .     S
C972   C353    1.390   1_556 S
C973   O1029   1.275   .     A
C973   C979    1.457   .     S
C973   O1027   1.280   .     A
C974   C976    1.403   .     A
C974   C975    1.420   .     A
C975   C978    1.407   .     A
C975   C998    1.426   .     A
C976   C977    1.391   .     A
C976   H1010   1.084   .     S
C977   H1015   1.083   .     S
C977   C989    1.397   .     A
C978   H1014   1.077   .     S
C978   C989    1.392   .     A
C979   C842    1.336   1_655 S
C979   H873    1.087   1_655 S
C981   O1023   1.395   .     S
C981   C990    1.407   .     A
C981   C988    1.413   .     A
C982   C985    1.455   .     S
C982   Br1174  1.930   .     S
C982   C1190   1.336   .     S
C983   C984    1.436   .     S
C984   O1030   1.279   .     A
C984   O1024   1.279   .     A
C985   O1031   1.266   .     A
C985   O1025   1.270   .     A
C986   C989    1.453   .     S
C986   O1019   1.277   .     A
C986   O1021   1.269   .     A
C987   O1022   1.287   .     A
C987   O1020   1.282   .     A
C987   C988    1.474   .     S
C988   C992    1.408   .     A
C990   H1017   1.081   .     S
C990   C996    1.397   .     A
C991   H1004   1.116   .     S
C991   O1023   1.417   .     S
C991   H1003   1.111   .     S
C992   C995    1.415   .     A
C993   H1006   1.110   .     S
C993   C994    1.526   .     S
C993   H1005   1.111   .     S
C993   C853    1.533   1_655 S
C994   H1009   1.111   .     S
C994   H1008   1.110   .     S
C994   H1007   1.111   .     S
C995   C996    1.411   .     A
C995   C997    1.423   .     A
C996   C379    1.393   1_556 S
C997   C377    1.429   1_556 S
C998   C999    1.424   .     A
C999   C1000   1.390   .     A
C1000  H1001   1.084   .     S
H1012  C842    1.086   1_655 S
H1013  C1190   1.086   .     S
O1018  Zn1033  1.948   .     S
O1018  Zn1032  1.962   .     S
O1018  Zn1035  1.933   .     S
O1018  Zn1034  1.921   .     S
O1019  Zn1033  1.923   .     S
O1020  Zn1035  1.938   .     S
O1021  Zn1034  1.937   .     S
O1022  Zn1032  1.924   .     S
O1024  Zn1032  1.929   .     S
O1025  Zn1035  1.927   .     S
O1026  Zn1033  1.926   .     S
O1027  Zn1034  1.940   .     S
O1028  Zn1035  1.934   .     S
O1029  Zn1032  1.920   .     S
O1030  Zn1033  1.936   .     S
O1031  Zn1034  1.933   .     S
Br1037 C1061   1.941   .     S
Br1038 C1068   1.929   .     S
C1039  O1095   1.272   .     A
C1039  C1049   1.439   .     S
C1039  O1097   1.272   .     A
C1040  C1041   1.385   .     A
C1040  C1066   1.410   .     A
C1040  H1071   1.078   .     S
C1041  H1085   1.084   .     S
C1041  C422    1.390   1_556 S
C1042  O1098   1.275   .     A
C1042  C1048   1.457   .     S
C1042  O1096   1.280   .     A
C1043  C1045   1.403   .     A
C1043  C1044   1.420   .     A
C1044  C1047   1.407   .     A
C1044  C1067   1.426   .     A
C1045  C1046   1.391   .     A
C1045  H1079   1.084   .     S
C1046  H1084   1.083   .     S
C1046  C1058   1.397   .     A
C1047  H1083   1.077   .     S
C1047  C1058   1.392   .     A
C1048  C1118   1.336   .     S
C1048  H1149   1.087   .     S
C1049  C1186   1.336   1_455 S
C1049  H1219   1.086   1_455 S
C1050  O1092   1.395   .     S
C1050  C1059   1.407   .     A
C1050  C1057   1.413   .     A
C1051  C1054   1.455   .     S
C1051  Br622   1.930   1_565 S
C1051  C638    1.336   1_565 S
C1052  C1053   1.436   .     S
C1053  O1099   1.279   .     A
C1053  O1093   1.279   .     A
C1054  O1100   1.266   .     A
C1054  O1094   1.270   .     A
C1055  C1058   1.453   .     S
C1055  O1088   1.277   .     A
C1055  O1090   1.269   .     A
C1056  O1091   1.287   .     A
C1056  O1089   1.282   .     A
C1056  C1057   1.474   .     S
C1057  C1061   1.408   .     A
C1059  H1086   1.081   .     S
C1059  C1065   1.397   .     A
C1060  H1073   1.116   .     S
C1060  O1092   1.417   .     S
C1060  H1072   1.111   .     S
C1060  C1200   1.533   1_455 S
C1061  C1064   1.415   .     A
C1062  H1075   1.110   .     S
C1062  C1063   1.526   .     S
C1062  H1074   1.111   .     S
C1062  C1129   1.533   .     S
C1063  H1078   1.111   .     S
C1063  H1077   1.110   .     S
C1063  H1076   1.111   .     S
C1064  C1065   1.411   .     A
C1064  C1066   1.423   .     A
C1065  C448    1.393   1_556 S
C1066  C446    1.429   1_556 S
C1067  C1068   1.424   .     A
C1068  C1069   1.390   .     A
C1069  H1070   1.084   .     S
H1080  C1186   1.087   1_455 S
H1081  C1118   1.086   .     S
H1082  C638    1.086   1_565 S
O1087  Zn1102  1.948   .     S
O1087  Zn1101  1.962   .     S
O1087  Zn1104  1.933   .     S
O1087  Zn1103  1.921   .     S
O1088  Zn1102  1.923   .     S
O1089  Zn1104  1.938   .     S
O1090  Zn1103  1.937   .     S
O1091  Zn1101  1.924   .     S
O1093  Zn1101  1.929   .     S
O1094  Zn1104  1.927   .     S
O1095  Zn1102  1.926   .     S
O1096  Zn1103  1.940   .     S
O1097  Zn1104  1.934   .     S
O1098  Zn1101  1.920   .     S
O1099  Zn1102  1.936   .     S
O1100  Zn1103  1.933   .     S
Br1106 C1130   1.941   .     S
Br1107 C1137   1.929   .     S
C1108  O1164   1.272   .     A
C1108  C1118   1.439   .     S
C1108  O1166   1.272   .     A
C1109  C1110   1.385   .     A
C1109  C1135   1.410   .     A
C1109  H1140   1.078   .     S
C1110  H1154   1.084   .     S
C1110  C491    1.390   1_556 S
C1111  O1167   1.275   .     A
C1111  C1117   1.457   .     S
C1111  O1165   1.280   .     A
C1112  C1114   1.403   .     A
C1112  C1113   1.420   .     A
C1113  C1116   1.407   .     A
C1113  C1136   1.426   .     A
C1114  C1115   1.391   .     A
C1114  H1148   1.084   .     S
C1115  H1153   1.083   .     S
C1115  C1127   1.397   .     A
C1116  H1152   1.077   .     S
C1116  C1127   1.392   .     A
C1117  C1187   1.336   .     S
C1117  H1218   1.087   .     S
C1119  O1161   1.395   .     S
C1119  C1128   1.407   .     A
C1119  C1126   1.413   .     A
C1120  C1123   1.455   .     S
C1120  Br691   1.930   1_565 S
C1120  C707    1.336   1_565 S
C1121  C1122   1.436   .     S
C1122  O1168   1.279   .     A
C1122  O1162   1.279   .     A
C1123  O1169   1.266   .     A
C1123  O1163   1.270   .     A
C1124  C1127   1.453   .     S
C1124  O1157   1.277   .     A
C1124  O1159   1.269   .     A
C1125  O1160   1.287   .     A
C1125  O1158   1.282   .     A
C1125  C1126   1.474   .     S
C1126  C1130   1.408   .     A
C1128  H1155   1.081   .     S
C1128  C1134   1.397   .     A
C1129  H1142   1.116   .     S
C1129  O1161   1.417   .     S
C1129  H1141   1.111   .     S
C1130  C1133   1.415   .     A
C1131  H1144   1.110   .     S
C1131  C1132   1.526   .     S
C1131  H1143   1.111   .     S
C1131  C1198   1.533   .     S
C1132  H1147   1.111   .     S
C1132  H1146   1.110   .     S
C1132  H1145   1.111   .     S
C1133  C1134   1.411   .     A
C1133  C1135   1.423   .     A
C1134  C517    1.393   1_556 S
C1135  C515    1.429   1_556 S
C1136  C1137   1.424   .     A
C1137  C1138   1.390   .     A
C1138  H1139   1.084   .     S
H1150  C1187   1.086   .     S
H1151  C707    1.086   1_565 S
O1156  Zn1171  1.948   .     S
O1156  Zn1170  1.962   .     S
O1156  Zn1173  1.933   .     S
O1156  Zn1172  1.921   .     S
O1157  Zn1171  1.923   .     S
O1158  Zn1173  1.938   .     S
O1159  Zn1172  1.937   .     S
O1160  Zn1170  1.924   .     S
O1162  Zn1170  1.929   .     S
O1163  Zn1173  1.927   .     S
O1164  Zn1171  1.926   .     S
O1165  Zn1172  1.940   .     S
O1166  Zn1173  1.934   .     S
O1167  Zn1170  1.920   .     S
O1168  Zn1171  1.936   .     S
O1169  Zn1172  1.933   .     S
Br1175 C1199   1.941   .     S
Br1176 C1206   1.929   .     S
C1177  O1233   1.272   .     A
C1177  C1187   1.439   .     S
C1177  O1235   1.272   .     A
C1178  C1179   1.385   .     A
C1178  C1204   1.410   .     A
C1178  H1209   1.078   .     S
C1179  H1223   1.084   .     S
C1179  C560    1.390   1_556 S
C1180  O1236   1.275   .     A
C1180  C1186   1.457   .     S
C1180  O1234   1.280   .     A
C1181  C1183   1.403   .     A
C1181  C1182   1.420   .     A
C1182  C1185   1.407   .     A
C1182  C1205   1.426   .     A
C1183  C1184   1.391   .     A
C1183  H1217   1.084   .     S
C1184  H1222   1.083   .     S
C1184  C1196   1.397   .     A
C1185  H1221   1.077   .     S
C1185  C1196   1.392   .     A
C1186  C1049   1.336   1_655 S
C1186  H1080   1.087   1_655 S
C1188  O1230   1.395   .     S
C1188  C1197   1.407   .     A
C1188  C1195   1.413   .     A
C1189  C1192   1.455   .     S
C1189  Br760   1.930   1_565 S
C1189  C776    1.336   1_565 S
C1190  C1191   1.436   .     S
C1191  O1237   1.279   .     A
C1191  O1231   1.279   .     A
C1192  O1238   1.266   .     A
C1192  O1232   1.270   .     A
C1193  C1196   1.453   .     S
C1193  O1226   1.277   .     A
C1193  O1228   1.269   .     A
C1194  O1229   1.287   .     A
C1194  O1227   1.282   .     A
C1194  C1195   1.474   .     S
C1195  C1199   1.408   .     A
C1197  H1224   1.081   .     S
C1197  C1203   1.397   .     A
C1198  H1211   1.116   .     S
C1198  O1230   1.417   .     S
C1198  H1210   1.111   .     S
C1199  C1202   1.415   .     A
C1200  H1213   1.110   .     S
C1200  C1201   1.526   .     S
C1200  H1212   1.111   .     S
C1200  C1060   1.533   1_655 S
C1201  H1216   1.111   .     S
C1201  H1215   1.110   .     S
C1201  H1214   1.111   .     S
C1202  C1203   1.411   .     A
C1202  C1204   1.423   .     A
C1203  C586    1.393   1_556 S
C1204  C584    1.429   1_556 S
C1205  C1206   1.424   .     A
C1206  C1207   1.390   .     A
C1207  H1208   1.084   .     S
H1219  C1049   1.086   1_655 S
H1220  C776    1.086   1_565 S
O1225  Zn1240  1.948   .     S
O1225  Zn1239  1.962   .     S
O1225  Zn1242  1.933   .     S
O1225  Zn1241  1.921   .     S
O1226  Zn1240  1.923   .     S
O1227  Zn1242  1.938   .     S
O1228  Zn1241  1.937   .     S
O1229  Zn1239  1.924   .     S
O1231  Zn1239  1.929   .     S
O1232  Zn1242  1.927   .     S
O1233  Zn1240  1.926   .     S
O1234  Zn1241  1.940   .     S
O1235  Zn1242  1.934   .     S
O1236  Zn1239  1.920   .     S
O1237  Zn1240  1.936   .     S
O1238  Zn1241  1.933   .     S
