data_str_m1_o10_o18_pcu_sym.29
_audit_creation_date              2020-01-03
_audit_creation_method            'Materials Studio'
_symmetry_space_group_name_H-M    'P1'
_symmetry_Int_Tables_number       1
_symmetry_cell_setting            triclinic
loop_
_symmetry_equiv_pos_as_xyz
  x,y,z
_cell_length_a                    32.6062
_cell_length_b                    32.5166
_cell_length_c                    35.8926
_cell_angle_alpha                 98.1839
_cell_angle_beta                  72.7365
_cell_angle_gamma                 98.6937
loop_
_atom_site_label
_atom_site_type_symbol
_atom_site_fract_x
_atom_site_fract_y
_atom_site_fract_z
_atom_site_U_iso_or_equiv
_atom_site_adp_type
_atom_site_occupancy
C1     C     0.05244   0.15969   0.25915   0.00000  Uiso   1.00
C2     C     0.20694   0.14033   0.45966   0.00000  Uiso   1.00
C3     C     0.22818   0.12157   0.47966   0.00000  Uiso   1.00
C4     C     0.28114   0.17356   0.24099   0.00000  Uiso   1.00
C5     C     0.21728   0.12700   0.02036   0.00000  Uiso   1.00
C6     C     0.18429   0.15221   0.04193   0.00000  Uiso   1.00
C7     C     0.23966   0.10773   0.03968   0.00000  Uiso   1.00
C8     C     0.22994   0.11330   0.08033   0.00000  Uiso   1.00
C9     C     0.17437   0.15634   0.08320   0.00000  Uiso   1.00
C10    C     0.32740   0.17595   0.23656   0.00000  Uiso   1.00
C11    C     0.00724   0.15820   0.26189   0.00000  Uiso   1.00
C12    C     0.10708   0.22446   0.42030   0.00000  Uiso   1.00
C13    C     0.18095   0.32220   0.23807   0.00000  Uiso   1.00
C14    C     0.15151   0.01208   0.26199   0.00000  Uiso   1.00
C15    C     0.15595   0.05615   0.25883   0.00000  Uiso   1.00
C16    C     0.17687   0.27769   0.24133   0.00000  Uiso   1.00
C17    C     0.18835   0.14527   0.14415   0.00000  Uiso   1.00
C18    C     0.14544   0.18779   0.35608   0.00000  Uiso   1.00
C19    C     0.13657   0.19664   0.39890   0.00000  Uiso   1.00
C20    C     0.19728   0.13747   0.10191   0.00000  Uiso   1.00
C21    C     0.09884   0.23187   0.46086   0.00000  Uiso   1.00
C22    C     0.02462   0.19724   0.20489   0.00000  Uiso   1.00
C23    C     0.15798   0.17673   0.41845   0.00000  Uiso   1.00
C24    C     0.15117   0.18451   0.45933   0.00000  Uiso   1.00
C25    C     0.12038   0.21201   0.48050   0.00000  Uiso   1.00
C26    C     0.17359   0.16545   0.47971   0.00000  Uiso   1.00
C27    C     0.16284   0.17239   0.02149   0.00000  Uiso   1.00
C28    C     0.13159   0.19982   0.04131   0.00000  Uiso   1.00
C29    C     0.11117   0.21942   0.02110   0.00000  Uiso   1.00
H30    H     0.08769   0.24043   0.03751   0.00000  Uiso   1.00
H31    H     0.09010   0.24019   0.40577   0.00000  Uiso   1.00
H32    H     0.17927   0.15468   0.40098   0.00000  Uiso   1.00
H33    H     0.12248   0.20761   0.07259   0.00000  Uiso   1.00
H34    H     0.21845   0.13506   0.42822   0.00000  Uiso   1.00
H35    H     0.26504   0.08872   0.02328   0.00000  Uiso   1.00
H36    H     0.31769   0.14274   0.28589   0.00000  Uiso   1.00
H37    H     0.20818   0.00287   0.21606   0.00000  Uiso   1.00
H38    H     0.12389   0.33216   0.28404   0.00000  Uiso   1.00
H39    H     0.14936   0.17419   0.10189   0.00000  Uiso   1.00
H40    H     0.24792   0.09891   0.09497   0.00000  Uiso   1.00
H41    H     0.25364   0.10273   0.46301   0.00000  Uiso   1.00
H42    H     0.07550   0.25314   0.47693   0.00000  Uiso   1.00
N43    N     0.04899   0.21419   0.17963   0.00000  Uiso   1.00
O44    O     0.16667   0.16667   0.25000   0.00000  Uiso   1.00
O45    O     0.15693   0.12393   0.16625   0.00000  Uiso   1.00
O46    O     0.12687   0.20646   0.33749   0.00000  Uiso   1.00
O47    O     0.21088   0.17493   0.15877   0.00000  Uiso   1.00
O48    O     0.17198   0.16135   0.33749   0.00000  Uiso   1.00
O49    O     0.17849   0.08101   0.27821   0.00000  Uiso   1.00
O50    O     0.14581   0.26136   0.26767   0.00000  Uiso   1.00
O51    O     0.07452   0.13251   0.23607   0.00000  Uiso   1.00
O52    O     0.26785   0.19179   0.21806   0.00000  Uiso   1.00
O53    O     0.06990   0.18960   0.27820   0.00000  Uiso   1.00
O54    O     0.25440   0.15277   0.26768   0.00000  Uiso   1.00
O55    O     0.13800   0.06903   0.23607   0.00000  Uiso   1.00
O56    O     0.20437   0.25527   0.21806   0.00000  Uiso   1.00
Zn57   Zn    0.19244   0.14090   0.28278   0.00000  Uiso   1.00
Zn58   Zn    0.13459   0.12378   0.22258   0.00000  Uiso   1.00
Zn59   Zn    0.21166   0.19664   0.21188   0.00000  Uiso   1.00
Zn60   Zn    0.12798   0.20535   0.28277   0.00000  Uiso   1.00
C61    C     0.38577   0.15969   0.25915   0.00000  Uiso   1.00
C62    C     0.54027   0.14033   0.45966   0.00000  Uiso   1.00
C63    C     0.56152   0.12157   0.47966   0.00000  Uiso   1.00
C64    C     0.61447   0.17356   0.24099   0.00000  Uiso   1.00
C65    C     0.55061   0.12700   0.02036   0.00000  Uiso   1.00
C66    C     0.51763   0.15221   0.04193   0.00000  Uiso   1.00
C67    C     0.57299   0.10773   0.03968   0.00000  Uiso   1.00
C68    C     0.56328   0.11330   0.08033   0.00000  Uiso   1.00
C69    C     0.50770   0.15634   0.08320   0.00000  Uiso   1.00
C70    C     0.66074   0.17595   0.23656   0.00000  Uiso   1.00
C71    C     0.34057   0.15820   0.26189   0.00000  Uiso   1.00
C72    C     0.44042   0.22446   0.42030   0.00000  Uiso   1.00
C73    C     0.51429   0.32220   0.23807   0.00000  Uiso   1.00
C74    C     0.48485   0.01208   0.26199   0.00000  Uiso   1.00
C75    C     0.48928   0.05615   0.25883   0.00000  Uiso   1.00
C76    C     0.51021   0.27769   0.24133   0.00000  Uiso   1.00
C77    C     0.52168   0.14527   0.14415   0.00000  Uiso   1.00
C78    C     0.47877   0.18779   0.35608   0.00000  Uiso   1.00
C79    C     0.46991   0.19664   0.39890   0.00000  Uiso   1.00
C80    C     0.53061   0.13747   0.10191   0.00000  Uiso   1.00
C81    C     0.43217   0.23187   0.46086   0.00000  Uiso   1.00
C82    C     0.35795   0.19724   0.20489   0.00000  Uiso   1.00
C83    C     0.49132   0.17673   0.41845   0.00000  Uiso   1.00
C84    C     0.48450   0.18451   0.45933   0.00000  Uiso   1.00
C85    C     0.45371   0.21201   0.48050   0.00000  Uiso   1.00
C86    C     0.50693   0.16545   0.47971   0.00000  Uiso   1.00
C87    C     0.49617   0.17239   0.02149   0.00000  Uiso   1.00
C88    C     0.46493   0.19982   0.04131   0.00000  Uiso   1.00
C89    C     0.44450   0.21942   0.02110   0.00000  Uiso   1.00
H90    H     0.42103   0.24043   0.03751   0.00000  Uiso   1.00
H91    H     0.42343   0.24019   0.40577   0.00000  Uiso   1.00
H92    H     0.51260   0.15468   0.40098   0.00000  Uiso   1.00
H93    H     0.45581   0.20761   0.07259   0.00000  Uiso   1.00
H94    H     0.55178   0.13506   0.42822   0.00000  Uiso   1.00
H95    H     0.59837   0.08872   0.02328   0.00000  Uiso   1.00
H96    H     0.65102   0.14274   0.28589   0.00000  Uiso   1.00
H97    H     0.54151   0.00287   0.21606   0.00000  Uiso   1.00
H98    H     0.45723   0.33216   0.28404   0.00000  Uiso   1.00
H99    H     0.48270   0.17419   0.10189   0.00000  Uiso   1.00
H100   H     0.58125   0.09891   0.09497   0.00000  Uiso   1.00
H101   H     0.58697   0.10273   0.46301   0.00000  Uiso   1.00
H102   H     0.40883   0.25314   0.47693   0.00000  Uiso   1.00
N103   N     0.38233   0.21419   0.17963   0.00000  Uiso   1.00
O104   O     0.50000   0.16667   0.25000   0.00000  Uiso   1.00
O105   O     0.49027   0.12393   0.16625   0.00000  Uiso   1.00
O106   O     0.46020   0.20646   0.33749   0.00000  Uiso   1.00
O107   O     0.54421   0.17493   0.15877   0.00000  Uiso   1.00
O108   O     0.50532   0.16135   0.33749   0.00000  Uiso   1.00
O109   O     0.51182   0.08101   0.27821   0.00000  Uiso   1.00
O110   O     0.47914   0.26136   0.26767   0.00000  Uiso   1.00
O111   O     0.40785   0.13251   0.23607   0.00000  Uiso   1.00
O112   O     0.60119   0.19179   0.21806   0.00000  Uiso   1.00
O113   O     0.40323   0.18960   0.27820   0.00000  Uiso   1.00
O114   O     0.58773   0.15277   0.26768   0.00000  Uiso   1.00
O115   O     0.47133   0.06903   0.23607   0.00000  Uiso   1.00
O116   O     0.53771   0.25527   0.21806   0.00000  Uiso   1.00
Zn117  Zn    0.52577   0.14090   0.28278   0.00000  Uiso   1.00
Zn118  Zn    0.46792   0.12378   0.22258   0.00000  Uiso   1.00
Zn119  Zn    0.54500   0.19664   0.21188   0.00000  Uiso   1.00
Zn120  Zn    0.46131   0.20535   0.28277   0.00000  Uiso   1.00
C121   C     0.71910   0.15969   0.25915   0.00000  Uiso   1.00
C122   C     0.87361   0.14033   0.45966   0.00000  Uiso   1.00
C123   C     0.89485   0.12157   0.47966   0.00000  Uiso   1.00
C124   C     0.94781   0.17356   0.24099   0.00000  Uiso   1.00
C125   C     0.88395   0.12700   0.02036   0.00000  Uiso   1.00
C126   C     0.85096   0.15221   0.04193   0.00000  Uiso   1.00
C127   C     0.90633   0.10773   0.03968   0.00000  Uiso   1.00
C128   C     0.89661   0.11330   0.08033   0.00000  Uiso   1.00
C129   C     0.84104   0.15634   0.08320   0.00000  Uiso   1.00
C130   C     0.99407   0.17595   0.23656   0.00000  Uiso   1.00
C131   C     0.67391   0.15820   0.26189   0.00000  Uiso   1.00
C132   C     0.77375   0.22446   0.42030   0.00000  Uiso   1.00
C133   C     0.84762   0.32220   0.23807   0.00000  Uiso   1.00
C134   C     0.81818   0.01208   0.26199   0.00000  Uiso   1.00
C135   C     0.82261   0.05615   0.25883   0.00000  Uiso   1.00
C136   C     0.84354   0.27769   0.24133   0.00000  Uiso   1.00
C137   C     0.85502   0.14527   0.14415   0.00000  Uiso   1.00
C138   C     0.81211   0.18779   0.35608   0.00000  Uiso   1.00
C139   C     0.80324   0.19664   0.39890   0.00000  Uiso   1.00
C140   C     0.86395   0.13747   0.10191   0.00000  Uiso   1.00
C141   C     0.76550   0.23187   0.46086   0.00000  Uiso   1.00
C142   C     0.69128   0.19724   0.20489   0.00000  Uiso   1.00
C143   C     0.82465   0.17673   0.41845   0.00000  Uiso   1.00
C144   C     0.81783   0.18451   0.45933   0.00000  Uiso   1.00
C145   C     0.78705   0.21201   0.48050   0.00000  Uiso   1.00
C146   C     0.84026   0.16545   0.47971   0.00000  Uiso   1.00
C147   C     0.82950   0.17239   0.02149   0.00000  Uiso   1.00
C148   C     0.79826   0.19982   0.04131   0.00000  Uiso   1.00
C149   C     0.77784   0.21942   0.02110   0.00000  Uiso   1.00
H150   H     0.75436   0.24043   0.03751   0.00000  Uiso   1.00
H151   H     0.75676   0.24019   0.40577   0.00000  Uiso   1.00
H152   H     0.84594   0.15468   0.40098   0.00000  Uiso   1.00
H153   H     0.78914   0.20761   0.07259   0.00000  Uiso   1.00
H154   H     0.88511   0.13506   0.42822   0.00000  Uiso   1.00
H155   H     0.93170   0.08872   0.02328   0.00000  Uiso   1.00
H156   H     0.98436   0.14274   0.28589   0.00000  Uiso   1.00
H157   H     0.87485   0.00287   0.21606   0.00000  Uiso   1.00
H158   H     0.79056   0.33216   0.28404   0.00000  Uiso   1.00
H159   H     0.81603   0.17419   0.10189   0.00000  Uiso   1.00
H160   H     0.91458   0.09891   0.09497   0.00000  Uiso   1.00
H161   H     0.92030   0.10273   0.46301   0.00000  Uiso   1.00
H162   H     0.74217   0.25314   0.47693   0.00000  Uiso   1.00
N163   N     0.71566   0.21419   0.17963   0.00000  Uiso   1.00
O164   O     0.83333   0.16667   0.25000   0.00000  Uiso   1.00
O165   O     0.82360   0.12393   0.16625   0.00000  Uiso   1.00
O166   O     0.79354   0.20646   0.33749   0.00000  Uiso   1.00
O167   O     0.87755   0.17493   0.15877   0.00000  Uiso   1.00
O168   O     0.83865   0.16135   0.33749   0.00000  Uiso   1.00
O169   O     0.84515   0.08101   0.27821   0.00000  Uiso   1.00
O170   O     0.81247   0.26136   0.26767   0.00000  Uiso   1.00
O171   O     0.74119   0.13251   0.23607   0.00000  Uiso   1.00
O172   O     0.93452   0.19179   0.21806   0.00000  Uiso   1.00
O173   O     0.73656   0.18960   0.27820   0.00000  Uiso   1.00
O174   O     0.92106   0.15277   0.26768   0.00000  Uiso   1.00
O175   O     0.80467   0.06903   0.23607   0.00000  Uiso   1.00
O176   O     0.87104   0.25527   0.21806   0.00000  Uiso   1.00
Zn177  Zn    0.85910   0.14090   0.28278   0.00000  Uiso   1.00
Zn178  Zn    0.80125   0.12378   0.22258   0.00000  Uiso   1.00
Zn179  Zn    0.87833   0.19664   0.21188   0.00000  Uiso   1.00
Zn180  Zn    0.79465   0.20535   0.28277   0.00000  Uiso   1.00
C181   C     0.05244   0.49302   0.25915   0.00000  Uiso   1.00
C182   C     0.20694   0.47366   0.45966   0.00000  Uiso   1.00
C183   C     0.22818   0.45490   0.47966   0.00000  Uiso   1.00
C184   C     0.28114   0.50689   0.24099   0.00000  Uiso   1.00
C185   C     0.21728   0.46033   0.02036   0.00000  Uiso   1.00
C186   C     0.18429   0.48554   0.04193   0.00000  Uiso   1.00
C187   C     0.23966   0.44106   0.03968   0.00000  Uiso   1.00
C188   C     0.22994   0.44663   0.08033   0.00000  Uiso   1.00
C189   C     0.17437   0.48967   0.08320   0.00000  Uiso   1.00
C190   C     0.32740   0.50929   0.23656   0.00000  Uiso   1.00
C191   C     0.00724   0.49154   0.26189   0.00000  Uiso   1.00
C192   C     0.10708   0.55779   0.42030   0.00000  Uiso   1.00
C193   C     0.18095   0.65553   0.23807   0.00000  Uiso   1.00
C194   C     0.15151   0.34541   0.26199   0.00000  Uiso   1.00
C195   C     0.15595   0.38949   0.25883   0.00000  Uiso   1.00
C196   C     0.17687   0.61102   0.24133   0.00000  Uiso   1.00
C197   C     0.18835   0.47860   0.14415   0.00000  Uiso   1.00
C198   C     0.14544   0.52113   0.35608   0.00000  Uiso   1.00
C199   C     0.13657   0.52998   0.39890   0.00000  Uiso   1.00
C200   C     0.19728   0.47080   0.10191   0.00000  Uiso   1.00
C201   C     0.09884   0.56521   0.46086   0.00000  Uiso   1.00
C202   C     0.02462   0.53058   0.20489   0.00000  Uiso   1.00
C203   C     0.15798   0.51006   0.41845   0.00000  Uiso   1.00
C204   C     0.15117   0.51784   0.45933   0.00000  Uiso   1.00
C205   C     0.12038   0.54534   0.48050   0.00000  Uiso   1.00
C206   C     0.17359   0.49879   0.47971   0.00000  Uiso   1.00
C207   C     0.16284   0.50572   0.02149   0.00000  Uiso   1.00
C208   C     0.13159   0.53315   0.04131   0.00000  Uiso   1.00
C209   C     0.11117   0.55275   0.02110   0.00000  Uiso   1.00
H210   H     0.08769   0.57377   0.03751   0.00000  Uiso   1.00
H211   H     0.09010   0.57352   0.40577   0.00000  Uiso   1.00
H212   H     0.17927   0.48801   0.40098   0.00000  Uiso   1.00
H213   H     0.12248   0.54094   0.07259   0.00000  Uiso   1.00
H214   H     0.21845   0.46840   0.42822   0.00000  Uiso   1.00
H215   H     0.26504   0.42205   0.02328   0.00000  Uiso   1.00
H216   H     0.31769   0.47607   0.28589   0.00000  Uiso   1.00
H217   H     0.20818   0.33620   0.21606   0.00000  Uiso   1.00
H218   H     0.12389   0.66549   0.28404   0.00000  Uiso   1.00
H219   H     0.14936   0.50752   0.10189   0.00000  Uiso   1.00
H220   H     0.24792   0.43224   0.09497   0.00000  Uiso   1.00
H221   H     0.25364   0.43607   0.46301   0.00000  Uiso   1.00
H222   H     0.07550   0.58647   0.47693   0.00000  Uiso   1.00
N223   N     0.04899   0.54752   0.17963   0.00000  Uiso   1.00
O224   O     0.16667   0.50000   0.25000   0.00000  Uiso   1.00
O225   O     0.15693   0.45726   0.16625   0.00000  Uiso   1.00
O226   O     0.12687   0.53979   0.33749   0.00000  Uiso   1.00
O227   O     0.21088   0.50826   0.15877   0.00000  Uiso   1.00
O228   O     0.17198   0.49468   0.33749   0.00000  Uiso   1.00
O229   O     0.17849   0.41434   0.27821   0.00000  Uiso   1.00
O230   O     0.14581   0.59469   0.26767   0.00000  Uiso   1.00
O231   O     0.07452   0.46584   0.23607   0.00000  Uiso   1.00
O232   O     0.26785   0.52512   0.21806   0.00000  Uiso   1.00
O233   O     0.06990   0.52293   0.27820   0.00000  Uiso   1.00
O234   O     0.25440   0.48610   0.26768   0.00000  Uiso   1.00
O235   O     0.13800   0.40236   0.23607   0.00000  Uiso   1.00
O236   O     0.20437   0.58860   0.21806   0.00000  Uiso   1.00
Zn237  Zn    0.19244   0.47423   0.28278   0.00000  Uiso   1.00
Zn238  Zn    0.13459   0.45711   0.22258   0.00000  Uiso   1.00
Zn239  Zn    0.21166   0.52997   0.21188   0.00000  Uiso   1.00
Zn240  Zn    0.12798   0.53868   0.28277   0.00000  Uiso   1.00
C241   C     0.38577   0.49302   0.25915   0.00000  Uiso   1.00
C242   C     0.54027   0.47366   0.45966   0.00000  Uiso   1.00
C243   C     0.56152   0.45490   0.47966   0.00000  Uiso   1.00
C244   C     0.61447   0.50689   0.24099   0.00000  Uiso   1.00
C245   C     0.55061   0.46033   0.02036   0.00000  Uiso   1.00
C246   C     0.51763   0.48554   0.04193   0.00000  Uiso   1.00
C247   C     0.57299   0.44106   0.03968   0.00000  Uiso   1.00
C248   C     0.56328   0.44663   0.08033   0.00000  Uiso   1.00
C249   C     0.50770   0.48967   0.08320   0.00000  Uiso   1.00
C250   C     0.66074   0.50929   0.23656   0.00000  Uiso   1.00
C251   C     0.34057   0.49154   0.26189   0.00000  Uiso   1.00
C252   C     0.44042   0.55779   0.42030   0.00000  Uiso   1.00
C253   C     0.51429   0.65553   0.23807   0.00000  Uiso   1.00
C254   C     0.48485   0.34541   0.26199   0.00000  Uiso   1.00
C255   C     0.48928   0.38949   0.25883   0.00000  Uiso   1.00
C256   C     0.51021   0.61102   0.24133   0.00000  Uiso   1.00
C257   C     0.52168   0.47860   0.14415   0.00000  Uiso   1.00
C258   C     0.47877   0.52113   0.35608   0.00000  Uiso   1.00
C259   C     0.46991   0.52998   0.39890   0.00000  Uiso   1.00
C260   C     0.53061   0.47080   0.10191   0.00000  Uiso   1.00
C261   C     0.43217   0.56521   0.46086   0.00000  Uiso   1.00
C262   C     0.35795   0.53058   0.20489   0.00000  Uiso   1.00
C263   C     0.49132   0.51006   0.41845   0.00000  Uiso   1.00
C264   C     0.48450   0.51784   0.45933   0.00000  Uiso   1.00
C265   C     0.45371   0.54534   0.48050   0.00000  Uiso   1.00
C266   C     0.50693   0.49879   0.47971   0.00000  Uiso   1.00
C267   C     0.49617   0.50572   0.02149   0.00000  Uiso   1.00
C268   C     0.46493   0.53315   0.04131   0.00000  Uiso   1.00
C269   C     0.44450   0.55275   0.02110   0.00000  Uiso   1.00
H270   H     0.42103   0.57377   0.03751   0.00000  Uiso   1.00
H271   H     0.42343   0.57352   0.40577   0.00000  Uiso   1.00
H272   H     0.51260   0.48801   0.40098   0.00000  Uiso   1.00
H273   H     0.45581   0.54094   0.07259   0.00000  Uiso   1.00
H274   H     0.55178   0.46840   0.42822   0.00000  Uiso   1.00
H275   H     0.59837   0.42205   0.02328   0.00000  Uiso   1.00
H276   H     0.65102   0.47607   0.28589   0.00000  Uiso   1.00
H277   H     0.54151   0.33620   0.21606   0.00000  Uiso   1.00
H278   H     0.45723   0.66549   0.28404   0.00000  Uiso   1.00
H279   H     0.48270   0.50752   0.10189   0.00000  Uiso   1.00
H280   H     0.58125   0.43224   0.09497   0.00000  Uiso   1.00
H281   H     0.58697   0.43607   0.46301   0.00000  Uiso   1.00
H282   H     0.40883   0.58647   0.47693   0.00000  Uiso   1.00
N283   N     0.38233   0.54752   0.17963   0.00000  Uiso   1.00
O284   O     0.50000   0.50000   0.25000   0.00000  Uiso   1.00
O285   O     0.49027   0.45726   0.16625   0.00000  Uiso   1.00
O286   O     0.46020   0.53979   0.33749   0.00000  Uiso   1.00
O287   O     0.54421   0.50826   0.15877   0.00000  Uiso   1.00
O288   O     0.50532   0.49468   0.33749   0.00000  Uiso   1.00
O289   O     0.51182   0.41434   0.27821   0.00000  Uiso   1.00
O290   O     0.47914   0.59469   0.26767   0.00000  Uiso   1.00
O291   O     0.40785   0.46584   0.23607   0.00000  Uiso   1.00
O292   O     0.60119   0.52512   0.21806   0.00000  Uiso   1.00
O293   O     0.40323   0.52293   0.27820   0.00000  Uiso   1.00
O294   O     0.58773   0.48610   0.26768   0.00000  Uiso   1.00
O295   O     0.47133   0.40236   0.23607   0.00000  Uiso   1.00
O296   O     0.53771   0.58860   0.21806   0.00000  Uiso   1.00
Zn297  Zn    0.52577   0.47423   0.28278   0.00000  Uiso   1.00
Zn298  Zn    0.46792   0.45711   0.22258   0.00000  Uiso   1.00
Zn299  Zn    0.54500   0.52997   0.21188   0.00000  Uiso   1.00
Zn300  Zn    0.46131   0.53868   0.28277   0.00000  Uiso   1.00
C301   C     0.71910   0.49302   0.25915   0.00000  Uiso   1.00
C302   C     0.87361   0.47366   0.45966   0.00000  Uiso   1.00
C303   C     0.89485   0.45490   0.47966   0.00000  Uiso   1.00
C304   C     0.94781   0.50689   0.24099   0.00000  Uiso   1.00
C305   C     0.88395   0.46033   0.02036   0.00000  Uiso   1.00
C306   C     0.85096   0.48554   0.04193   0.00000  Uiso   1.00
C307   C     0.90633   0.44106   0.03968   0.00000  Uiso   1.00
C308   C     0.89661   0.44663   0.08033   0.00000  Uiso   1.00
C309   C     0.84104   0.48967   0.08320   0.00000  Uiso   1.00
C310   C     0.99407   0.50929   0.23656   0.00000  Uiso   1.00
C311   C     0.67391   0.49154   0.26189   0.00000  Uiso   1.00
C312   C     0.77375   0.55779   0.42030   0.00000  Uiso   1.00
C313   C     0.84762   0.65553   0.23807   0.00000  Uiso   1.00
C314   C     0.81818   0.34541   0.26199   0.00000  Uiso   1.00
C315   C     0.82261   0.38949   0.25883   0.00000  Uiso   1.00
C316   C     0.84354   0.61102   0.24133   0.00000  Uiso   1.00
C317   C     0.85502   0.47860   0.14415   0.00000  Uiso   1.00
C318   C     0.81211   0.52113   0.35608   0.00000  Uiso   1.00
C319   C     0.80324   0.52998   0.39890   0.00000  Uiso   1.00
C320   C     0.86395   0.47080   0.10191   0.00000  Uiso   1.00
C321   C     0.76550   0.56521   0.46086   0.00000  Uiso   1.00
C322   C     0.69128   0.53058   0.20489   0.00000  Uiso   1.00
C323   C     0.82465   0.51006   0.41845   0.00000  Uiso   1.00
C324   C     0.81783   0.51784   0.45933   0.00000  Uiso   1.00
C325   C     0.78705   0.54534   0.48050   0.00000  Uiso   1.00
C326   C     0.84026   0.49879   0.47971   0.00000  Uiso   1.00
C327   C     0.82950   0.50572   0.02149   0.00000  Uiso   1.00
C328   C     0.79826   0.53315   0.04131   0.00000  Uiso   1.00
C329   C     0.77784   0.55275   0.02110   0.00000  Uiso   1.00
H330   H     0.75436   0.57377   0.03751   0.00000  Uiso   1.00
H331   H     0.75676   0.57352   0.40577   0.00000  Uiso   1.00
H332   H     0.84594   0.48801   0.40098   0.00000  Uiso   1.00
H333   H     0.78914   0.54094   0.07259   0.00000  Uiso   1.00
H334   H     0.88511   0.46840   0.42822   0.00000  Uiso   1.00
H335   H     0.93170   0.42205   0.02328   0.00000  Uiso   1.00
H336   H     0.98436   0.47607   0.28589   0.00000  Uiso   1.00
H337   H     0.87485   0.33620   0.21606   0.00000  Uiso   1.00
H338   H     0.79056   0.66549   0.28404   0.00000  Uiso   1.00
H339   H     0.81603   0.50752   0.10189   0.00000  Uiso   1.00
H340   H     0.91458   0.43224   0.09497   0.00000  Uiso   1.00
H341   H     0.92030   0.43607   0.46301   0.00000  Uiso   1.00
H342   H     0.74217   0.58647   0.47693   0.00000  Uiso   1.00
N343   N     0.71566   0.54752   0.17963   0.00000  Uiso   1.00
O344   O     0.83333   0.50000   0.25000   0.00000  Uiso   1.00
O345   O     0.82360   0.45726   0.16625   0.00000  Uiso   1.00
O346   O     0.79354   0.53979   0.33749   0.00000  Uiso   1.00
O347   O     0.87755   0.50826   0.15877   0.00000  Uiso   1.00
O348   O     0.83865   0.49468   0.33749   0.00000  Uiso   1.00
O349   O     0.84515   0.41434   0.27821   0.00000  Uiso   1.00
O350   O     0.81247   0.59469   0.26767   0.00000  Uiso   1.00
O351   O     0.74119   0.46584   0.23607   0.00000  Uiso   1.00
O352   O     0.93452   0.52512   0.21806   0.00000  Uiso   1.00
O353   O     0.73656   0.52293   0.27820   0.00000  Uiso   1.00
O354   O     0.92106   0.48610   0.26768   0.00000  Uiso   1.00
O355   O     0.80467   0.40236   0.23607   0.00000  Uiso   1.00
O356   O     0.87104   0.58860   0.21806   0.00000  Uiso   1.00
Zn357  Zn    0.85910   0.47423   0.28278   0.00000  Uiso   1.00
Zn358  Zn    0.80125   0.45711   0.22258   0.00000  Uiso   1.00
Zn359  Zn    0.87833   0.52997   0.21188   0.00000  Uiso   1.00
Zn360  Zn    0.79465   0.53868   0.28277   0.00000  Uiso   1.00
C361   C     0.05244   0.82635   0.25915   0.00000  Uiso   1.00
C362   C     0.20694   0.80699   0.45966   0.00000  Uiso   1.00
C363   C     0.22818   0.78823   0.47966   0.00000  Uiso   1.00
C364   C     0.28114   0.84022   0.24099   0.00000  Uiso   1.00
C365   C     0.21728   0.79366   0.02036   0.00000  Uiso   1.00
C366   C     0.18429   0.81888   0.04193   0.00000  Uiso   1.00
C367   C     0.23966   0.77439   0.03968   0.00000  Uiso   1.00
C368   C     0.22994   0.77996   0.08033   0.00000  Uiso   1.00
C369   C     0.17437   0.82300   0.08320   0.00000  Uiso   1.00
C370   C     0.32740   0.84262   0.23656   0.00000  Uiso   1.00
C371   C     0.00724   0.82487   0.26189   0.00000  Uiso   1.00
C372   C     0.10708   0.89113   0.42030   0.00000  Uiso   1.00
C373   C     0.18095   0.98887   0.23807   0.00000  Uiso   1.00
C374   C     0.15151   0.67875   0.26199   0.00000  Uiso   1.00
C375   C     0.15595   0.72282   0.25883   0.00000  Uiso   1.00
C376   C     0.17687   0.94436   0.24133   0.00000  Uiso   1.00
C377   C     0.18835   0.81193   0.14415   0.00000  Uiso   1.00
C378   C     0.14544   0.85446   0.35608   0.00000  Uiso   1.00
C379   C     0.13657   0.86331   0.39890   0.00000  Uiso   1.00
C380   C     0.19728   0.80413   0.10191   0.00000  Uiso   1.00
C381   C     0.09884   0.89854   0.46086   0.00000  Uiso   1.00
C382   C     0.02462   0.86391   0.20489   0.00000  Uiso   1.00
C383   C     0.15798   0.84339   0.41845   0.00000  Uiso   1.00
C384   C     0.15117   0.85117   0.45933   0.00000  Uiso   1.00
C385   C     0.12038   0.87868   0.48050   0.00000  Uiso   1.00
C386   C     0.17359   0.83212   0.47971   0.00000  Uiso   1.00
C387   C     0.16284   0.83905   0.02149   0.00000  Uiso   1.00
C388   C     0.13159   0.86649   0.04131   0.00000  Uiso   1.00
C389   C     0.11117   0.88608   0.02110   0.00000  Uiso   1.00
H390   H     0.08769   0.90710   0.03751   0.00000  Uiso   1.00
H391   H     0.09010   0.90685   0.40577   0.00000  Uiso   1.00
H392   H     0.17927   0.82134   0.40098   0.00000  Uiso   1.00
H393   H     0.12248   0.87428   0.07259   0.00000  Uiso   1.00
H394   H     0.21845   0.80173   0.42822   0.00000  Uiso   1.00
H395   H     0.26504   0.75539   0.02328   0.00000  Uiso   1.00
H396   H     0.31769   0.80941   0.28589   0.00000  Uiso   1.00
H397   H     0.20818   0.66954   0.21606   0.00000  Uiso   1.00
H398   H     0.12389   0.99882   0.28404   0.00000  Uiso   1.00
H399   H     0.14936   0.84086   0.10189   0.00000  Uiso   1.00
H400   H     0.24792   0.76557   0.09497   0.00000  Uiso   1.00
H401   H     0.25364   0.76940   0.46301   0.00000  Uiso   1.00
H402   H     0.07550   0.91981   0.47693   0.00000  Uiso   1.00
N403   N     0.04899   0.88086   0.17963   0.00000  Uiso   1.00
O404   O     0.16667   0.83333   0.25000   0.00000  Uiso   1.00
O405   O     0.15693   0.79060   0.16625   0.00000  Uiso   1.00
O406   O     0.12687   0.87313   0.33749   0.00000  Uiso   1.00
O407   O     0.21088   0.84159   0.15877   0.00000  Uiso   1.00
O408   O     0.17198   0.82802   0.33749   0.00000  Uiso   1.00
O409   O     0.17849   0.74768   0.27821   0.00000  Uiso   1.00
O410   O     0.14581   0.92803   0.26767   0.00000  Uiso   1.00
O411   O     0.07452   0.79917   0.23607   0.00000  Uiso   1.00
O412   O     0.26785   0.85845   0.21806   0.00000  Uiso   1.00
O413   O     0.06990   0.85627   0.27820   0.00000  Uiso   1.00
O414   O     0.25440   0.81944   0.26768   0.00000  Uiso   1.00
O415   O     0.13800   0.73570   0.23607   0.00000  Uiso   1.00
O416   O     0.20437   0.92193   0.21806   0.00000  Uiso   1.00
Zn417  Zn    0.19244   0.80756   0.28278   0.00000  Uiso   1.00
Zn418  Zn    0.13459   0.79044   0.22258   0.00000  Uiso   1.00
Zn419  Zn    0.21166   0.86331   0.21188   0.00000  Uiso   1.00
Zn420  Zn    0.12798   0.87202   0.28277   0.00000  Uiso   1.00
C421   C     0.38577   0.82635   0.25915   0.00000  Uiso   1.00
C422   C     0.54027   0.80699   0.45966   0.00000  Uiso   1.00
C423   C     0.56152   0.78823   0.47966   0.00000  Uiso   1.00
C424   C     0.61447   0.84022   0.24099   0.00000  Uiso   1.00
C425   C     0.55061   0.79366   0.02036   0.00000  Uiso   1.00
C426   C     0.51763   0.81888   0.04193   0.00000  Uiso   1.00
C427   C     0.57299   0.77439   0.03968   0.00000  Uiso   1.00
C428   C     0.56328   0.77996   0.08033   0.00000  Uiso   1.00
C429   C     0.50770   0.82300   0.08320   0.00000  Uiso   1.00
C430   C     0.66074   0.84262   0.23656   0.00000  Uiso   1.00
C431   C     0.34057   0.82487   0.26189   0.00000  Uiso   1.00
C432   C     0.44042   0.89113   0.42030   0.00000  Uiso   1.00
C433   C     0.51429   0.98887   0.23807   0.00000  Uiso   1.00
C434   C     0.48485   0.67875   0.26199   0.00000  Uiso   1.00
C435   C     0.48928   0.72282   0.25883   0.00000  Uiso   1.00
C436   C     0.51021   0.94436   0.24133   0.00000  Uiso   1.00
C437   C     0.52168   0.81193   0.14415   0.00000  Uiso   1.00
C438   C     0.47877   0.85446   0.35608   0.00000  Uiso   1.00
C439   C     0.46991   0.86331   0.39890   0.00000  Uiso   1.00
C440   C     0.53061   0.80413   0.10191   0.00000  Uiso   1.00
C441   C     0.43217   0.89854   0.46086   0.00000  Uiso   1.00
C442   C     0.35795   0.86391   0.20489   0.00000  Uiso   1.00
C443   C     0.49132   0.84339   0.41845   0.00000  Uiso   1.00
C444   C     0.48450   0.85117   0.45933   0.00000  Uiso   1.00
C445   C     0.45371   0.87868   0.48050   0.00000  Uiso   1.00
C446   C     0.50693   0.83212   0.47971   0.00000  Uiso   1.00
C447   C     0.49617   0.83905   0.02149   0.00000  Uiso   1.00
C448   C     0.46493   0.86649   0.04131   0.00000  Uiso   1.00
C449   C     0.44450   0.88608   0.02110   0.00000  Uiso   1.00
H450   H     0.42103   0.90710   0.03751   0.00000  Uiso   1.00
H451   H     0.42343   0.90685   0.40577   0.00000  Uiso   1.00
H452   H     0.51260   0.82134   0.40098   0.00000  Uiso   1.00
H453   H     0.45581   0.87428   0.07259   0.00000  Uiso   1.00
H454   H     0.55178   0.80173   0.42822   0.00000  Uiso   1.00
H455   H     0.59837   0.75539   0.02328   0.00000  Uiso   1.00
H456   H     0.65102   0.80941   0.28589   0.00000  Uiso   1.00
H457   H     0.54151   0.66954   0.21606   0.00000  Uiso   1.00
H458   H     0.45723   0.99882   0.28404   0.00000  Uiso   1.00
H459   H     0.48270   0.84086   0.10189   0.00000  Uiso   1.00
H460   H     0.58125   0.76557   0.09497   0.00000  Uiso   1.00
H461   H     0.58697   0.76940   0.46301   0.00000  Uiso   1.00
H462   H     0.40883   0.91981   0.47693   0.00000  Uiso   1.00
N463   N     0.38233   0.88086   0.17963   0.00000  Uiso   1.00
O464   O     0.50000   0.83333   0.25000   0.00000  Uiso   1.00
O465   O     0.49027   0.79060   0.16625   0.00000  Uiso   1.00
O466   O     0.46020   0.87313   0.33749   0.00000  Uiso   1.00
O467   O     0.54421   0.84159   0.15877   0.00000  Uiso   1.00
O468   O     0.50532   0.82802   0.33749   0.00000  Uiso   1.00
O469   O     0.51182   0.74768   0.27821   0.00000  Uiso   1.00
O470   O     0.47914   0.92803   0.26767   0.00000  Uiso   1.00
O471   O     0.40785   0.79917   0.23607   0.00000  Uiso   1.00
O472   O     0.60119   0.85845   0.21806   0.00000  Uiso   1.00
O473   O     0.40323   0.85627   0.27820   0.00000  Uiso   1.00
O474   O     0.58773   0.81944   0.26768   0.00000  Uiso   1.00
O475   O     0.47133   0.73570   0.23607   0.00000  Uiso   1.00
O476   O     0.53771   0.92193   0.21806   0.00000  Uiso   1.00
Zn477  Zn    0.52577   0.80756   0.28278   0.00000  Uiso   1.00
Zn478  Zn    0.46792   0.79044   0.22258   0.00000  Uiso   1.00
Zn479  Zn    0.54500   0.86331   0.21188   0.00000  Uiso   1.00
Zn480  Zn    0.46131   0.87202   0.28277   0.00000  Uiso   1.00
C481   C     0.71910   0.82635   0.25915   0.00000  Uiso   1.00
C482   C     0.87361   0.80699   0.45966   0.00000  Uiso   1.00
C483   C     0.89485   0.78823   0.47966   0.00000  Uiso   1.00
C484   C     0.94781   0.84022   0.24099   0.00000  Uiso   1.00
C485   C     0.88395   0.79366   0.02036   0.00000  Uiso   1.00
C486   C     0.85096   0.81888   0.04193   0.00000  Uiso   1.00
C487   C     0.90633   0.77439   0.03968   0.00000  Uiso   1.00
C488   C     0.89661   0.77996   0.08033   0.00000  Uiso   1.00
C489   C     0.84104   0.82300   0.08320   0.00000  Uiso   1.00
C490   C     0.99407   0.84262   0.23656   0.00000  Uiso   1.00
C491   C     0.67391   0.82487   0.26189   0.00000  Uiso   1.00
C492   C     0.77375   0.89113   0.42030   0.00000  Uiso   1.00
C493   C     0.84762   0.98887   0.23807   0.00000  Uiso   1.00
C494   C     0.81818   0.67875   0.26199   0.00000  Uiso   1.00
C495   C     0.82261   0.72282   0.25883   0.00000  Uiso   1.00
C496   C     0.84354   0.94436   0.24133   0.00000  Uiso   1.00
C497   C     0.85502   0.81193   0.14415   0.00000  Uiso   1.00
C498   C     0.81211   0.85446   0.35608   0.00000  Uiso   1.00
C499   C     0.80324   0.86331   0.39890   0.00000  Uiso   1.00
C500   C     0.86395   0.80413   0.10191   0.00000  Uiso   1.00
C501   C     0.76550   0.89854   0.46086   0.00000  Uiso   1.00
C502   C     0.69128   0.86391   0.20489   0.00000  Uiso   1.00
C503   C     0.82465   0.84339   0.41845   0.00000  Uiso   1.00
C504   C     0.81783   0.85117   0.45933   0.00000  Uiso   1.00
C505   C     0.78705   0.87868   0.48050   0.00000  Uiso   1.00
C506   C     0.84026   0.83212   0.47971   0.00000  Uiso   1.00
C507   C     0.82950   0.83905   0.02149   0.00000  Uiso   1.00
C508   C     0.79826   0.86649   0.04131   0.00000  Uiso   1.00
C509   C     0.77784   0.88608   0.02110   0.00000  Uiso   1.00
H510   H     0.75436   0.90710   0.03751   0.00000  Uiso   1.00
H511   H     0.75676   0.90685   0.40577   0.00000  Uiso   1.00
H512   H     0.84594   0.82134   0.40098   0.00000  Uiso   1.00
H513   H     0.78914   0.87428   0.07259   0.00000  Uiso   1.00
H514   H     0.88511   0.80173   0.42822   0.00000  Uiso   1.00
H515   H     0.93170   0.75539   0.02328   0.00000  Uiso   1.00
H516   H     0.98436   0.80941   0.28589   0.00000  Uiso   1.00
H517   H     0.87485   0.66954   0.21606   0.00000  Uiso   1.00
H518   H     0.79056   0.99882   0.28404   0.00000  Uiso   1.00
H519   H     0.81603   0.84086   0.10189   0.00000  Uiso   1.00
H520   H     0.91458   0.76557   0.09497   0.00000  Uiso   1.00
H521   H     0.92030   0.76940   0.46301   0.00000  Uiso   1.00
H522   H     0.74217   0.91981   0.47693   0.00000  Uiso   1.00
N523   N     0.71566   0.88086   0.17963   0.00000  Uiso   1.00
O524   O     0.83333   0.83333   0.25000   0.00000  Uiso   1.00
O525   O     0.82360   0.79060   0.16625   0.00000  Uiso   1.00
O526   O     0.79354   0.87313   0.33749   0.00000  Uiso   1.00
O527   O     0.87755   0.84159   0.15877   0.00000  Uiso   1.00
O528   O     0.83865   0.82802   0.33749   0.00000  Uiso   1.00
O529   O     0.84515   0.74768   0.27821   0.00000  Uiso   1.00
O530   O     0.81247   0.92803   0.26767   0.00000  Uiso   1.00
O531   O     0.74119   0.79917   0.23607   0.00000  Uiso   1.00
O532   O     0.93452   0.85845   0.21806   0.00000  Uiso   1.00
O533   O     0.73656   0.85627   0.27820   0.00000  Uiso   1.00
O534   O     0.92106   0.81944   0.26768   0.00000  Uiso   1.00
O535   O     0.80467   0.73570   0.23607   0.00000  Uiso   1.00
O536   O     0.87104   0.92193   0.21806   0.00000  Uiso   1.00
Zn537  Zn    0.85910   0.80756   0.28278   0.00000  Uiso   1.00
Zn538  Zn    0.80125   0.79044   0.22258   0.00000  Uiso   1.00
Zn539  Zn    0.87833   0.86331   0.21188   0.00000  Uiso   1.00
Zn540  Zn    0.79465   0.87202   0.28277   0.00000  Uiso   1.00
C541   C     0.05244   0.15969   0.75915   0.00000  Uiso   1.00
C542   C     0.20694   0.14033   0.95966   0.00000  Uiso   1.00
C543   C     0.22818   0.12157   0.97966   0.00000  Uiso   1.00
C544   C     0.28114   0.17356   0.74099   0.00000  Uiso   1.00
C545   C     0.21728   0.12700   0.52036   0.00000  Uiso   1.00
C546   C     0.18429   0.15221   0.54193   0.00000  Uiso   1.00
C547   C     0.23966   0.10773   0.53968   0.00000  Uiso   1.00
C548   C     0.22994   0.11330   0.58033   0.00000  Uiso   1.00
C549   C     0.17437   0.15634   0.58320   0.00000  Uiso   1.00
C550   C     0.32740   0.17595   0.73656   0.00000  Uiso   1.00
C551   C     0.00724   0.15820   0.76189   0.00000  Uiso   1.00
C552   C     0.10708   0.22446   0.92030   0.00000  Uiso   1.00
C553   C     0.18095   0.32220   0.73807   0.00000  Uiso   1.00
C554   C     0.15151   0.01208   0.76199   0.00000  Uiso   1.00
C555   C     0.15595   0.05615   0.75883   0.00000  Uiso   1.00
C556   C     0.17687   0.27769   0.74133   0.00000  Uiso   1.00
C557   C     0.18835   0.14527   0.64415   0.00000  Uiso   1.00
C558   C     0.14544   0.18779   0.85608   0.00000  Uiso   1.00
C559   C     0.13657   0.19664   0.89890   0.00000  Uiso   1.00
C560   C     0.19728   0.13747   0.60191   0.00000  Uiso   1.00
C561   C     0.09884   0.23187   0.96086   0.00000  Uiso   1.00
C562   C     0.02462   0.19724   0.70489   0.00000  Uiso   1.00
C563   C     0.15798   0.17673   0.91845   0.00000  Uiso   1.00
C564   C     0.15117   0.18451   0.95933   0.00000  Uiso   1.00
C565   C     0.12038   0.21201   0.98050   0.00000  Uiso   1.00
C566   C     0.17359   0.16545   0.97971   0.00000  Uiso   1.00
C567   C     0.16284   0.17239   0.52149   0.00000  Uiso   1.00
C568   C     0.13159   0.19982   0.54131   0.00000  Uiso   1.00
C569   C     0.11117   0.21942   0.52110   0.00000  Uiso   1.00
H570   H     0.08769   0.24043   0.53751   0.00000  Uiso   1.00
H571   H     0.09010   0.24019   0.90577   0.00000  Uiso   1.00
H572   H     0.17927   0.15468   0.90098   0.00000  Uiso   1.00
H573   H     0.12248   0.20761   0.57259   0.00000  Uiso   1.00
H574   H     0.21845   0.13506   0.92822   0.00000  Uiso   1.00
H575   H     0.26504   0.08872   0.52328   0.00000  Uiso   1.00
H576   H     0.31769   0.14274   0.78589   0.00000  Uiso   1.00
H577   H     0.20818   0.00287   0.71606   0.00000  Uiso   1.00
H578   H     0.12389   0.33216   0.78404   0.00000  Uiso   1.00
H579   H     0.14936   0.17419   0.60189   0.00000  Uiso   1.00
H580   H     0.24792   0.09891   0.59497   0.00000  Uiso   1.00
H581   H     0.25364   0.10273   0.96301   0.00000  Uiso   1.00
H582   H     0.07550   0.25314   0.97693   0.00000  Uiso   1.00
N583   N     0.04899   0.21419   0.67963   0.00000  Uiso   1.00
O584   O     0.16667   0.16667   0.75000   0.00000  Uiso   1.00
O585   O     0.15693   0.12393   0.66625   0.00000  Uiso   1.00
O586   O     0.12687   0.20646   0.83749   0.00000  Uiso   1.00
O587   O     0.21088   0.17493   0.65877   0.00000  Uiso   1.00
O588   O     0.17198   0.16135   0.83749   0.00000  Uiso   1.00
O589   O     0.17849   0.08101   0.77821   0.00000  Uiso   1.00
O590   O     0.14581   0.26136   0.76767   0.00000  Uiso   1.00
O591   O     0.07452   0.13251   0.73607   0.00000  Uiso   1.00
O592   O     0.26785   0.19179   0.71806   0.00000  Uiso   1.00
O593   O     0.06990   0.18960   0.77820   0.00000  Uiso   1.00
O594   O     0.25440   0.15277   0.76768   0.00000  Uiso   1.00
O595   O     0.13800   0.06903   0.73607   0.00000  Uiso   1.00
O596   O     0.20437   0.25527   0.71806   0.00000  Uiso   1.00
Zn597  Zn    0.19244   0.14090   0.78278   0.00000  Uiso   1.00
Zn598  Zn    0.13459   0.12378   0.72258   0.00000  Uiso   1.00
Zn599  Zn    0.21166   0.19664   0.71188   0.00000  Uiso   1.00
Zn600  Zn    0.12798   0.20535   0.78277   0.00000  Uiso   1.00
C601   C     0.38577   0.15969   0.75915   0.00000  Uiso   1.00
C602   C     0.54027   0.14033   0.95966   0.00000  Uiso   1.00
C603   C     0.56152   0.12157   0.97966   0.00000  Uiso   1.00
C604   C     0.61447   0.17356   0.74099   0.00000  Uiso   1.00
C605   C     0.55061   0.12700   0.52036   0.00000  Uiso   1.00
C606   C     0.51763   0.15221   0.54193   0.00000  Uiso   1.00
C607   C     0.57299   0.10773   0.53968   0.00000  Uiso   1.00
C608   C     0.56328   0.11330   0.58033   0.00000  Uiso   1.00
C609   C     0.50770   0.15634   0.58320   0.00000  Uiso   1.00
C610   C     0.66074   0.17595   0.73656   0.00000  Uiso   1.00
C611   C     0.34057   0.15820   0.76189   0.00000  Uiso   1.00
C612   C     0.44042   0.22446   0.92030   0.00000  Uiso   1.00
C613   C     0.51429   0.32220   0.73807   0.00000  Uiso   1.00
C614   C     0.48485   0.01208   0.76199   0.00000  Uiso   1.00
C615   C     0.48928   0.05615   0.75883   0.00000  Uiso   1.00
C616   C     0.51021   0.27769   0.74133   0.00000  Uiso   1.00
C617   C     0.52168   0.14527   0.64415   0.00000  Uiso   1.00
C618   C     0.47877   0.18779   0.85608   0.00000  Uiso   1.00
C619   C     0.46991   0.19664   0.89890   0.00000  Uiso   1.00
C620   C     0.53061   0.13747   0.60191   0.00000  Uiso   1.00
C621   C     0.43217   0.23187   0.96086   0.00000  Uiso   1.00
C622   C     0.35795   0.19724   0.70489   0.00000  Uiso   1.00
C623   C     0.49132   0.17673   0.91845   0.00000  Uiso   1.00
C624   C     0.48450   0.18451   0.95933   0.00000  Uiso   1.00
C625   C     0.45371   0.21201   0.98050   0.00000  Uiso   1.00
C626   C     0.50693   0.16545   0.97971   0.00000  Uiso   1.00
C627   C     0.49617   0.17239   0.52149   0.00000  Uiso   1.00
C628   C     0.46493   0.19982   0.54131   0.00000  Uiso   1.00
C629   C     0.44450   0.21942   0.52110   0.00000  Uiso   1.00
H630   H     0.42103   0.24043   0.53751   0.00000  Uiso   1.00
H631   H     0.42343   0.24019   0.90577   0.00000  Uiso   1.00
H632   H     0.51260   0.15468   0.90098   0.00000  Uiso   1.00
H633   H     0.45581   0.20761   0.57259   0.00000  Uiso   1.00
H634   H     0.55178   0.13506   0.92822   0.00000  Uiso   1.00
H635   H     0.59837   0.08872   0.52328   0.00000  Uiso   1.00
H636   H     0.65102   0.14274   0.78589   0.00000  Uiso   1.00
H637   H     0.54151   0.00287   0.71606   0.00000  Uiso   1.00
H638   H     0.45723   0.33216   0.78404   0.00000  Uiso   1.00
H639   H     0.48270   0.17419   0.60189   0.00000  Uiso   1.00
H640   H     0.58125   0.09891   0.59497   0.00000  Uiso   1.00
H641   H     0.58697   0.10273   0.96301   0.00000  Uiso   1.00
H642   H     0.40883   0.25314   0.97693   0.00000  Uiso   1.00
N643   N     0.38233   0.21419   0.67963   0.00000  Uiso   1.00
O644   O     0.50000   0.16667   0.75000   0.00000  Uiso   1.00
O645   O     0.49027   0.12393   0.66625   0.00000  Uiso   1.00
O646   O     0.46020   0.20646   0.83749   0.00000  Uiso   1.00
O647   O     0.54421   0.17493   0.65877   0.00000  Uiso   1.00
O648   O     0.50532   0.16135   0.83749   0.00000  Uiso   1.00
O649   O     0.51182   0.08101   0.77821   0.00000  Uiso   1.00
O650   O     0.47914   0.26136   0.76767   0.00000  Uiso   1.00
O651   O     0.40785   0.13251   0.73607   0.00000  Uiso   1.00
O652   O     0.60119   0.19179   0.71806   0.00000  Uiso   1.00
O653   O     0.40323   0.18960   0.77820   0.00000  Uiso   1.00
O654   O     0.58773   0.15277   0.76768   0.00000  Uiso   1.00
O655   O     0.47133   0.06903   0.73607   0.00000  Uiso   1.00
O656   O     0.53771   0.25527   0.71806   0.00000  Uiso   1.00
Zn657  Zn    0.52577   0.14090   0.78278   0.00000  Uiso   1.00
Zn658  Zn    0.46792   0.12378   0.72258   0.00000  Uiso   1.00
Zn659  Zn    0.54500   0.19664   0.71188   0.00000  Uiso   1.00
Zn660  Zn    0.46131   0.20535   0.78277   0.00000  Uiso   1.00
C661   C     0.71910   0.15969   0.75915   0.00000  Uiso   1.00
C662   C     0.87361   0.14033   0.95966   0.00000  Uiso   1.00
C663   C     0.89485   0.12157   0.97966   0.00000  Uiso   1.00
C664   C     0.94781   0.17356   0.74099   0.00000  Uiso   1.00
C665   C     0.88395   0.12700   0.52036   0.00000  Uiso   1.00
C666   C     0.85096   0.15221   0.54193   0.00000  Uiso   1.00
C667   C     0.90633   0.10773   0.53968   0.00000  Uiso   1.00
C668   C     0.89661   0.11330   0.58033   0.00000  Uiso   1.00
C669   C     0.84104   0.15634   0.58320   0.00000  Uiso   1.00
C670   C     0.99407   0.17595   0.73656   0.00000  Uiso   1.00
C671   C     0.67391   0.15820   0.76189   0.00000  Uiso   1.00
C672   C     0.77375   0.22446   0.92030   0.00000  Uiso   1.00
C673   C     0.84762   0.32220   0.73807   0.00000  Uiso   1.00
C674   C     0.81818   0.01208   0.76199   0.00000  Uiso   1.00
C675   C     0.82261   0.05615   0.75883   0.00000  Uiso   1.00
C676   C     0.84354   0.27769   0.74133   0.00000  Uiso   1.00
C677   C     0.85502   0.14527   0.64415   0.00000  Uiso   1.00
C678   C     0.81211   0.18779   0.85608   0.00000  Uiso   1.00
C679   C     0.80324   0.19664   0.89890   0.00000  Uiso   1.00
C680   C     0.86395   0.13747   0.60191   0.00000  Uiso   1.00
C681   C     0.76550   0.23187   0.96086   0.00000  Uiso   1.00
C682   C     0.69128   0.19724   0.70489   0.00000  Uiso   1.00
C683   C     0.82465   0.17673   0.91845   0.00000  Uiso   1.00
C684   C     0.81783   0.18451   0.95933   0.00000  Uiso   1.00
C685   C     0.78705   0.21201   0.98050   0.00000  Uiso   1.00
C686   C     0.84026   0.16545   0.97971   0.00000  Uiso   1.00
C687   C     0.82950   0.17239   0.52149   0.00000  Uiso   1.00
C688   C     0.79826   0.19982   0.54131   0.00000  Uiso   1.00
C689   C     0.77784   0.21942   0.52110   0.00000  Uiso   1.00
H690   H     0.75436   0.24043   0.53751   0.00000  Uiso   1.00
H691   H     0.75676   0.24019   0.90577   0.00000  Uiso   1.00
H692   H     0.84594   0.15468   0.90098   0.00000  Uiso   1.00
H693   H     0.78914   0.20761   0.57259   0.00000  Uiso   1.00
H694   H     0.88511   0.13506   0.92822   0.00000  Uiso   1.00
H695   H     0.93170   0.08872   0.52328   0.00000  Uiso   1.00
H696   H     0.98436   0.14274   0.78589   0.00000  Uiso   1.00
H697   H     0.87485   0.00287   0.71606   0.00000  Uiso   1.00
H698   H     0.79056   0.33216   0.78404   0.00000  Uiso   1.00
H699   H     0.81603   0.17419   0.60189   0.00000  Uiso   1.00
H700   H     0.91458   0.09891   0.59497   0.00000  Uiso   1.00
H701   H     0.92030   0.10273   0.96301   0.00000  Uiso   1.00
H702   H     0.74217   0.25314   0.97693   0.00000  Uiso   1.00
N703   N     0.71566   0.21419   0.67963   0.00000  Uiso   1.00
O704   O     0.83333   0.16667   0.75000   0.00000  Uiso   1.00
O705   O     0.82360   0.12393   0.66625   0.00000  Uiso   1.00
O706   O     0.79354   0.20646   0.83749   0.00000  Uiso   1.00
O707   O     0.87755   0.17493   0.65877   0.00000  Uiso   1.00
O708   O     0.83865   0.16135   0.83749   0.00000  Uiso   1.00
O709   O     0.84515   0.08101   0.77821   0.00000  Uiso   1.00
O710   O     0.81247   0.26136   0.76767   0.00000  Uiso   1.00
O711   O     0.74119   0.13251   0.73607   0.00000  Uiso   1.00
O712   O     0.93452   0.19179   0.71806   0.00000  Uiso   1.00
O713   O     0.73656   0.18960   0.77820   0.00000  Uiso   1.00
O714   O     0.92106   0.15277   0.76768   0.00000  Uiso   1.00
O715   O     0.80467   0.06903   0.73607   0.00000  Uiso   1.00
O716   O     0.87104   0.25527   0.71806   0.00000  Uiso   1.00
Zn717  Zn    0.85910   0.14090   0.78278   0.00000  Uiso   1.00
Zn718  Zn    0.80125   0.12378   0.72258   0.00000  Uiso   1.00
Zn719  Zn    0.87833   0.19664   0.71188   0.00000  Uiso   1.00
Zn720  Zn    0.79465   0.20535   0.78277   0.00000  Uiso   1.00
C721   C     0.05244   0.49302   0.75915   0.00000  Uiso   1.00
C722   C     0.20694   0.47366   0.95966   0.00000  Uiso   1.00
C723   C     0.22818   0.45490   0.97966   0.00000  Uiso   1.00
C724   C     0.28114   0.50689   0.74099   0.00000  Uiso   1.00
C725   C     0.21728   0.46033   0.52036   0.00000  Uiso   1.00
C726   C     0.18429   0.48554   0.54193   0.00000  Uiso   1.00
C727   C     0.23966   0.44106   0.53968   0.00000  Uiso   1.00
C728   C     0.22994   0.44663   0.58033   0.00000  Uiso   1.00
C729   C     0.17437   0.48967   0.58320   0.00000  Uiso   1.00
C730   C     0.32740   0.50929   0.73656   0.00000  Uiso   1.00
C731   C     0.00724   0.49154   0.76189   0.00000  Uiso   1.00
C732   C     0.10708   0.55779   0.92030   0.00000  Uiso   1.00
C733   C     0.18095   0.65553   0.73807   0.00000  Uiso   1.00
C734   C     0.15151   0.34541   0.76199   0.00000  Uiso   1.00
C735   C     0.15595   0.38949   0.75883   0.00000  Uiso   1.00
C736   C     0.17687   0.61102   0.74133   0.00000  Uiso   1.00
C737   C     0.18835   0.47860   0.64415   0.00000  Uiso   1.00
C738   C     0.14544   0.52113   0.85608   0.00000  Uiso   1.00
C739   C     0.13657   0.52998   0.89890   0.00000  Uiso   1.00
C740   C     0.19728   0.47080   0.60191   0.00000  Uiso   1.00
C741   C     0.09884   0.56521   0.96086   0.00000  Uiso   1.00
C742   C     0.02462   0.53058   0.70489   0.00000  Uiso   1.00
C743   C     0.15798   0.51006   0.91845   0.00000  Uiso   1.00
C744   C     0.15117   0.51784   0.95933   0.00000  Uiso   1.00
C745   C     0.12038   0.54534   0.98050   0.00000  Uiso   1.00
C746   C     0.17359   0.49879   0.97971   0.00000  Uiso   1.00
C747   C     0.16284   0.50572   0.52149   0.00000  Uiso   1.00
C748   C     0.13159   0.53315   0.54131   0.00000  Uiso   1.00
C749   C     0.11117   0.55275   0.52110   0.00000  Uiso   1.00
H750   H     0.08769   0.57377   0.53751   0.00000  Uiso   1.00
H751   H     0.09010   0.57352   0.90577   0.00000  Uiso   1.00
H752   H     0.17927   0.48801   0.90098   0.00000  Uiso   1.00
H753   H     0.12248   0.54094   0.57259   0.00000  Uiso   1.00
H754   H     0.21845   0.46840   0.92822   0.00000  Uiso   1.00
H755   H     0.26504   0.42205   0.52328   0.00000  Uiso   1.00
H756   H     0.31769   0.47607   0.78589   0.00000  Uiso   1.00
H757   H     0.20818   0.33620   0.71606   0.00000  Uiso   1.00
H758   H     0.12389   0.66549   0.78404   0.00000  Uiso   1.00
H759   H     0.14936   0.50752   0.60189   0.00000  Uiso   1.00
H760   H     0.24792   0.43224   0.59497   0.00000  Uiso   1.00
H761   H     0.25364   0.43607   0.96301   0.00000  Uiso   1.00
H762   H     0.07550   0.58647   0.97693   0.00000  Uiso   1.00
N763   N     0.04899   0.54752   0.67963   0.00000  Uiso   1.00
O764   O     0.16667   0.50000   0.75000   0.00000  Uiso   1.00
O765   O     0.15693   0.45726   0.66625   0.00000  Uiso   1.00
O766   O     0.12687   0.53979   0.83749   0.00000  Uiso   1.00
O767   O     0.21088   0.50826   0.65877   0.00000  Uiso   1.00
O768   O     0.17198   0.49468   0.83749   0.00000  Uiso   1.00
O769   O     0.17849   0.41434   0.77821   0.00000  Uiso   1.00
O770   O     0.14581   0.59469   0.76767   0.00000  Uiso   1.00
O771   O     0.07452   0.46584   0.73607   0.00000  Uiso   1.00
O772   O     0.26785   0.52512   0.71806   0.00000  Uiso   1.00
O773   O     0.06990   0.52293   0.77820   0.00000  Uiso   1.00
O774   O     0.25440   0.48610   0.76768   0.00000  Uiso   1.00
O775   O     0.13800   0.40236   0.73607   0.00000  Uiso   1.00
O776   O     0.20437   0.58860   0.71806   0.00000  Uiso   1.00
Zn777  Zn    0.19244   0.47423   0.78278   0.00000  Uiso   1.00
Zn778  Zn    0.13459   0.45711   0.72258   0.00000  Uiso   1.00
Zn779  Zn    0.21166   0.52997   0.71188   0.00000  Uiso   1.00
Zn780  Zn    0.12798   0.53868   0.78277   0.00000  Uiso   1.00
C781   C     0.38577   0.49302   0.75915   0.00000  Uiso   1.00
C782   C     0.54027   0.47366   0.95966   0.00000  Uiso   1.00
C783   C     0.56152   0.45490   0.97966   0.00000  Uiso   1.00
C784   C     0.61447   0.50689   0.74099   0.00000  Uiso   1.00
C785   C     0.55061   0.46033   0.52036   0.00000  Uiso   1.00
C786   C     0.51763   0.48554   0.54193   0.00000  Uiso   1.00
C787   C     0.57299   0.44106   0.53968   0.00000  Uiso   1.00
C788   C     0.56328   0.44663   0.58033   0.00000  Uiso   1.00
C789   C     0.50770   0.48967   0.58320   0.00000  Uiso   1.00
C790   C     0.66074   0.50929   0.73656   0.00000  Uiso   1.00
C791   C     0.34057   0.49154   0.76189   0.00000  Uiso   1.00
C792   C     0.44042   0.55779   0.92030   0.00000  Uiso   1.00
C793   C     0.51429   0.65553   0.73807   0.00000  Uiso   1.00
C794   C     0.48485   0.34541   0.76199   0.00000  Uiso   1.00
C795   C     0.48928   0.38949   0.75883   0.00000  Uiso   1.00
C796   C     0.51021   0.61102   0.74133   0.00000  Uiso   1.00
C797   C     0.52168   0.47860   0.64415   0.00000  Uiso   1.00
C798   C     0.47877   0.52113   0.85608   0.00000  Uiso   1.00
C799   C     0.46991   0.52998   0.89890   0.00000  Uiso   1.00
C800   C     0.53061   0.47080   0.60191   0.00000  Uiso   1.00
C801   C     0.43217   0.56521   0.96086   0.00000  Uiso   1.00
C802   C     0.35795   0.53058   0.70489   0.00000  Uiso   1.00
C803   C     0.49132   0.51006   0.91845   0.00000  Uiso   1.00
C804   C     0.48450   0.51784   0.95933   0.00000  Uiso   1.00
C805   C     0.45371   0.54534   0.98050   0.00000  Uiso   1.00
C806   C     0.50693   0.49879   0.97971   0.00000  Uiso   1.00
C807   C     0.49617   0.50572   0.52149   0.00000  Uiso   1.00
C808   C     0.46493   0.53315   0.54131   0.00000  Uiso   1.00
C809   C     0.44450   0.55275   0.52110   0.00000  Uiso   1.00
H810   H     0.42103   0.57377   0.53751   0.00000  Uiso   1.00
H811   H     0.42343   0.57352   0.90577   0.00000  Uiso   1.00
H812   H     0.51260   0.48801   0.90098   0.00000  Uiso   1.00
H813   H     0.45581   0.54094   0.57259   0.00000  Uiso   1.00
H814   H     0.55178   0.46840   0.92822   0.00000  Uiso   1.00
H815   H     0.59837   0.42205   0.52328   0.00000  Uiso   1.00
H816   H     0.65102   0.47607   0.78589   0.00000  Uiso   1.00
H817   H     0.54151   0.33620   0.71606   0.00000  Uiso   1.00
H818   H     0.45723   0.66549   0.78404   0.00000  Uiso   1.00
H819   H     0.48270   0.50752   0.60189   0.00000  Uiso   1.00
H820   H     0.58125   0.43224   0.59497   0.00000  Uiso   1.00
H821   H     0.58697   0.43607   0.96301   0.00000  Uiso   1.00
H822   H     0.40883   0.58647   0.97693   0.00000  Uiso   1.00
N823   N     0.38233   0.54752   0.67963   0.00000  Uiso   1.00
O824   O     0.50000   0.50000   0.75000   0.00000  Uiso   1.00
O825   O     0.49027   0.45726   0.66625   0.00000  Uiso   1.00
O826   O     0.46020   0.53979   0.83749   0.00000  Uiso   1.00
O827   O     0.54421   0.50826   0.65877   0.00000  Uiso   1.00
O828   O     0.50532   0.49468   0.83749   0.00000  Uiso   1.00
O829   O     0.51182   0.41434   0.77821   0.00000  Uiso   1.00
O830   O     0.47914   0.59469   0.76767   0.00000  Uiso   1.00
O831   O     0.40785   0.46584   0.73607   0.00000  Uiso   1.00
O832   O     0.60119   0.52512   0.71806   0.00000  Uiso   1.00
O833   O     0.40323   0.52293   0.77820   0.00000  Uiso   1.00
O834   O     0.58773   0.48610   0.76768   0.00000  Uiso   1.00
O835   O     0.47133   0.40236   0.73607   0.00000  Uiso   1.00
O836   O     0.53771   0.58860   0.71806   0.00000  Uiso   1.00
Zn837  Zn    0.52577   0.47423   0.78278   0.00000  Uiso   1.00
Zn838  Zn    0.46792   0.45711   0.72258   0.00000  Uiso   1.00
Zn839  Zn    0.54500   0.52997   0.71188   0.00000  Uiso   1.00
Zn840  Zn    0.46131   0.53868   0.78277   0.00000  Uiso   1.00
C841   C     0.71910   0.49302   0.75915   0.00000  Uiso   1.00
C842   C     0.87361   0.47366   0.95966   0.00000  Uiso   1.00
C843   C     0.89485   0.45490   0.97966   0.00000  Uiso   1.00
C844   C     0.94781   0.50689   0.74099   0.00000  Uiso   1.00
C845   C     0.88395   0.46033   0.52036   0.00000  Uiso   1.00
C846   C     0.85096   0.48554   0.54193   0.00000  Uiso   1.00
C847   C     0.90633   0.44106   0.53968   0.00000  Uiso   1.00
C848   C     0.89661   0.44663   0.58033   0.00000  Uiso   1.00
C849   C     0.84104   0.48967   0.58320   0.00000  Uiso   1.00
C850   C     0.99407   0.50929   0.73656   0.00000  Uiso   1.00
C851   C     0.67391   0.49154   0.76189   0.00000  Uiso   1.00
C852   C     0.77375   0.55779   0.92030   0.00000  Uiso   1.00
C853   C     0.84762   0.65553   0.73807   0.00000  Uiso   1.00
C854   C     0.81818   0.34541   0.76199   0.00000  Uiso   1.00
C855   C     0.82261   0.38949   0.75883   0.00000  Uiso   1.00
C856   C     0.84354   0.61102   0.74133   0.00000  Uiso   1.00
C857   C     0.85502   0.47860   0.64415   0.00000  Uiso   1.00
C858   C     0.81211   0.52113   0.85608   0.00000  Uiso   1.00
C859   C     0.80324   0.52998   0.89890   0.00000  Uiso   1.00
C860   C     0.86395   0.47080   0.60191   0.00000  Uiso   1.00
C861   C     0.76550   0.56521   0.96086   0.00000  Uiso   1.00
C862   C     0.69128   0.53058   0.70489   0.00000  Uiso   1.00
C863   C     0.82465   0.51006   0.91845   0.00000  Uiso   1.00
C864   C     0.81783   0.51784   0.95933   0.00000  Uiso   1.00
C865   C     0.78705   0.54534   0.98050   0.00000  Uiso   1.00
C866   C     0.84026   0.49879   0.97971   0.00000  Uiso   1.00
C867   C     0.82950   0.50572   0.52149   0.00000  Uiso   1.00
C868   C     0.79826   0.53315   0.54131   0.00000  Uiso   1.00
C869   C     0.77784   0.55275   0.52110   0.00000  Uiso   1.00
H870   H     0.75436   0.57377   0.53751   0.00000  Uiso   1.00
H871   H     0.75676   0.57352   0.90577   0.00000  Uiso   1.00
H872   H     0.84594   0.48801   0.90098   0.00000  Uiso   1.00
H873   H     0.78914   0.54094   0.57259   0.00000  Uiso   1.00
H874   H     0.88511   0.46840   0.92822   0.00000  Uiso   1.00
H875   H     0.93170   0.42205   0.52328   0.00000  Uiso   1.00
H876   H     0.98436   0.47607   0.78589   0.00000  Uiso   1.00
H877   H     0.87485   0.33620   0.71606   0.00000  Uiso   1.00
H878   H     0.79056   0.66549   0.78404   0.00000  Uiso   1.00
H879   H     0.81603   0.50752   0.60189   0.00000  Uiso   1.00
H880   H     0.91458   0.43224   0.59497   0.00000  Uiso   1.00
H881   H     0.92030   0.43607   0.96301   0.00000  Uiso   1.00
H882   H     0.74217   0.58647   0.97693   0.00000  Uiso   1.00
N883   N     0.71566   0.54752   0.67963   0.00000  Uiso   1.00
O884   O     0.83333   0.50000   0.75000   0.00000  Uiso   1.00
O885   O     0.82360   0.45726   0.66625   0.00000  Uiso   1.00
O886   O     0.79354   0.53979   0.83749   0.00000  Uiso   1.00
O887   O     0.87755   0.50826   0.65877   0.00000  Uiso   1.00
O888   O     0.83865   0.49468   0.83749   0.00000  Uiso   1.00
O889   O     0.84515   0.41434   0.77821   0.00000  Uiso   1.00
O890   O     0.81247   0.59469   0.76767   0.00000  Uiso   1.00
O891   O     0.74119   0.46584   0.73607   0.00000  Uiso   1.00
O892   O     0.93452   0.52512   0.71806   0.00000  Uiso   1.00
O893   O     0.73656   0.52293   0.77820   0.00000  Uiso   1.00
O894   O     0.92106   0.48610   0.76768   0.00000  Uiso   1.00
O895   O     0.80467   0.40236   0.73607   0.00000  Uiso   1.00
O896   O     0.87104   0.58860   0.71806   0.00000  Uiso   1.00
Zn897  Zn    0.85910   0.47423   0.78278   0.00000  Uiso   1.00
Zn898  Zn    0.80125   0.45711   0.72258   0.00000  Uiso   1.00
Zn899  Zn    0.87833   0.52997   0.71188   0.00000  Uiso   1.00
Zn900  Zn    0.79465   0.53868   0.78277   0.00000  Uiso   1.00
C901   C     0.05244   0.82635   0.75915   0.00000  Uiso   1.00
C902   C     0.20694   0.80699   0.95966   0.00000  Uiso   1.00
C903   C     0.22818   0.78823   0.97966   0.00000  Uiso   1.00
C904   C     0.28114   0.84022   0.74099   0.00000  Uiso   1.00
C905   C     0.21728   0.79366   0.52036   0.00000  Uiso   1.00
C906   C     0.18429   0.81888   0.54193   0.00000  Uiso   1.00
C907   C     0.23966   0.77439   0.53968   0.00000  Uiso   1.00
C908   C     0.22994   0.77996   0.58033   0.00000  Uiso   1.00
C909   C     0.17437   0.82300   0.58320   0.00000  Uiso   1.00
C910   C     0.32740   0.84262   0.73656   0.00000  Uiso   1.00
C911   C     0.00724   0.82487   0.76189   0.00000  Uiso   1.00
C912   C     0.10708   0.89113   0.92030   0.00000  Uiso   1.00
C913   C     0.18095   0.98887   0.73807   0.00000  Uiso   1.00
C914   C     0.15151   0.67875   0.76199   0.00000  Uiso   1.00
C915   C     0.15595   0.72282   0.75883   0.00000  Uiso   1.00
C916   C     0.17687   0.94436   0.74133   0.00000  Uiso   1.00
C917   C     0.18835   0.81193   0.64415   0.00000  Uiso   1.00
C918   C     0.14544   0.85446   0.85608   0.00000  Uiso   1.00
C919   C     0.13657   0.86331   0.89890   0.00000  Uiso   1.00
C920   C     0.19728   0.80413   0.60191   0.00000  Uiso   1.00
C921   C     0.09884   0.89854   0.96086   0.00000  Uiso   1.00
C922   C     0.02462   0.86391   0.70489   0.00000  Uiso   1.00
C923   C     0.15798   0.84339   0.91845   0.00000  Uiso   1.00
C924   C     0.15117   0.85117   0.95933   0.00000  Uiso   1.00
C925   C     0.12038   0.87868   0.98050   0.00000  Uiso   1.00
C926   C     0.17359   0.83212   0.97971   0.00000  Uiso   1.00
C927   C     0.16284   0.83905   0.52149   0.00000  Uiso   1.00
C928   C     0.13159   0.86649   0.54131   0.00000  Uiso   1.00
C929   C     0.11117   0.88608   0.52110   0.00000  Uiso   1.00
H930   H     0.08769   0.90710   0.53751   0.00000  Uiso   1.00
H931   H     0.09010   0.90685   0.90577   0.00000  Uiso   1.00
H932   H     0.17927   0.82134   0.90098   0.00000  Uiso   1.00
H933   H     0.12248   0.87428   0.57259   0.00000  Uiso   1.00
H934   H     0.21845   0.80173   0.92822   0.00000  Uiso   1.00
H935   H     0.26504   0.75539   0.52328   0.00000  Uiso   1.00
H936   H     0.31769   0.80941   0.78589   0.00000  Uiso   1.00
H937   H     0.20818   0.66954   0.71606   0.00000  Uiso   1.00
H938   H     0.12389   0.99882   0.78404   0.00000  Uiso   1.00
H939   H     0.14936   0.84086   0.60189   0.00000  Uiso   1.00
H940   H     0.24792   0.76557   0.59497   0.00000  Uiso   1.00
H941   H     0.25364   0.76940   0.96301   0.00000  Uiso   1.00
H942   H     0.07550   0.91981   0.97693   0.00000  Uiso   1.00
N943   N     0.04899   0.88086   0.67963   0.00000  Uiso   1.00
O944   O     0.16667   0.83333   0.75000   0.00000  Uiso   1.00
O945   O     0.15693   0.79060   0.66625   0.00000  Uiso   1.00
O946   O     0.12687   0.87313   0.83749   0.00000  Uiso   1.00
O947   O     0.21088   0.84159   0.65877   0.00000  Uiso   1.00
O948   O     0.17198   0.82802   0.83749   0.00000  Uiso   1.00
O949   O     0.17849   0.74768   0.77821   0.00000  Uiso   1.00
O950   O     0.14581   0.92803   0.76767   0.00000  Uiso   1.00
O951   O     0.07452   0.79917   0.73607   0.00000  Uiso   1.00
O952   O     0.26785   0.85845   0.71806   0.00000  Uiso   1.00
O953   O     0.06990   0.85627   0.77820   0.00000  Uiso   1.00
O954   O     0.25440   0.81944   0.76768   0.00000  Uiso   1.00
O955   O     0.13800   0.73570   0.73607   0.00000  Uiso   1.00
O956   O     0.20437   0.92193   0.71806   0.00000  Uiso   1.00
Zn957  Zn    0.19244   0.80756   0.78278   0.00000  Uiso   1.00
Zn958  Zn    0.13459   0.79044   0.72258   0.00000  Uiso   1.00
Zn959  Zn    0.21166   0.86331   0.71188   0.00000  Uiso   1.00
Zn960  Zn    0.12798   0.87202   0.78277   0.00000  Uiso   1.00
C961   C     0.38577   0.82635   0.75915   0.00000  Uiso   1.00
C962   C     0.54027   0.80699   0.95966   0.00000  Uiso   1.00
C963   C     0.56152   0.78823   0.97966   0.00000  Uiso   1.00
C964   C     0.61447   0.84022   0.74099   0.00000  Uiso   1.00
C965   C     0.55061   0.79366   0.52036   0.00000  Uiso   1.00
C966   C     0.51763   0.81888   0.54193   0.00000  Uiso   1.00
C967   C     0.57299   0.77439   0.53968   0.00000  Uiso   1.00
C968   C     0.56328   0.77996   0.58033   0.00000  Uiso   1.00
C969   C     0.50770   0.82300   0.58320   0.00000  Uiso   1.00
C970   C     0.66074   0.84262   0.73656   0.00000  Uiso   1.00
C971   C     0.34057   0.82487   0.76189   0.00000  Uiso   1.00
C972   C     0.44042   0.89113   0.92030   0.00000  Uiso   1.00
C973   C     0.51429   0.98887   0.73807   0.00000  Uiso   1.00
C974   C     0.48485   0.67875   0.76199   0.00000  Uiso   1.00
C975   C     0.48928   0.72282   0.75883   0.00000  Uiso   1.00
C976   C     0.51021   0.94436   0.74133   0.00000  Uiso   1.00
C977   C     0.52168   0.81193   0.64415   0.00000  Uiso   1.00
C978   C     0.47877   0.85446   0.85608   0.00000  Uiso   1.00
C979   C     0.46991   0.86331   0.89890   0.00000  Uiso   1.00
C980   C     0.53061   0.80413   0.60191   0.00000  Uiso   1.00
C981   C     0.43217   0.89854   0.96086   0.00000  Uiso   1.00
C982   C     0.35795   0.86391   0.70489   0.00000  Uiso   1.00
C983   C     0.49132   0.84339   0.91845   0.00000  Uiso   1.00
C984   C     0.48450   0.85117   0.95933   0.00000  Uiso   1.00
C985   C     0.45371   0.87868   0.98050   0.00000  Uiso   1.00
C986   C     0.50693   0.83212   0.97971   0.00000  Uiso   1.00
C987   C     0.49617   0.83905   0.52149   0.00000  Uiso   1.00
C988   C     0.46493   0.86649   0.54131   0.00000  Uiso   1.00
C989   C     0.44450   0.88608   0.52110   0.00000  Uiso   1.00
H990   H     0.42103   0.90710   0.53751   0.00000  Uiso   1.00
H991   H     0.42343   0.90685   0.90577   0.00000  Uiso   1.00
H992   H     0.51260   0.82134   0.90098   0.00000  Uiso   1.00
H993   H     0.45581   0.87428   0.57259   0.00000  Uiso   1.00
H994   H     0.55178   0.80173   0.92822   0.00000  Uiso   1.00
H995   H     0.59837   0.75539   0.52328   0.00000  Uiso   1.00
H996   H     0.65102   0.80941   0.78589   0.00000  Uiso   1.00
H997   H     0.54151   0.66954   0.71606   0.00000  Uiso   1.00
H998   H     0.45723   0.99882   0.78404   0.00000  Uiso   1.00
H999   H     0.48270   0.84086   0.60189   0.00000  Uiso   1.00
H1000  H     0.58125   0.76557   0.59497   0.00000  Uiso   1.00
H1001  H     0.58697   0.76940   0.96301   0.00000  Uiso   1.00
H1002  H     0.40883   0.91981   0.97693   0.00000  Uiso   1.00
N1003  N     0.38233   0.88086   0.67963   0.00000  Uiso   1.00
O1004  O     0.50000   0.83333   0.75000   0.00000  Uiso   1.00
O1005  O     0.49027   0.79060   0.66625   0.00000  Uiso   1.00
O1006  O     0.46020   0.87313   0.83749   0.00000  Uiso   1.00
O1007  O     0.54421   0.84159   0.65877   0.00000  Uiso   1.00
O1008  O     0.50532   0.82802   0.83749   0.00000  Uiso   1.00
O1009  O     0.51182   0.74768   0.77821   0.00000  Uiso   1.00
O1010  O     0.47914   0.92803   0.76767   0.00000  Uiso   1.00
O1011  O     0.40785   0.79917   0.73607   0.00000  Uiso   1.00
O1012  O     0.60119   0.85845   0.71806   0.00000  Uiso   1.00
O1013  O     0.40323   0.85627   0.77820   0.00000  Uiso   1.00
O1014  O     0.58773   0.81944   0.76768   0.00000  Uiso   1.00
O1015  O     0.47133   0.73570   0.73607   0.00000  Uiso   1.00
O1016  O     0.53771   0.92193   0.71806   0.00000  Uiso   1.00
Zn1017 Zn    0.52577   0.80756   0.78278   0.00000  Uiso   1.00
Zn1018 Zn    0.46792   0.79044   0.72258   0.00000  Uiso   1.00
Zn1019 Zn    0.54500   0.86331   0.71188   0.00000  Uiso   1.00
Zn1020 Zn    0.46131   0.87202   0.78277   0.00000  Uiso   1.00
C1021  C     0.71910   0.82635   0.75915   0.00000  Uiso   1.00
C1022  C     0.87361   0.80699   0.95966   0.00000  Uiso   1.00
C1023  C     0.89485   0.78823   0.97966   0.00000  Uiso   1.00
C1024  C     0.94781   0.84022   0.74099   0.00000  Uiso   1.00
C1025  C     0.88395   0.79366   0.52036   0.00000  Uiso   1.00
C1026  C     0.85096   0.81888   0.54193   0.00000  Uiso   1.00
C1027  C     0.90633   0.77439   0.53968   0.00000  Uiso   1.00
C1028  C     0.89661   0.77996   0.58033   0.00000  Uiso   1.00
C1029  C     0.84104   0.82300   0.58320   0.00000  Uiso   1.00
C1030  C     0.99407   0.84262   0.73656   0.00000  Uiso   1.00
C1031  C     0.67391   0.82487   0.76189   0.00000  Uiso   1.00
C1032  C     0.77375   0.89113   0.92030   0.00000  Uiso   1.00
C1033  C     0.84762   0.98887   0.73807   0.00000  Uiso   1.00
C1034  C     0.81818   0.67875   0.76199   0.00000  Uiso   1.00
C1035  C     0.82261   0.72282   0.75883   0.00000  Uiso   1.00
C1036  C     0.84354   0.94436   0.74133   0.00000  Uiso   1.00
C1037  C     0.85502   0.81193   0.64415   0.00000  Uiso   1.00
C1038  C     0.81211   0.85446   0.85608   0.00000  Uiso   1.00
C1039  C     0.80324   0.86331   0.89890   0.00000  Uiso   1.00
C1040  C     0.86395   0.80413   0.60191   0.00000  Uiso   1.00
C1041  C     0.76550   0.89854   0.96086   0.00000  Uiso   1.00
C1042  C     0.69128   0.86391   0.70489   0.00000  Uiso   1.00
C1043  C     0.82465   0.84339   0.91845   0.00000  Uiso   1.00
C1044  C     0.81783   0.85117   0.95933   0.00000  Uiso   1.00
C1045  C     0.78705   0.87868   0.98050   0.00000  Uiso   1.00
C1046  C     0.84026   0.83212   0.97971   0.00000  Uiso   1.00
C1047  C     0.82950   0.83905   0.52149   0.00000  Uiso   1.00
C1048  C     0.79826   0.86649   0.54131   0.00000  Uiso   1.00
C1049  C     0.77784   0.88608   0.52110   0.00000  Uiso   1.00
H1050  H     0.75436   0.90710   0.53751   0.00000  Uiso   1.00
H1051  H     0.75676   0.90685   0.90577   0.00000  Uiso   1.00
H1052  H     0.84594   0.82134   0.90098   0.00000  Uiso   1.00
H1053  H     0.78914   0.87428   0.57259   0.00000  Uiso   1.00
H1054  H     0.88511   0.80173   0.92822   0.00000  Uiso   1.00
H1055  H     0.93170   0.75539   0.52328   0.00000  Uiso   1.00
H1056  H     0.98436   0.80941   0.78589   0.00000  Uiso   1.00
H1057  H     0.87485   0.66954   0.71606   0.00000  Uiso   1.00
H1058  H     0.79056   0.99882   0.78404   0.00000  Uiso   1.00
H1059  H     0.81603   0.84086   0.60189   0.00000  Uiso   1.00
H1060  H     0.91458   0.76557   0.59497   0.00000  Uiso   1.00
H1061  H     0.92030   0.76940   0.96301   0.00000  Uiso   1.00
H1062  H     0.74217   0.91981   0.97693   0.00000  Uiso   1.00
N1063  N     0.71566   0.88086   0.67963   0.00000  Uiso   1.00
O1064  O     0.83333   0.83333   0.75000   0.00000  Uiso   1.00
O1065  O     0.82360   0.79060   0.66625   0.00000  Uiso   1.00
O1066  O     0.79354   0.87313   0.83749   0.00000  Uiso   1.00
O1067  O     0.87755   0.84159   0.65877   0.00000  Uiso   1.00
O1068  O     0.83865   0.82802   0.83749   0.00000  Uiso   1.00
O1069  O     0.84515   0.74768   0.77821   0.00000  Uiso   1.00
O1070  O     0.81247   0.92803   0.76767   0.00000  Uiso   1.00
O1071  O     0.74119   0.79917   0.73607   0.00000  Uiso   1.00
O1072  O     0.93452   0.85845   0.71806   0.00000  Uiso   1.00
O1073  O     0.73656   0.85627   0.77820   0.00000  Uiso   1.00
O1074  O     0.92106   0.81944   0.76768   0.00000  Uiso   1.00
O1075  O     0.80467   0.73570   0.73607   0.00000  Uiso   1.00
O1076  O     0.87104   0.92193   0.71806   0.00000  Uiso   1.00
Zn1077 Zn    0.85910   0.80756   0.78278   0.00000  Uiso   1.00
Zn1078 Zn    0.80125   0.79044   0.72258   0.00000  Uiso   1.00
Zn1079 Zn    0.87833   0.86331   0.71188   0.00000  Uiso   1.00
Zn1080 Zn    0.79465   0.87202   0.78277   0.00000  Uiso   1.00
loop_
_geom_bond_atom_site_label_1
_geom_bond_atom_site_label_2
_geom_bond_distance
_geom_bond_site_symmetry_2
_ccdc_geom_bond_type
C1     C11     1.441   .     S
C1     O51     1.271   .     A
C1     O53     1.270   .     A
C2     H34     1.075   .     S
C2     C3      1.384   .     A
C2     C26     1.416   .     A
C3     H41     1.085   .     S
C3     C545    1.389   .     S
C4     O52     1.283   .     A
C4     O54     1.283   .     A
C4     C10     1.460   .     S
C5     C6      1.421   .     A
C5     C7      1.403   .     A
C5     C543    1.389   1_554 S
C6     C27     1.428   .     A
C6     C9      1.411   .     A
C7     C8      1.389   .     A
C7     H35     1.084   .     S
C8     C20     1.394   .     A
C8     H40     1.083   .     S
C9     C20     1.392   .     A
C9     H39     1.077   .     S
C10    C71     1.342   .     S
C10    C82     1.452   .     S
C11    C130    1.342   1_455 S
C11    H156    1.086   1_455 S
C12    C19     1.400   .     A
C12    H31     1.083   .     S
C12    C21     1.392   .     A
C13    C16     1.452   .     S
C13    C194    1.332   .     S
C13    H217    1.088   .     S
C14    C15     1.436   .     S
C14    C373    1.332   1_545 S
C14    H398    1.086   1_545 S
C15    O55     1.281   .     A
C15    O49     1.281   .     A
C16    O56     1.270   .     A
C16    O50     1.270   .     A
C17    O45     1.273   .     A
C17    O47     1.271   .     A
C17    C20     1.449   .     S
C18    O46     1.283   .     A
C18    C19     1.471   .     S
C18    O48     1.285   .     A
C19    C23     1.399   .     A
C21    H42     1.084   .     S
C21    C25     1.403   .     A
C22    N43     1.157   .     T
C22    C130    1.452   1_455 S
C23    C24     1.408   .     A
C23    H32     1.074   .     S
C24    C26     1.427   .     A
C24    C25     1.418   .     A
C25    C569    1.390   .     S
C26    C567    1.427   .     S
C27    C28     1.416   .     A
C27    C566    1.427   1_554 S
C28    H33     1.076   .     S
C28    C29     1.387   .     A
C29    H30     1.084   .     S
C29    C565    1.390   1_554 S
H36    C71     1.086   .     S
H37    C373    1.088   1_545 S
H38    C194    1.086   .     S
O44    Zn57    1.968   .     S
O44    Zn60    1.933   .     S
O44    Zn59    1.931   .     S
O44    Zn58    1.946   .     S
O45    Zn58    1.935   .     S
O46    Zn60    1.949   .     S
O47    Zn59    1.942   .     S
O48    Zn57    1.931   .     S
O49    Zn57    1.927   .     S
O50    Zn60    1.929   .     S
O51    Zn58    1.928   .     S
O52    Zn59    1.941   .     S
O53    Zn60    1.935   .     S
O54    Zn57    1.923   .     S
O55    Zn58    1.937   .     S
O56    Zn59    1.930   .     S
C61    C71     1.441   .     S
C61    O111    1.271   .     A
C61    O113    1.270   .     A
C62    H94     1.075   .     S
C62    C63     1.384   .     A
C62    C86     1.416   .     A
C63    H101    1.085   .     S
C63    C605    1.389   .     S
C64    O112    1.283   .     A
C64    O114    1.283   .     A
C64    C70     1.460   .     S
C65    C66     1.421   .     A
C65    C67     1.403   .     A
C65    C603    1.389   1_554 S
C66    C87     1.428   .     A
C66    C69     1.411   .     A
C67    C68     1.389   .     A
C67    H95     1.084   .     S
C68    C80     1.394   .     A
C68    H100    1.083   .     S
C69    C80     1.392   .     A
C69    H99     1.077   .     S
C70    C131    1.342   .     S
C70    C142    1.452   .     S
C72    C79     1.400   .     A
C72    H91     1.083   .     S
C72    C81     1.392   .     A
C73    C76     1.452   .     S
C73    C254    1.332   .     S
C73    H277    1.088   .     S
C74    C75     1.436   .     S
C74    C433    1.332   1_545 S
C74    H458    1.086   1_545 S
C75    O115    1.281   .     A
C75    O109    1.281   .     A
C76    O116    1.270   .     A
C76    O110    1.270   .     A
C77    O105    1.273   .     A
C77    O107    1.271   .     A
C77    C80     1.449   .     S
C78    O106    1.283   .     A
C78    C79     1.471   .     S
C78    O108    1.285   .     A
C79    C83     1.399   .     A
C81    H102    1.084   .     S
C81    C85     1.403   .     A
C82    N103    1.157   .     T
C83    C84     1.408   .     A
C83    H92     1.074   .     S
C84    C86     1.427   .     A
C84    C85     1.418   .     A
C85    C629    1.390   .     S
C86    C627    1.427   .     S
C87    C88     1.416   .     A
C87    C626    1.427   1_554 S
C88    H93     1.076   .     S
C88    C89     1.387   .     A
C89    H90     1.084   .     S
C89    C625    1.390   1_554 S
H96    C131    1.086   .     S
H97    C433    1.088   1_545 S
H98    C254    1.086   .     S
O104   Zn117   1.968   .     S
O104   Zn120   1.933   .     S
O104   Zn119   1.931   .     S
O104   Zn118   1.946   .     S
O105   Zn118   1.935   .     S
O106   Zn120   1.949   .     S
O107   Zn119   1.942   .     S
O108   Zn117   1.931   .     S
O109   Zn117   1.927   .     S
O110   Zn120   1.929   .     S
O111   Zn118   1.928   .     S
O112   Zn119   1.941   .     S
O113   Zn120   1.935   .     S
O114   Zn117   1.923   .     S
O115   Zn118   1.937   .     S
O116   Zn119   1.930   .     S
C121   C131    1.441   .     S
C121   O171    1.271   .     A
C121   O173    1.270   .     A
C122   H154    1.075   .     S
C122   C123    1.384   .     A
C122   C146    1.416   .     A
C123   H161    1.085   .     S
C123   C665    1.389   .     S
C124   O172    1.283   .     A
C124   O174    1.283   .     A
C124   C130    1.460   .     S
C125   C126    1.421   .     A
C125   C127    1.403   .     A
C125   C663    1.389   1_554 S
C126   C147    1.428   .     A
C126   C129    1.411   .     A
C127   C128    1.389   .     A
C127   H155    1.084   .     S
C128   C140    1.394   .     A
C128   H160    1.083   .     S
C129   C140    1.392   .     A
C129   H159    1.077   .     S
C130   C11     1.342   1_655 S
C130   C22     1.452   1_655 S
C132   C139    1.400   .     A
C132   H151    1.083   .     S
C132   C141    1.392   .     A
C133   C136    1.452   .     S
C133   C314    1.332   .     S
C133   H337    1.088   .     S
C134   C135    1.436   .     S
C134   C493    1.332   1_545 S
C134   H518    1.086   1_545 S
C135   O175    1.281   .     A
C135   O169    1.281   .     A
C136   O176    1.270   .     A
C136   O170    1.270   .     A
C137   O165    1.273   .     A
C137   O167    1.271   .     A
C137   C140    1.449   .     S
C138   O166    1.283   .     A
C138   C139    1.471   .     S
C138   O168    1.285   .     A
C139   C143    1.399   .     A
C141   H162    1.084   .     S
C141   C145    1.403   .     A
C142   N163    1.157   .     T
C143   C144    1.408   .     A
C143   H152    1.074   .     S
C144   C146    1.427   .     A
C144   C145    1.418   .     A
C145   C689    1.390   .     S
C146   C687    1.427   .     S
C147   C148    1.416   .     A
C147   C686    1.427   1_554 S
C148   H153    1.076   .     S
C148   C149    1.387   .     A
C149   H150    1.084   .     S
C149   C685    1.390   1_554 S
H156   C11     1.086   1_655 S
H157   C493    1.088   1_545 S
H158   C314    1.086   .     S
O164   Zn177   1.968   .     S
O164   Zn180   1.933   .     S
O164   Zn179   1.931   .     S
O164   Zn178   1.946   .     S
O165   Zn178   1.935   .     S
O166   Zn180   1.949   .     S
O167   Zn179   1.942   .     S
O168   Zn177   1.931   .     S
O169   Zn177   1.927   .     S
O170   Zn180   1.929   .     S
O171   Zn178   1.928   .     S
O172   Zn179   1.941   .     S
O173   Zn180   1.935   .     S
O174   Zn177   1.923   .     S
O175   Zn178   1.937   .     S
O176   Zn179   1.930   .     S
C181   C191    1.441   .     S
C181   O231    1.271   .     A
C181   O233    1.270   .     A
C182   H214    1.075   .     S
C182   C183    1.384   .     A
C182   C206    1.416   .     A
C183   H221    1.085   .     S
C183   C725    1.389   .     S
C184   O232    1.283   .     A
C184   O234    1.283   .     A
C184   C190    1.460   .     S
C185   C186    1.421   .     A
C185   C187    1.403   .     A
C185   C723    1.389   1_554 S
C186   C207    1.428   .     A
C186   C189    1.411   .     A
C187   C188    1.389   .     A
C187   H215    1.084   .     S
C188   C200    1.394   .     A
C188   H220    1.083   .     S
C189   C200    1.392   .     A
C189   H219    1.077   .     S
C190   C251    1.342   .     S
C190   C262    1.452   .     S
C191   C310    1.342   1_455 S
C191   H336    1.086   1_455 S
C192   C199    1.400   .     A
C192   H211    1.083   .     S
C192   C201    1.392   .     A
C193   C196    1.452   .     S
C193   C374    1.332   .     S
C193   H397    1.088   .     S
C194   C195    1.436   .     S
C195   O235    1.281   .     A
C195   O229    1.281   .     A
C196   O236    1.270   .     A
C196   O230    1.270   .     A
C197   O225    1.273   .     A
C197   O227    1.271   .     A
C197   C200    1.449   .     S
C198   O226    1.283   .     A
C198   C199    1.471   .     S
C198   O228    1.285   .     A
C199   C203    1.399   .     A
C201   H222    1.084   .     S
C201   C205    1.403   .     A
C202   N223    1.157   .     T
C202   C310    1.452   1_455 S
C203   C204    1.408   .     A
C203   H212    1.074   .     S
C204   C206    1.427   .     A
C204   C205    1.418   .     A
C205   C749    1.390   .     S
C206   C747    1.427   .     S
C207   C208    1.416   .     A
C207   C746    1.427   1_554 S
C208   H213    1.076   .     S
C208   C209    1.387   .     A
C209   H210    1.084   .     S
C209   C745    1.390   1_554 S
H216   C251    1.086   .     S
H218   C374    1.086   .     S
O224   Zn237   1.968   .     S
O224   Zn240   1.933   .     S
O224   Zn239   1.931   .     S
O224   Zn238   1.946   .     S
O225   Zn238   1.935   .     S
O226   Zn240   1.949   .     S
O227   Zn239   1.942   .     S
O228   Zn237   1.931   .     S
O229   Zn237   1.927   .     S
O230   Zn240   1.929   .     S
O231   Zn238   1.928   .     S
O232   Zn239   1.941   .     S
O233   Zn240   1.935   .     S
O234   Zn237   1.923   .     S
O235   Zn238   1.937   .     S
O236   Zn239   1.930   .     S
C241   C251    1.441   .     S
C241   O291    1.271   .     A
C241   O293    1.270   .     A
C242   H274    1.075   .     S
C242   C243    1.384   .     A
C242   C266    1.416   .     A
C243   H281    1.085   .     S
C243   C785    1.389   .     S
C244   O292    1.283   .     A
C244   O294    1.283   .     A
C244   C250    1.460   .     S
C245   C246    1.421   .     A
C245   C247    1.403   .     A
C245   C783    1.389   1_554 S
C246   C267    1.428   .     A
C246   C249    1.411   .     A
C247   C248    1.389   .     A
C247   H275    1.084   .     S
C248   C260    1.394   .     A
C248   H280    1.083   .     S
C249   C260    1.392   .     A
C249   H279    1.077   .     S
C250   C311    1.342   .     S
C250   C322    1.452   .     S
C252   C259    1.400   .     A
C252   H271    1.083   .     S
C252   C261    1.392   .     A
C253   C256    1.452   .     S
C253   C434    1.332   .     S
C253   H457    1.088   .     S
C254   C255    1.436   .     S
C255   O295    1.281   .     A
C255   O289    1.281   .     A
C256   O296    1.270   .     A
C256   O290    1.270   .     A
C257   O285    1.273   .     A
C257   O287    1.271   .     A
C257   C260    1.449   .     S
C258   O286    1.283   .     A
C258   C259    1.471   .     S
C258   O288    1.285   .     A
C259   C263    1.399   .     A
C261   H282    1.084   .     S
C261   C265    1.403   .     A
C262   N283    1.157   .     T
C263   C264    1.408   .     A
C263   H272    1.074   .     S
C264   C266    1.427   .     A
C264   C265    1.418   .     A
C265   C809    1.390   .     S
C266   C807    1.427   .     S
C267   C268    1.416   .     A
C267   C806    1.427   1_554 S
C268   H273    1.076   .     S
C268   C269    1.387   .     A
C269   H270    1.084   .     S
C269   C805    1.390   1_554 S
H276   C311    1.086   .     S
H278   C434    1.086   .     S
O284   Zn297   1.968   .     S
O284   Zn300   1.933   .     S
O284   Zn299   1.931   .     S
O284   Zn298   1.946   .     S
O285   Zn298   1.935   .     S
O286   Zn300   1.949   .     S
O287   Zn299   1.942   .     S
O288   Zn297   1.931   .     S
O289   Zn297   1.927   .     S
O290   Zn300   1.929   .     S
O291   Zn298   1.928   .     S
O292   Zn299   1.941   .     S
O293   Zn300   1.935   .     S
O294   Zn297   1.923   .     S
O295   Zn298   1.937   .     S
O296   Zn299   1.930   .     S
C301   C311    1.441   .     S
C301   O351    1.271   .     A
C301   O353    1.270   .     A
C302   H334    1.075   .     S
C302   C303    1.384   .     A
C302   C326    1.416   .     A
C303   H341    1.085   .     S
C303   C845    1.389   .     S
C304   O352    1.283   .     A
C304   O354    1.283   .     A
C304   C310    1.460   .     S
C305   C306    1.421   .     A
C305   C307    1.403   .     A
C305   C843    1.389   1_554 S
C306   C327    1.428   .     A
C306   C309    1.411   .     A
C307   C308    1.389   .     A
C307   H335    1.084   .     S
C308   C320    1.394   .     A
C308   H340    1.083   .     S
C309   C320    1.392   .     A
C309   H339    1.077   .     S
C310   C191    1.342   1_655 S
C310   C202    1.452   1_655 S
C312   C319    1.400   .     A
C312   H331    1.083   .     S
C312   C321    1.392   .     A
C313   C316    1.452   .     S
C313   C494    1.332   .     S
C313   H517    1.088   .     S
C314   C315    1.436   .     S
C315   O355    1.281   .     A
C315   O349    1.281   .     A
C316   O356    1.270   .     A
C316   O350    1.270   .     A
C317   O345    1.273   .     A
C317   O347    1.271   .     A
C317   C320    1.449   .     S
C318   O346    1.283   .     A
C318   C319    1.471   .     S
C318   O348    1.285   .     A
C319   C323    1.399   .     A
C321   H342    1.084   .     S
C321   C325    1.403   .     A
C322   N343    1.157   .     T
C323   C324    1.408   .     A
C323   H332    1.074   .     S
C324   C326    1.427   .     A
C324   C325    1.418   .     A
C325   C869    1.390   .     S
C326   C867    1.427   .     S
C327   C328    1.416   .     A
C327   C866    1.427   1_554 S
C328   H333    1.076   .     S
C328   C329    1.387   .     A
C329   H330    1.084   .     S
C329   C865    1.390   1_554 S
H336   C191    1.086   1_655 S
H338   C494    1.086   .     S
O344   Zn357   1.968   .     S
O344   Zn360   1.933   .     S
O344   Zn359   1.931   .     S
O344   Zn358   1.946   .     S
O345   Zn358   1.935   .     S
O346   Zn360   1.949   .     S
O347   Zn359   1.942   .     S
O348   Zn357   1.931   .     S
O349   Zn357   1.927   .     S
O350   Zn360   1.929   .     S
O351   Zn358   1.928   .     S
O352   Zn359   1.941   .     S
O353   Zn360   1.935   .     S
O354   Zn357   1.923   .     S
O355   Zn358   1.937   .     S
O356   Zn359   1.930   .     S
C361   C371    1.441   .     S
C361   O411    1.271   .     A
C361   O413    1.270   .     A
C362   H394    1.075   .     S
C362   C363    1.384   .     A
C362   C386    1.416   .     A
C363   H401    1.085   .     S
C363   C905    1.389   .     S
C364   O412    1.283   .     A
C364   O414    1.283   .     A
C364   C370    1.460   .     S
C365   C366    1.421   .     A
C365   C367    1.403   .     A
C365   C903    1.389   1_554 S
C366   C387    1.428   .     A
C366   C369    1.411   .     A
C367   C368    1.389   .     A
C367   H395    1.084   .     S
C368   C380    1.394   .     A
C368   H400    1.083   .     S
C369   C380    1.392   .     A
C369   H399    1.077   .     S
C370   C431    1.342   .     S
C370   C442    1.452   .     S
C371   C490    1.342   1_455 S
C371   H516    1.086   1_455 S
C372   C379    1.400   .     A
C372   H391    1.083   .     S
C372   C381    1.392   .     A
C373   C376    1.452   .     S
C373   C14     1.332   1_565 S
C373   H37     1.088   1_565 S
C374   C375    1.436   .     S
C375   O415    1.281   .     A
C375   O409    1.281   .     A
C376   O416    1.270   .     A
C376   O410    1.270   .     A
C377   O405    1.273   .     A
C377   O407    1.271   .     A
C377   C380    1.449   .     S
C378   O406    1.283   .     A
C378   C379    1.471   .     S
C378   O408    1.285   .     A
C379   C383    1.399   .     A
C381   H402    1.084   .     S
C381   C385    1.403   .     A
C382   N403    1.157   .     T
C382   C490    1.452   1_455 S
C383   C384    1.408   .     A
C383   H392    1.074   .     S
C384   C386    1.427   .     A
C384   C385    1.418   .     A
C385   C929    1.390   .     S
C386   C927    1.427   .     S
C387   C388    1.416   .     A
C387   C926    1.427   1_554 S
C388   H393    1.076   .     S
C388   C389    1.387   .     A
C389   H390    1.084   .     S
C389   C925    1.390   1_554 S
H396   C431    1.086   .     S
H398   C14     1.086   1_565 S
O404   Zn417   1.968   .     S
O404   Zn420   1.933   .     S
O404   Zn419   1.931   .     S
O404   Zn418   1.946   .     S
O405   Zn418   1.935   .     S
O406   Zn420   1.949   .     S
O407   Zn419   1.942   .     S
O408   Zn417   1.931   .     S
O409   Zn417   1.927   .     S
O410   Zn420   1.929   .     S
O411   Zn418   1.928   .     S
O412   Zn419   1.941   .     S
O413   Zn420   1.935   .     S
O414   Zn417   1.923   .     S
O415   Zn418   1.937   .     S
O416   Zn419   1.930   .     S
C421   C431    1.441   .     S
C421   O471    1.271   .     A
C421   O473    1.270   .     A
C422   H454    1.075   .     S
C422   C423    1.384   .     A
C422   C446    1.416   .     A
C423   H461    1.085   .     S
C423   C965    1.389   .     S
C424   O472    1.283   .     A
C424   O474    1.283   .     A
C424   C430    1.460   .     S
C425   C426    1.421   .     A
C425   C427    1.403   .     A
C425   C963    1.389   1_554 S
C426   C447    1.428   .     A
C426   C429    1.411   .     A
C427   C428    1.389   .     A
C427   H455    1.084   .     S
C428   C440    1.394   .     A
C428   H460    1.083   .     S
C429   C440    1.392   .     A
C429   H459    1.077   .     S
C430   C491    1.342   .     S
C430   C502    1.452   .     S
C432   C439    1.400   .     A
C432   H451    1.083   .     S
C432   C441    1.392   .     A
C433   C436    1.452   .     S
C433   C74     1.332   1_565 S
C433   H97     1.088   1_565 S
C434   C435    1.436   .     S
C435   O475    1.281   .     A
C435   O469    1.281   .     A
C436   O476    1.270   .     A
C436   O470    1.270   .     A
C437   O465    1.273   .     A
C437   O467    1.271   .     A
C437   C440    1.449   .     S
C438   O466    1.283   .     A
C438   C439    1.471   .     S
C438   O468    1.285   .     A
C439   C443    1.399   .     A
C441   H462    1.084   .     S
C441   C445    1.403   .     A
C442   N463    1.157   .     T
C443   C444    1.408   .     A
C443   H452    1.074   .     S
C444   C446    1.427   .     A
C444   C445    1.418   .     A
C445   C989    1.390   .     S
C446   C987    1.427   .     S
C447   C448    1.416   .     A
C447   C986    1.427   1_554 S
C448   H453    1.076   .     S
C448   C449    1.387   .     A
C449   H450    1.084   .     S
C449   C985    1.390   1_554 S
H456   C491    1.086   .     S
H458   C74     1.086   1_565 S
O464   Zn477   1.968   .     S
O464   Zn480   1.933   .     S
O464   Zn479   1.931   .     S
O464   Zn478   1.946   .     S
O465   Zn478   1.935   .     S
O466   Zn480   1.949   .     S
O467   Zn479   1.942   .     S
O468   Zn477   1.931   .     S
O469   Zn477   1.927   .     S
O470   Zn480   1.929   .     S
O471   Zn478   1.928   .     S
O472   Zn479   1.941   .     S
O473   Zn480   1.935   .     S
O474   Zn477   1.923   .     S
O475   Zn478   1.937   .     S
O476   Zn479   1.930   .     S
C481   C491    1.441   .     S
C481   O531    1.271   .     A
C481   O533    1.270   .     A
C482   H514    1.075   .     S
C482   C483    1.384   .     A
C482   C506    1.416   .     A
C483   H521    1.085   .     S
C483   C1025   1.389   .     S
C484   O532    1.283   .     A
C484   O534    1.283   .     A
C484   C490    1.460   .     S
C485   C486    1.421   .     A
C485   C487    1.403   .     A
C485   C1023   1.389   1_554 S
C486   C507    1.428   .     A
C486   C489    1.411   .     A
C487   C488    1.389   .     A
C487   H515    1.084   .     S
C488   C500    1.394   .     A
C488   H520    1.083   .     S
C489   C500    1.392   .     A
C489   H519    1.077   .     S
C490   C371    1.342   1_655 S
C490   C382    1.452   1_655 S
C492   C499    1.400   .     A
C492   H511    1.083   .     S
C492   C501    1.392   .     A
C493   C496    1.452   .     S
C493   C134    1.332   1_565 S
C493   H157    1.088   1_565 S
C494   C495    1.436   .     S
C495   O535    1.281   .     A
C495   O529    1.281   .     A
C496   O536    1.270   .     A
C496   O530    1.270   .     A
C497   O525    1.273   .     A
C497   O527    1.271   .     A
C497   C500    1.449   .     S
C498   O526    1.283   .     A
C498   C499    1.471   .     S
C498   O528    1.285   .     A
C499   C503    1.399   .     A
C501   H522    1.084   .     S
C501   C505    1.403   .     A
C502   N523    1.157   .     T
C503   C504    1.408   .     A
C503   H512    1.074   .     S
C504   C506    1.427   .     A
C504   C505    1.418   .     A
C505   C1049   1.390   .     S
C506   C1047   1.427   .     S
C507   C508    1.416   .     A
C507   C1046   1.427   1_554 S
C508   H513    1.076   .     S
C508   C509    1.387   .     A
C509   H510    1.084   .     S
C509   C1045   1.390   1_554 S
H516   C371    1.086   1_655 S
H518   C134    1.086   1_565 S
O524   Zn537   1.968   .     S
O524   Zn540   1.933   .     S
O524   Zn539   1.931   .     S
O524   Zn538   1.946   .     S
O525   Zn538   1.935   .     S
O526   Zn540   1.949   .     S
O527   Zn539   1.942   .     S
O528   Zn537   1.931   .     S
O529   Zn537   1.927   .     S
O530   Zn540   1.929   .     S
O531   Zn538   1.928   .     S
O532   Zn539   1.941   .     S
O533   Zn540   1.935   .     S
O534   Zn537   1.923   .     S
O535   Zn538   1.937   .     S
O536   Zn539   1.930   .     S
C541   C551    1.441   .     S
C541   O591    1.271   .     A
C541   O593    1.270   .     A
C542   H574    1.075   .     S
C542   C543    1.384   .     A
C542   C566    1.416   .     A
C543   H581    1.085   .     S
C543   C5      1.389   1_556 S
C544   O592    1.283   .     A
C544   O594    1.283   .     A
C544   C550    1.460   .     S
C545   C546    1.421   .     A
C545   C547    1.403   .     A
C546   C567    1.428   .     A
C546   C549    1.411   .     A
C547   C548    1.389   .     A
C547   H575    1.084   .     S
C548   C560    1.394   .     A
C548   H580    1.083   .     S
C549   C560    1.392   .     A
C549   H579    1.077   .     S
C550   C611    1.342   .     S
C550   C622    1.452   .     S
C551   C670    1.342   1_455 S
C551   H696    1.086   1_455 S
C552   C559    1.400   .     A
C552   H571    1.083   .     S
C552   C561    1.392   .     A
C553   C556    1.452   .     S
C553   C734    1.332   .     S
C553   H757    1.088   .     S
C554   C555    1.436   .     S
C554   C913    1.332   1_545 S
C554   H938    1.086   1_545 S
C555   O595    1.281   .     A
C555   O589    1.281   .     A
C556   O596    1.270   .     A
C556   O590    1.270   .     A
C557   O585    1.273   .     A
C557   O587    1.271   .     A
C557   C560    1.449   .     S
C558   O586    1.283   .     A
C558   C559    1.471   .     S
C558   O588    1.285   .     A
C559   C563    1.399   .     A
C561   H582    1.084   .     S
C561   C565    1.403   .     A
C562   N583    1.157   .     T
C562   C670    1.452   1_455 S
C563   C564    1.408   .     A
C563   H572    1.074   .     S
C564   C566    1.427   .     A
C564   C565    1.418   .     A
C565   C29     1.390   1_556 S
C566   C27     1.427   1_556 S
C567   C568    1.416   .     A
C568   H573    1.076   .     S
C568   C569    1.387   .     A
C569   H570    1.084   .     S
H576   C611    1.086   .     S
H577   C913    1.088   1_545 S
H578   C734    1.086   .     S
O584   Zn597   1.968   .     S
O584   Zn600   1.933   .     S
O584   Zn599   1.931   .     S
O584   Zn598   1.946   .     S
O585   Zn598   1.935   .     S
O586   Zn600   1.949   .     S
O587   Zn599   1.942   .     S
O588   Zn597   1.931   .     S
O589   Zn597   1.927   .     S
O590   Zn600   1.929   .     S
O591   Zn598   1.928   .     S
O592   Zn599   1.941   .     S
O593   Zn600   1.935   .     S
O594   Zn597   1.923   .     S
O595   Zn598   1.937   .     S
O596   Zn599   1.930   .     S
C601   C611    1.441   .     S
C601   O651    1.271   .     A
C601   O653    1.270   .     A
C602   H634    1.075   .     S
C602   C603    1.384   .     A
C602   C626    1.416   .     A
C603   H641    1.085   .     S
C603   C65     1.389   1_556 S
C604   O652    1.283   .     A
C604   O654    1.283   .     A
C604   C610    1.460   .     S
C605   C606    1.421   .     A
C605   C607    1.403   .     A
C606   C627    1.428   .     A
C606   C609    1.411   .     A
C607   C608    1.389   .     A
C607   H635    1.084   .     S
C608   C620    1.394   .     A
C608   H640    1.083   .     S
C609   C620    1.392   .     A
C609   H639    1.077   .     S
C610   C671    1.342   .     S
C610   C682    1.452   .     S
C612   C619    1.400   .     A
C612   H631    1.083   .     S
C612   C621    1.392   .     A
C613   C616    1.452   .     S
C613   C794    1.332   .     S
C613   H817    1.088   .     S
C614   C615    1.436   .     S
C614   C973    1.332   1_545 S
C614   H998    1.086   1_545 S
C615   O655    1.281   .     A
C615   O649    1.281   .     A
C616   O656    1.270   .     A
C616   O650    1.270   .     A
C617   O645    1.273   .     A
C617   O647    1.271   .     A
C617   C620    1.449   .     S
C618   O646    1.283   .     A
C618   C619    1.471   .     S
C618   O648    1.285   .     A
C619   C623    1.399   .     A
C621   H642    1.084   .     S
C621   C625    1.403   .     A
C622   N643    1.157   .     T
C623   C624    1.408   .     A
C623   H632    1.074   .     S
C624   C626    1.427   .     A
C624   C625    1.418   .     A
C625   C89     1.390   1_556 S
C626   C87     1.427   1_556 S
C627   C628    1.416   .     A
C628   H633    1.076   .     S
C628   C629    1.387   .     A
C629   H630    1.084   .     S
H636   C671    1.086   .     S
H637   C973    1.088   1_545 S
H638   C794    1.086   .     S
O644   Zn657   1.968   .     S
O644   Zn660   1.933   .     S
O644   Zn659   1.931   .     S
O644   Zn658   1.946   .     S
O645   Zn658   1.935   .     S
O646   Zn660   1.949   .     S
O647   Zn659   1.942   .     S
O648   Zn657   1.931   .     S
O649   Zn657   1.927   .     S
O650   Zn660   1.929   .     S
O651   Zn658   1.928   .     S
O652   Zn659   1.941   .     S
O653   Zn660   1.935   .     S
O654   Zn657   1.923   .     S
O655   Zn658   1.937   .     S
O656   Zn659   1.930   .     S
C661   C671    1.441   .     S
C661   O711    1.271   .     A
C661   O713    1.270   .     A
C662   H694    1.075   .     S
C662   C663    1.384   .     A
C662   C686    1.416   .     A
C663   H701    1.085   .     S
C663   C125    1.389   1_556 S
C664   O712    1.283   .     A
C664   O714    1.283   .     A
C664   C670    1.460   .     S
C665   C666    1.421   .     A
C665   C667    1.403   .     A
C666   C687    1.428   .     A
C666   C669    1.411   .     A
C667   C668    1.389   .     A
C667   H695    1.084   .     S
C668   C680    1.394   .     A
C668   H700    1.083   .     S
C669   C680    1.392   .     A
C669   H699    1.077   .     S
C670   C551    1.342   1_655 S
C670   C562    1.452   1_655 S
C672   C679    1.400   .     A
C672   H691    1.083   .     S
C672   C681    1.392   .     A
C673   C676    1.452   .     S
C673   C854    1.332   .     S
C673   H877    1.088   .     S
C674   C675    1.436   .     S
C674   C1033   1.332   1_545 S
C674   H1058   1.086   1_545 S
C675   O715    1.281   .     A
C675   O709    1.281   .     A
C676   O716    1.270   .     A
C676   O710    1.270   .     A
C677   O705    1.273   .     A
C677   O707    1.271   .     A
C677   C680    1.449   .     S
C678   O706    1.283   .     A
C678   C679    1.471   .     S
C678   O708    1.285   .     A
C679   C683    1.399   .     A
C681   H702    1.084   .     S
C681   C685    1.403   .     A
C682   N703    1.157   .     T
C683   C684    1.408   .     A
C683   H692    1.074   .     S
C684   C686    1.427   .     A
C684   C685    1.418   .     A
C685   C149    1.390   1_556 S
C686   C147    1.427   1_556 S
C687   C688    1.416   .     A
C688   H693    1.076   .     S
C688   C689    1.387   .     A
C689   H690    1.084   .     S
H696   C551    1.086   1_655 S
H697   C1033   1.088   1_545 S
H698   C854    1.086   .     S
O704   Zn717   1.968   .     S
O704   Zn720   1.933   .     S
O704   Zn719   1.931   .     S
O704   Zn718   1.946   .     S
O705   Zn718   1.935   .     S
O706   Zn720   1.949   .     S
O707   Zn719   1.942   .     S
O708   Zn717   1.931   .     S
O709   Zn717   1.927   .     S
O710   Zn720   1.929   .     S
O711   Zn718   1.928   .     S
O712   Zn719   1.941   .     S
O713   Zn720   1.935   .     S
O714   Zn717   1.923   .     S
O715   Zn718   1.937   .     S
O716   Zn719   1.930   .     S
C721   C731    1.441   .     S
C721   O771    1.271   .     A
C721   O773    1.270   .     A
C722   H754    1.075   .     S
C722   C723    1.384   .     A
C722   C746    1.416   .     A
C723   H761    1.085   .     S
C723   C185    1.389   1_556 S
C724   O772    1.283   .     A
C724   O774    1.283   .     A
C724   C730    1.460   .     S
C725   C726    1.421   .     A
C725   C727    1.403   .     A
C726   C747    1.428   .     A
C726   C729    1.411   .     A
C727   C728    1.389   .     A
C727   H755    1.084   .     S
C728   C740    1.394   .     A
C728   H760    1.083   .     S
C729   C740    1.392   .     A
C729   H759    1.077   .     S
C730   C791    1.342   .     S
C730   C802    1.452   .     S
C731   C850    1.342   1_455 S
C731   H876    1.086   1_455 S
C732   C739    1.400   .     A
C732   H751    1.083   .     S
C732   C741    1.392   .     A
C733   C736    1.452   .     S
C733   C914    1.332   .     S
C733   H937    1.088   .     S
C734   C735    1.436   .     S
C735   O775    1.281   .     A
C735   O769    1.281   .     A
C736   O776    1.270   .     A
C736   O770    1.270   .     A
C737   O765    1.273   .     A
C737   O767    1.271   .     A
C737   C740    1.449   .     S
C738   O766    1.283   .     A
C738   C739    1.471   .     S
C738   O768    1.285   .     A
C739   C743    1.399   .     A
C741   H762    1.084   .     S
C741   C745    1.403   .     A
C742   N763    1.157   .     T
C742   C850    1.452   1_455 S
C743   C744    1.408   .     A
C743   H752    1.074   .     S
C744   C746    1.427   .     A
C744   C745    1.418   .     A
C745   C209    1.390   1_556 S
C746   C207    1.427   1_556 S
C747   C748    1.416   .     A
C748   H753    1.076   .     S
C748   C749    1.387   .     A
C749   H750    1.084   .     S
H756   C791    1.086   .     S
H758   C914    1.086   .     S
O764   Zn777   1.968   .     S
O764   Zn780   1.933   .     S
O764   Zn779   1.931   .     S
O764   Zn778   1.946   .     S
O765   Zn778   1.935   .     S
O766   Zn780   1.949   .     S
O767   Zn779   1.942   .     S
O768   Zn777   1.931   .     S
O769   Zn777   1.927   .     S
O770   Zn780   1.929   .     S
O771   Zn778   1.928   .     S
O772   Zn779   1.941   .     S
O773   Zn780   1.935   .     S
O774   Zn777   1.923   .     S
O775   Zn778   1.937   .     S
O776   Zn779   1.930   .     S
C781   C791    1.441   .     S
C781   O831    1.271   .     A
C781   O833    1.270   .     A
C782   H814    1.075   .     S
C782   C783    1.384   .     A
C782   C806    1.416   .     A
C783   H821    1.085   .     S
C783   C245    1.389   1_556 S
C784   O832    1.283   .     A
C784   O834    1.283   .     A
C784   C790    1.460   .     S
C785   C786    1.421   .     A
C785   C787    1.403   .     A
C786   C807    1.428   .     A
C786   C789    1.411   .     A
C787   C788    1.389   .     A
C787   H815    1.084   .     S
C788   C800    1.394   .     A
C788   H820    1.083   .     S
C789   C800    1.392   .     A
C789   H819    1.077   .     S
C790   C851    1.342   .     S
C790   C862    1.452   .     S
C792   C799    1.400   .     A
C792   H811    1.083   .     S
C792   C801    1.392   .     A
C793   C796    1.452   .     S
C793   C974    1.332   .     S
C793   H997    1.088   .     S
C794   C795    1.436   .     S
C795   O835    1.281   .     A
C795   O829    1.281   .     A
C796   O836    1.270   .     A
C796   O830    1.270   .     A
C797   O825    1.273   .     A
C797   O827    1.271   .     A
C797   C800    1.449   .     S
C798   O826    1.283   .     A
C798   C799    1.471   .     S
C798   O828    1.285   .     A
C799   C803    1.399   .     A
C801   H822    1.084   .     S
C801   C805    1.403   .     A
C802   N823    1.157   .     T
C803   C804    1.408   .     A
C803   H812    1.074   .     S
C804   C806    1.427   .     A
C804   C805    1.418   .     A
C805   C269    1.390   1_556 S
C806   C267    1.427   1_556 S
C807   C808    1.416   .     A
C808   H813    1.076   .     S
C808   C809    1.387   .     A
C809   H810    1.084   .     S
H816   C851    1.086   .     S
H818   C974    1.086   .     S
O824   Zn837   1.968   .     S
O824   Zn840   1.933   .     S
O824   Zn839   1.931   .     S
O824   Zn838   1.946   .     S
O825   Zn838   1.935   .     S
O826   Zn840   1.949   .     S
O827   Zn839   1.942   .     S
O828   Zn837   1.931   .     S
O829   Zn837   1.927   .     S
O830   Zn840   1.929   .     S
O831   Zn838   1.928   .     S
O832   Zn839   1.941   .     S
O833   Zn840   1.935   .     S
O834   Zn837   1.923   .     S
O835   Zn838   1.937   .     S
O836   Zn839   1.930   .     S
C841   C851    1.441   .     S
C841   O891    1.271   .     A
C841   O893    1.270   .     A
C842   H874    1.075   .     S
C842   C843    1.384   .     A
C842   C866    1.416   .     A
C843   H881    1.085   .     S
C843   C305    1.389   1_556 S
C844   O892    1.283   .     A
C844   O894    1.283   .     A
C844   C850    1.460   .     S
C845   C846    1.421   .     A
C845   C847    1.403   .     A
C846   C867    1.428   .     A
C846   C849    1.411   .     A
C847   C848    1.389   .     A
C847   H875    1.084   .     S
C848   C860    1.394   .     A
C848   H880    1.083   .     S
C849   C860    1.392   .     A
C849   H879    1.077   .     S
C850   C731    1.342   1_655 S
C850   C742    1.452   1_655 S
C852   C859    1.400   .     A
C852   H871    1.083   .     S
C852   C861    1.392   .     A
C853   C856    1.452   .     S
C853   C1034   1.332   .     S
C853   H1057   1.088   .     S
C854   C855    1.436   .     S
C855   O895    1.281   .     A
C855   O889    1.281   .     A
C856   O896    1.270   .     A
C856   O890    1.270   .     A
C857   O885    1.273   .     A
C857   O887    1.271   .     A
C857   C860    1.449   .     S
C858   O886    1.283   .     A
C858   C859    1.471   .     S
C858   O888    1.285   .     A
C859   C863    1.399   .     A
C861   H882    1.084   .     S
C861   C865    1.403   .     A
C862   N883    1.157   .     T
C863   C864    1.408   .     A
C863   H872    1.074   .     S
C864   C866    1.427   .     A
C864   C865    1.418   .     A
C865   C329    1.390   1_556 S
C866   C327    1.427   1_556 S
C867   C868    1.416   .     A
C868   H873    1.076   .     S
C868   C869    1.387   .     A
C869   H870    1.084   .     S
H876   C731    1.086   1_655 S
H878   C1034   1.086   .     S
O884   Zn897   1.968   .     S
O884   Zn900   1.933   .     S
O884   Zn899   1.931   .     S
O884   Zn898   1.946   .     S
O885   Zn898   1.935   .     S
O886   Zn900   1.949   .     S
O887   Zn899   1.942   .     S
O888   Zn897   1.931   .     S
O889   Zn897   1.927   .     S
O890   Zn900   1.929   .     S
O891   Zn898   1.928   .     S
O892   Zn899   1.941   .     S
O893   Zn900   1.935   .     S
O894   Zn897   1.923   .     S
O895   Zn898   1.937   .     S
O896   Zn899   1.930   .     S
C901   C911    1.441   .     S
C901   O951    1.271   .     A
C901   O953    1.270   .     A
C902   H934    1.075   .     S
C902   C903    1.384   .     A
C902   C926    1.416   .     A
C903   H941    1.085   .     S
C903   C365    1.389   1_556 S
C904   O952    1.283   .     A
C904   O954    1.283   .     A
C904   C910    1.460   .     S
C905   C906    1.421   .     A
C905   C907    1.403   .     A
C906   C927    1.428   .     A
C906   C909    1.411   .     A
C907   C908    1.389   .     A
C907   H935    1.084   .     S
C908   C920    1.394   .     A
C908   H940    1.083   .     S
C909   C920    1.392   .     A
C909   H939    1.077   .     S
C910   C971    1.342   .     S
C910   C982    1.452   .     S
C911   C1030   1.342   1_455 S
C911   H1056   1.086   1_455 S
C912   C919    1.400   .     A
C912   H931    1.083   .     S
C912   C921    1.392   .     A
C913   C916    1.452   .     S
C913   C554    1.332   1_565 S
C913   H577    1.088   1_565 S
C914   C915    1.436   .     S
C915   O955    1.281   .     A
C915   O949    1.281   .     A
C916   O956    1.270   .     A
C916   O950    1.270   .     A
C917   O945    1.273   .     A
C917   O947    1.271   .     A
C917   C920    1.449   .     S
C918   O946    1.283   .     A
C918   C919    1.471   .     S
C918   O948    1.285   .     A
C919   C923    1.399   .     A
C921   H942    1.084   .     S
C921   C925    1.403   .     A
C922   N943    1.157   .     T
C922   C1030   1.452   1_455 S
C923   C924    1.408   .     A
C923   H932    1.074   .     S
C924   C926    1.427   .     A
C924   C925    1.418   .     A
C925   C389    1.390   1_556 S
C926   C387    1.427   1_556 S
C927   C928    1.416   .     A
C928   H933    1.076   .     S
C928   C929    1.387   .     A
C929   H930    1.084   .     S
H936   C971    1.086   .     S
H938   C554    1.086   1_565 S
O944   Zn957   1.968   .     S
O944   Zn960   1.933   .     S
O944   Zn959   1.931   .     S
O944   Zn958   1.946   .     S
O945   Zn958   1.935   .     S
O946   Zn960   1.949   .     S
O947   Zn959   1.942   .     S
O948   Zn957   1.931   .     S
O949   Zn957   1.927   .     S
O950   Zn960   1.929   .     S
O951   Zn958   1.928   .     S
O952   Zn959   1.941   .     S
O953   Zn960   1.935   .     S
O954   Zn957   1.923   .     S
O955   Zn958   1.937   .     S
O956   Zn959   1.930   .     S
C961   C971    1.441   .     S
C961   O1011   1.271   .     A
C961   O1013   1.270   .     A
C962   H994    1.075   .     S
C962   C963    1.384   .     A
C962   C986    1.416   .     A
C963   H1001   1.085   .     S
C963   C425    1.389   1_556 S
C964   O1012   1.283   .     A
C964   O1014   1.283   .     A
C964   C970    1.460   .     S
C965   C966    1.421   .     A
C965   C967    1.403   .     A
C966   C987    1.428   .     A
C966   C969    1.411   .     A
C967   C968    1.389   .     A
C967   H995    1.084   .     S
C968   C980    1.394   .     A
C968   H1000   1.083   .     S
C969   C980    1.392   .     A
C969   H999    1.077   .     S
C970   C1031   1.342   .     S
C970   C1042   1.452   .     S
C972   C979    1.400   .     A
C972   H991    1.083   .     S
C972   C981    1.392   .     A
C973   C976    1.452   .     S
C973   C614    1.332   1_565 S
C973   H637    1.088   1_565 S
C974   C975    1.436   .     S
C975   O1015   1.281   .     A
C975   O1009   1.281   .     A
C976   O1016   1.270   .     A
C976   O1010   1.270   .     A
C977   O1005   1.273   .     A
C977   O1007   1.271   .     A
C977   C980    1.449   .     S
C978   O1006   1.283   .     A
C978   C979    1.471   .     S
C978   O1008   1.285   .     A
C979   C983    1.399   .     A
C981   H1002   1.084   .     S
C981   C985    1.403   .     A
C982   N1003   1.157   .     T
C983   C984    1.408   .     A
C983   H992    1.074   .     S
C984   C986    1.427   .     A
C984   C985    1.418   .     A
C985   C449    1.390   1_556 S
C986   C447    1.427   1_556 S
C987   C988    1.416   .     A
C988   H993    1.076   .     S
C988   C989    1.387   .     A
C989   H990    1.084   .     S
H996   C1031   1.086   .     S
H998   C614    1.086   1_565 S
O1004  Zn1017  1.968   .     S
O1004  Zn1020  1.933   .     S
O1004  Zn1019  1.931   .     S
O1004  Zn1018  1.946   .     S
O1005  Zn1018  1.935   .     S
O1006  Zn1020  1.949   .     S
O1007  Zn1019  1.942   .     S
O1008  Zn1017  1.931   .     S
O1009  Zn1017  1.927   .     S
O1010  Zn1020  1.929   .     S
O1011  Zn1018  1.928   .     S
O1012  Zn1019  1.941   .     S
O1013  Zn1020  1.935   .     S
O1014  Zn1017  1.923   .     S
O1015  Zn1018  1.937   .     S
O1016  Zn1019  1.930   .     S
C1021  C1031   1.441   .     S
C1021  O1071   1.271   .     A
C1021  O1073   1.270   .     A
C1022  H1054   1.075   .     S
C1022  C1023   1.384   .     A
C1022  C1046   1.416   .     A
C1023  H1061   1.085   .     S
C1023  C485    1.389   1_556 S
C1024  O1072   1.283   .     A
C1024  O1074   1.283   .     A
C1024  C1030   1.460   .     S
C1025  C1026   1.421   .     A
C1025  C1027   1.403   .     A
C1026  C1047   1.428   .     A
C1026  C1029   1.411   .     A
C1027  C1028   1.389   .     A
C1027  H1055   1.084   .     S
C1028  C1040   1.394   .     A
C1028  H1060   1.083   .     S
C1029  C1040   1.392   .     A
C1029  H1059   1.077   .     S
C1030  C911    1.342   1_655 S
C1030  C922    1.452   1_655 S
C1032  C1039   1.400   .     A
C1032  H1051   1.083   .     S
C1032  C1041   1.392   .     A
C1033  C1036   1.452   .     S
C1033  C674    1.332   1_565 S
C1033  H697    1.088   1_565 S
C1034  C1035   1.436   .     S
C1035  O1075   1.281   .     A
C1035  O1069   1.281   .     A
C1036  O1076   1.270   .     A
C1036  O1070   1.270   .     A
C1037  O1065   1.273   .     A
C1037  O1067   1.271   .     A
C1037  C1040   1.449   .     S
C1038  O1066   1.283   .     A
C1038  C1039   1.471   .     S
C1038  O1068   1.285   .     A
C1039  C1043   1.399   .     A
C1041  H1062   1.084   .     S
C1041  C1045   1.403   .     A
C1042  N1063   1.157   .     T
C1043  C1044   1.408   .     A
C1043  H1052   1.074   .     S
C1044  C1046   1.427   .     A
C1044  C1045   1.418   .     A
C1045  C509    1.390   1_556 S
C1046  C507    1.427   1_556 S
C1047  C1048   1.416   .     A
C1048  H1053   1.076   .     S
C1048  C1049   1.387   .     A
C1049  H1050   1.084   .     S
H1056  C911    1.086   1_655 S
H1058  C674    1.086   1_565 S
O1064  Zn1077  1.968   .     S
O1064  Zn1080  1.933   .     S
O1064  Zn1079  1.931   .     S
O1064  Zn1078  1.946   .     S
O1065  Zn1078  1.935   .     S
O1066  Zn1080  1.949   .     S
O1067  Zn1079  1.942   .     S
O1068  Zn1077  1.931   .     S
O1069  Zn1077  1.927   .     S
O1070  Zn1080  1.929   .     S
O1071  Zn1078  1.928   .     S
O1072  Zn1079  1.941   .     S
O1073  Zn1080  1.935   .     S
O1074  Zn1077  1.923   .     S
O1075  Zn1078  1.937   .     S
O1076  Zn1079  1.930   .     S
