data_str_m1_o5_o17_pcu_sym.14
_audit_creation_date              2020-01-03
_audit_creation_method            'Materials Studio'
_symmetry_space_group_name_H-M    'P1'
_symmetry_Int_Tables_number       1
_symmetry_cell_setting            triclinic
loop_
_symmetry_equiv_pos_as_xyz
  x,y,z
_cell_length_a                    31.7380
_cell_length_b                    31.7379
_cell_length_c                    34.6176
_cell_angle_alpha                 89.9999
_cell_angle_beta                  90.0000
_cell_angle_gamma                 89.8259
loop_
_atom_site_label
_atom_site_type_symbol
_atom_site_fract_x
_atom_site_fract_y
_atom_site_fract_z
_atom_site_U_iso_or_equiv
_atom_site_adp_type
_atom_site_occupancy
Zn1    Zn    0.20053   0.00000   0.21730   0.00000  Uiso   1.00
Zn2    Zn    0.29948   0.00000   0.78270   0.00000  Uiso   1.00
Zn3    Zn    0.00000   0.20053   0.21730   0.00000  Uiso   1.00
Zn4    Zn    0.00000   0.29948   0.78270   0.00000  Uiso   1.00
Zn5    Zn    0.29948   0.00000   0.21730   0.00000  Uiso   1.00
Zn6    Zn    0.20053   0.00000   0.78270   0.00000  Uiso   1.00
Zn7    Zn    0.00000   0.29948   0.21730   0.00000  Uiso   1.00
Zn8    Zn    0.00000   0.20053   0.78270   0.00000  Uiso   1.00
Zn9    Zn    0.45053   0.25000   0.71730   0.00000  Uiso   1.00
Zn10   Zn    0.04948   0.25000   0.28270   0.00000  Uiso   1.00
Zn11   Zn    0.25000   0.45053   0.71730   0.00000  Uiso   1.00
Zn12   Zn    0.25000   0.04948   0.28270   0.00000  Uiso   1.00
Zn13   Zn    0.04948   0.25000   0.71730   0.00000  Uiso   1.00
Zn14   Zn    0.45053   0.25000   0.28270   0.00000  Uiso   1.00
Zn15   Zn    0.25000   0.04948   0.71730   0.00000  Uiso   1.00
Zn16   Zn    0.25000   0.45053   0.28270   0.00000  Uiso   1.00
O17    O     0.25000   0.00000   0.25000   0.00000  Uiso   1.00
O18    O     0.25000   0.00000   0.75000   0.00000  Uiso   1.00
O19    O     0.00000   0.25000   0.25000   0.00000  Uiso   1.00
O20    O     0.00000   0.25000   0.75000   0.00000  Uiso   1.00
O21    O     0.25000   0.46539   0.33749   0.00000  Uiso   1.00
O22    O     0.25000   0.03462   0.66251   0.00000  Uiso   1.00
O23    O     0.03462   0.25000   0.33749   0.00000  Uiso   1.00
O24    O     0.46539   0.25000   0.66251   0.00000  Uiso   1.00
O25    O     0.25000   0.03462   0.33749   0.00000  Uiso   1.00
O26    O     0.25000   0.46539   0.66251   0.00000  Uiso   1.00
O27    O     0.46539   0.25000   0.33749   0.00000  Uiso   1.00
O28    O     0.03462   0.25000   0.66251   0.00000  Uiso   1.00
O29    O     0.00000   0.21539   0.83749   0.00000  Uiso   1.00
O30    O     0.00000   0.28462   0.16251   0.00000  Uiso   1.00
O31    O     0.28462   0.00000   0.83749   0.00000  Uiso   1.00
O32    O     0.21539   0.00000   0.16251   0.00000  Uiso   1.00
O33    O     0.00000   0.28462   0.83749   0.00000  Uiso   1.00
O34    O     0.00000   0.21539   0.16251   0.00000  Uiso   1.00
O35    O     0.21539   0.00000   0.83749   0.00000  Uiso   1.00
O36    O     0.28462   0.00000   0.16251   0.00000  Uiso   1.00
O37    O     0.20127   0.08332   0.27298   0.00000  Uiso   1.00
O38    O     0.29874   0.41668   0.72702   0.00000  Uiso   1.00
O39    O     0.41668   0.20127   0.27298   0.00000  Uiso   1.00
O40    O     0.08332   0.29874   0.72702   0.00000  Uiso   1.00
O41    O     0.29874   0.41668   0.27298   0.00000  Uiso   1.00
O42    O     0.20127   0.08332   0.72702   0.00000  Uiso   1.00
O43    O     0.08332   0.29874   0.27298   0.00000  Uiso   1.00
O44    O     0.41668   0.20127   0.72702   0.00000  Uiso   1.00
O45    O     0.20127   0.41668   0.72702   0.00000  Uiso   1.00
O46    O     0.29874   0.08332   0.27298   0.00000  Uiso   1.00
O47    O     0.41668   0.29874   0.72702   0.00000  Uiso   1.00
O48    O     0.08332   0.20127   0.27298   0.00000  Uiso   1.00
O49    O     0.29874   0.08332   0.72702   0.00000  Uiso   1.00
O50    O     0.20127   0.41668   0.27298   0.00000  Uiso   1.00
O51    O     0.08332   0.20127   0.72702   0.00000  Uiso   1.00
O52    O     0.41668   0.29874   0.27298   0.00000  Uiso   1.00
O53    O     0.45127   0.33332   0.77298   0.00000  Uiso   1.00
O54    O     0.04874   0.16668   0.22702   0.00000  Uiso   1.00
O55    O     0.16668   0.45127   0.77298   0.00000  Uiso   1.00
O56    O     0.33332   0.04874   0.22702   0.00000  Uiso   1.00
O57    O     0.04874   0.16668   0.77298   0.00000  Uiso   1.00
O58    O     0.45127   0.33332   0.22702   0.00000  Uiso   1.00
O59    O     0.33332   0.04874   0.77298   0.00000  Uiso   1.00
O60    O     0.16668   0.45127   0.22702   0.00000  Uiso   1.00
O61    O     0.45127   0.16668   0.22702   0.00000  Uiso   1.00
O62    O     0.04874   0.33332   0.77298   0.00000  Uiso   1.00
O63    O     0.16668   0.04874   0.22702   0.00000  Uiso   1.00
O64    O     0.33332   0.45127   0.77298   0.00000  Uiso   1.00
O65    O     0.04874   0.33332   0.22702   0.00000  Uiso   1.00
O66    O     0.45127   0.16668   0.77298   0.00000  Uiso   1.00
O67    O     0.33332   0.45127   0.22702   0.00000  Uiso   1.00
O68    O     0.16668   0.04874   0.77298   0.00000  Uiso   1.00
C69    C     0.25000   0.00000   0.35588   0.00000  Uiso   1.00
C70    C     0.25000   0.00000   0.64408   0.00000  Uiso   1.00
C71    C     0.00000   0.25000   0.35592   0.00000  Uiso   1.00
C72    C     0.00000   0.25000   0.64412   0.00000  Uiso   1.00
C73    C     0.00000   0.25000   0.85587   0.00000  Uiso   1.00
C74    C     0.00000   0.25000   0.14408   0.00000  Uiso   1.00
C75    C     0.25000   0.00000   0.85592   0.00000  Uiso   1.00
C76    C     0.25000   0.00000   0.14412   0.00000  Uiso   1.00
C77    C     0.17000   0.08000   0.25000   0.00000  Uiso   1.00
C78    C     0.33000   0.42000   0.75000   0.00000  Uiso   1.00
C79    C     0.41998   0.16998   0.25000   0.00000  Uiso   1.00
C80    C     0.08002   0.33002   0.75000   0.00000  Uiso   1.00
C81    C     0.33000   0.42000   0.25000   0.00000  Uiso   1.00
C82    C     0.17000   0.08000   0.75000   0.00000  Uiso   1.00
C83    C     0.08002   0.33002   0.25000   0.00000  Uiso   1.00
C84    C     0.41998   0.16998   0.75000   0.00000  Uiso   1.00
C85    C     0.16998   0.41998   0.75000   0.00000  Uiso   1.00
C86    C     0.33002   0.08002   0.25000   0.00000  Uiso   1.00
C87    C     0.42000   0.33000   0.75000   0.00000  Uiso   1.00
C88    C     0.08000   0.17000   0.25000   0.00000  Uiso   1.00
C89    C     0.33002   0.08002   0.75000   0.00000  Uiso   1.00
C90    C     0.16998   0.41998   0.25000   0.00000  Uiso   1.00
C91    C     0.08000   0.17000   0.75000   0.00000  Uiso   1.00
C92    C     0.42000   0.33000   0.25000   0.00000  Uiso   1.00
C93    C     0.13833   0.38833   0.25000   0.00000  Uiso   1.00
C94    C     0.36167   0.11167   0.75000   0.00000  Uiso   1.00
C95    C     0.11165   0.13835   0.25000   0.00000  Uiso   1.00
C96    C     0.38835   0.36165   0.75000   0.00000  Uiso   1.00
C97    C     0.36167   0.11167   0.25000   0.00000  Uiso   1.00
C98    C     0.13833   0.38833   0.75000   0.00000  Uiso   1.00
C99    C     0.38835   0.36165   0.25000   0.00000  Uiso   1.00
C100   C     0.11165   0.13835   0.75000   0.00000  Uiso   1.00
C101   C     0.13835   0.11165   0.75000   0.00000  Uiso   1.00
C102   C     0.36165   0.38835   0.25000   0.00000  Uiso   1.00
C103   C     0.11167   0.36167   0.75000   0.00000  Uiso   1.00
C104   C     0.38833   0.13833   0.25000   0.00000  Uiso   1.00
C105   C     0.36165   0.38835   0.75000   0.00000  Uiso   1.00
C106   C     0.13835   0.11165   0.25000   0.00000  Uiso   1.00
C107   C     0.38833   0.13833   0.75000   0.00000  Uiso   1.00
C108   C     0.11167   0.36167   0.25000   0.00000  Uiso   1.00
C109   C     0.47332   0.27783   0.41828   0.00000  Uiso   1.00
C110   C     0.02443   0.22022   0.58191   0.00000  Uiso   1.00
C111   C     0.22022   0.02442   0.41809   0.00000  Uiso   1.00
C112   C     0.27783   0.47332   0.58172   0.00000  Uiso   1.00
C113   C     0.02668   0.22217   0.41828   0.00000  Uiso   1.00
C114   C     0.47557   0.27978   0.58191   0.00000  Uiso   1.00
C115   C     0.27978   0.47558   0.41809   0.00000  Uiso   1.00
C116   C     0.22217   0.02668   0.58172   0.00000  Uiso   1.00
C117   C     0.22340   0.02790   0.91828   0.00000  Uiso   1.00
C118   C     0.27428   0.47010   0.08191   0.00000  Uiso   1.00
C119   C     0.46984   0.27396   0.91808   0.00000  Uiso   1.00
C120   C     0.02801   0.22351   0.08172   0.00000  Uiso   1.00
C121   C     0.27660   0.47210   0.91828   0.00000  Uiso   1.00
C122   C     0.22572   0.02990   0.08191   0.00000  Uiso   1.00
C123   C     0.03016   0.22604   0.91808   0.00000  Uiso   1.00
C124   C     0.47199   0.27649   0.08172   0.00000  Uiso   1.00
C125   C     0.00000   0.25000   0.39829   0.00000  Uiso   1.00
C126   C     0.00000   0.25000   0.60185   0.00000  Uiso   1.00
C127   C     0.25000   0.00000   0.39815   0.00000  Uiso   1.00
C128   C     0.25000   0.00000   0.60171   0.00000  Uiso   1.00
C129   C     0.25000   0.00000   0.89829   0.00000  Uiso   1.00
C130   C     0.25000   0.00000   0.10186   0.00000  Uiso   1.00
C131   C    -0.00000   0.25000   0.89814   0.00000  Uiso   1.00
C132   C     0.00000   0.25000   0.10170   0.00000  Uiso   1.00
C133   C     0.02589   0.22090   0.45911   0.00000  Uiso   1.00
C134   C     0.47406   0.27899   0.54111   0.00000  Uiso   1.00
C135   C     0.27900   0.47407   0.45889   0.00000  Uiso   1.00
C136   C     0.22090   0.02589   0.54089   0.00000  Uiso   1.00
C137   C     0.47411   0.27910   0.45911   0.00000  Uiso   1.00
C138   C     0.02594   0.22101   0.54111   0.00000  Uiso   1.00
C139   C     0.22100   0.02593   0.45889   0.00000  Uiso   1.00
C140   C     0.27910   0.47411   0.54089   0.00000  Uiso   1.00
C141   C     0.27581   0.47082   0.95911   0.00000  Uiso   1.00
C142   C     0.22418   0.02910   0.04111   0.00000  Uiso   1.00
C143   C     0.02931   0.22443   0.95888   0.00000  Uiso   1.00
C144   C     0.47069   0.27566   0.04088   0.00000  Uiso   1.00
C145   C     0.22419   0.02918   0.95911   0.00000  Uiso   1.00
C146   C     0.27582   0.47090   0.04111   0.00000  Uiso   1.00
C147   C     0.47069   0.27557   0.95888   0.00000  Uiso   1.00
C148   C     0.02931   0.22434   0.04088   0.00000  Uiso   1.00
C149   C     0.00000   0.25000   0.47959   0.00000  Uiso   1.00
C150   C     0.00000   0.25000   0.52061   0.00000  Uiso   1.00
C151   C     0.25000   0.00000   0.47939   0.00000  Uiso   1.00
C152   C     0.25000   0.00000   0.52041   0.00000  Uiso   1.00
C153   C     0.25000   0.00000   0.97959   0.00000  Uiso   1.00
C154   C     0.25000   0.00000   0.02061   0.00000  Uiso   1.00
C155   C    -0.00000   0.25000   0.97938   0.00000  Uiso   1.00
C156   C    -0.00000   0.25000   0.02041   0.00000  Uiso   1.00
C157   C     0.05017   0.19114   0.48002   0.00000  Uiso   1.00
C158   C     0.44736   0.30658   0.52030   0.00000  Uiso   1.00
C159   C     0.30658   0.44736   0.47970   0.00000  Uiso   1.00
C160   C     0.19114   0.05016   0.51998   0.00000  Uiso   1.00
C161   C     0.44983   0.30886   0.48002   0.00000  Uiso   1.00
C162   C     0.05264   0.19342   0.52030   0.00000  Uiso   1.00
C163   C     0.19342   0.05264   0.47970   0.00000  Uiso   1.00
C164   C     0.30886   0.44984   0.51998   0.00000  Uiso   1.00
C165   C     0.29999   0.44099   0.98002   0.00000  Uiso   1.00
C166   C     0.19755   0.05676   0.02031   0.00000  Uiso   1.00
C167   C     0.05712   0.19795   0.97968   0.00000  Uiso   1.00
C168   C     0.44071   0.29967   0.01997   0.00000  Uiso   1.00
C169   C     0.20001   0.05901   0.98002   0.00000  Uiso   1.00
C170   C     0.30245   0.44324   0.02031   0.00000  Uiso   1.00
C171   C     0.44288   0.30205   0.97968   0.00000  Uiso   1.00
C172   C     0.05929   0.20033   0.01997   0.00000  Uiso   1.00
N173   N     0.44552   0.30465   0.39660   0.00000  Uiso   1.00
O174   O     0.46081   0.33449   0.37501   0.00000  Uiso   1.00
O175   O     0.40553   0.29596   0.39481   0.00000  Uiso   1.00
N176   N     0.04464   0.18716   0.60339   0.00000  Uiso   1.00
O177   O     0.08061   0.19371   0.62037   0.00000  Uiso   1.00
O178   O     0.02697   0.15033   0.60583   0.00000  Uiso   1.00
N179   N     0.18715   0.04463   0.39661   0.00000  Uiso   1.00
O180   O     0.19369   0.08059   0.37963   0.00000  Uiso   1.00
O181   O     0.15032   0.02696   0.39419   0.00000  Uiso   1.00
N182   N     0.30466   0.44553   0.60341   0.00000  Uiso   1.00
O183   O     0.33449   0.46081   0.62499   0.00000  Uiso   1.00
O184   O     0.29597   0.40553   0.60518   0.00000  Uiso   1.00
N185   N     0.05448   0.19535   0.39660   0.00000  Uiso   1.00
O186   O     0.03919   0.16551   0.37501   0.00000  Uiso   1.00
O187   O     0.09447   0.20404   0.39481   0.00000  Uiso   1.00
N188   N     0.45536   0.31284   0.60339   0.00000  Uiso   1.00
O189   O     0.41939   0.30629   0.62037   0.00000  Uiso   1.00
O190   O     0.47303   0.34967   0.60583   0.00000  Uiso   1.00
N191   N     0.31285   0.45537   0.39661   0.00000  Uiso   1.00
O192   O     0.30631   0.41941   0.37963   0.00000  Uiso   1.00
O193   O     0.34968   0.47304   0.39419   0.00000  Uiso   1.00
N194   N     0.19534   0.05448   0.60341   0.00000  Uiso   1.00
O195   O     0.16551   0.03919   0.62499   0.00000  Uiso   1.00
O196   O     0.20403   0.09447   0.60519   0.00000  Uiso   1.00
N197   N     0.19568   0.05480   0.89659   0.00000  Uiso   1.00
O198   O     0.21104   0.08459   0.87500   0.00000  Uiso   1.00
O199   O     0.15566   0.04622   0.89481   0.00000  Uiso   1.00
N200   N     0.29430   0.43691   0.10338   0.00000  Uiso   1.00
O201   O     0.33023   0.44329   0.12048   0.00000  Uiso   1.00
O202   O     0.27653   0.40012   0.10563   0.00000  Uiso   1.00
N203   N     0.43636   0.29351   0.89664   0.00000  Uiso   1.00
O204   O     0.44232   0.32932   0.87922   0.00000  Uiso   1.00
O205   O     0.39963   0.27552   0.89489   0.00000  Uiso   1.00
N206   N     0.05499   0.19587   0.10340   0.00000  Uiso   1.00
O207   O     0.08465   0.21133   0.12510   0.00000  Uiso   1.00
O208   O     0.04662   0.15580   0.10507   0.00000  Uiso   1.00
N209   N     0.30432   0.44520   0.89659   0.00000  Uiso   1.00
O210   O     0.28896   0.41541   0.87500   0.00000  Uiso   1.00
O211   O     0.34434   0.45378   0.89481   0.00000  Uiso   1.00
N212   N     0.20570   0.06309   0.10338   0.00000  Uiso   1.00
O213   O     0.16977   0.05671   0.12048   0.00000  Uiso   1.00
O214   O     0.22347   0.09988   0.10563   0.00000  Uiso   1.00
N215   N     0.06364   0.20649   0.89664   0.00000  Uiso   1.00
O216   O     0.05768   0.17068   0.87922   0.00000  Uiso   1.00
O217   O     0.10037   0.22447   0.89489   0.00000  Uiso   1.00
N218   N     0.44501   0.30414   0.10340   0.00000  Uiso   1.00
O219   O     0.41536   0.28867   0.12510   0.00000  Uiso   1.00
O220   O     0.45338   0.34421   0.10507   0.00000  Uiso   1.00
O221   O     0.07386   0.16060   0.46140   0.00000  Uiso   1.00
C222   C     0.05157   0.12222   0.46235   0.00000  Uiso   1.00
H223   H     0.01998   0.12540   0.44862   0.00000  Uiso   1.00
H224   H     0.04832   0.11017   0.49236   0.00000  Uiso   1.00
H225   H     0.06963   0.09840   0.44567   0.00000  Uiso   1.00
O226   O     0.41923   0.33299   0.53904   0.00000  Uiso   1.00
C227   C     0.37896   0.31427   0.53813   0.00000  Uiso   1.00
H228   H     0.37915   0.28283   0.55239   0.00000  Uiso   1.00
H229   H     0.36693   0.31136   0.50808   0.00000  Uiso   1.00
H230   H     0.35671   0.33475   0.55427   0.00000  Uiso   1.00
O231   O     0.33299   0.41923   0.46096   0.00000  Uiso   1.00
C232   C     0.31428   0.37896   0.46187   0.00000  Uiso   1.00
H233   H     0.28284   0.37916   0.44760   0.00000  Uiso   1.00
H234   H     0.31136   0.36693   0.49191   0.00000  Uiso   1.00
H235   H     0.33476   0.35672   0.44572   0.00000  Uiso   1.00
O236   O     0.16060   0.07385   0.53860   0.00000  Uiso   1.00
C237   C     0.12222   0.05156   0.53765   0.00000  Uiso   1.00
H238   H     0.12540   0.01998   0.55138   0.00000  Uiso   1.00
H239   H     0.11017   0.04831   0.50764   0.00000  Uiso   1.00
H240   H     0.09840   0.06962   0.55433   0.00000  Uiso   1.00
O241   O     0.42614   0.33940   0.46140   0.00000  Uiso   1.00
C242   C     0.44843   0.37778   0.46235   0.00000  Uiso   1.00
H243   H     0.48002   0.37460   0.44862   0.00000  Uiso   1.00
H244   H     0.45168   0.38983   0.49236   0.00000  Uiso   1.00
H245   H     0.43037   0.40160   0.44567   0.00000  Uiso   1.00
O246   O     0.08077   0.16701   0.53904   0.00000  Uiso   1.00
C247   C     0.12104   0.18573   0.53813   0.00000  Uiso   1.00
H248   H     0.12085   0.21717   0.55239   0.00000  Uiso   1.00
H249   H     0.13307   0.18864   0.50808   0.00000  Uiso   1.00
H250   H     0.14329   0.16525   0.55427   0.00000  Uiso   1.00
O251   O     0.16701   0.08077   0.46096   0.00000  Uiso   1.00
C252   C     0.18572   0.12104   0.46187   0.00000  Uiso   1.00
H253   H     0.21717   0.12084   0.44760   0.00000  Uiso   1.00
H254   H     0.18864   0.13307   0.49191   0.00000  Uiso   1.00
H255   H     0.16525   0.14328   0.44572   0.00000  Uiso   1.00
O256   O     0.33940   0.42615   0.53860   0.00000  Uiso   1.00
C257   C     0.37778   0.44844   0.53765   0.00000  Uiso   1.00
H258   H     0.37460   0.48002   0.55138   0.00000  Uiso   1.00
H259   H     0.38983   0.45169   0.50764   0.00000  Uiso   1.00
H260   H     0.40160   0.43038   0.55433   0.00000  Uiso   1.00
O261   O     0.32363   0.41041   0.96140   0.00000  Uiso   1.00
C262   C     0.30128   0.37206   0.96235   0.00000  Uiso   1.00
H263   H     0.26967   0.37529   0.94867   0.00000  Uiso   1.00
H264   H     0.29807   0.35999   0.99236   0.00000  Uiso   1.00
H265   H     0.31927   0.34823   0.94563   0.00000  Uiso   1.00
O266   O     0.16951   0.08325   0.03905   0.00000  Uiso   1.00
C267   C     0.12920   0.06462   0.03821   0.00000  Uiso   1.00
H268   H     0.12934   0.03323   0.05256   0.00000  Uiso   1.00
H269   H     0.11714   0.06163   0.00818   0.00000  Uiso   1.00
H270   H     0.10700   0.08520   0.05431   0.00000  Uiso   1.00
O271   O     0.08378   0.17007   0.96092   0.00000  Uiso   1.00
C272   C     0.06526   0.12970   0.96154   0.00000  Uiso   1.00
H273   H     0.03396   0.12981   0.94702   0.00000  Uiso   1.00
H274   H     0.06212   0.11753   0.99152   0.00000  Uiso   1.00
H275   H     0.08600   0.10763   0.94547   0.00000  Uiso   1.00
O276   O     0.41003   0.32318   0.03859   0.00000  Uiso   1.00
C277   C     0.37182   0.30059   0.03777   0.00000  Uiso   1.00
H278   H     0.37527   0.26907   0.05156   0.00000  Uiso   1.00
H279   H     0.35971   0.29718   0.00779   0.00000  Uiso   1.00
H280   H     0.34790   0.31851   0.05446   0.00000  Uiso   1.00
O281   O     0.17638   0.08959   0.96140   0.00000  Uiso   1.00
C282   C     0.19872   0.12794   0.96235   0.00000  Uiso   1.00
H283   H     0.23033   0.12471   0.94867   0.00000  Uiso   1.00
H284   H     0.20194   0.14001   0.99236   0.00000  Uiso   1.00
H285   H     0.18073   0.15177   0.94563   0.00000  Uiso   1.00
O286   O     0.33049   0.41675   0.03905   0.00000  Uiso   1.00
C287   C     0.37080   0.43538   0.03821   0.00000  Uiso   1.00
H288   H     0.37066   0.46678   0.05256   0.00000  Uiso   1.00
H289   H     0.38286   0.43837   0.00818   0.00000  Uiso   1.00
H290   H     0.39300   0.41480   0.05431   0.00000  Uiso   1.00
O291   O     0.41622   0.32992   0.96092   0.00000  Uiso   1.00
C292   C     0.43473   0.37029   0.96154   0.00000  Uiso   1.00
H293   H     0.46603   0.37019   0.94702   0.00000  Uiso   1.00
H294   H     0.43787   0.38247   0.99152   0.00000  Uiso   1.00
H295   H     0.41398   0.39237   0.94547   0.00000  Uiso   1.00
O296   O     0.08997   0.17682   0.03859   0.00000  Uiso   1.00
C297   C     0.12818   0.19940   0.03776   0.00000  Uiso   1.00
H298   H     0.12473   0.23093   0.05155   0.00000  Uiso   1.00
H299   H     0.14029   0.20281   0.00778   0.00000  Uiso   1.00
H300   H     0.15210   0.18148   0.05445   0.00000  Uiso   1.00
Zn301  Zn    0.70053   0.00000   0.21730   0.00000  Uiso   1.00
Zn302  Zn    0.79948   0.00000   0.78270   0.00000  Uiso   1.00
Zn303  Zn    0.50000   0.20053   0.21730   0.00000  Uiso   1.00
Zn304  Zn    0.50000   0.29948   0.78270   0.00000  Uiso   1.00
Zn305  Zn    0.79948   0.00000   0.21730   0.00000  Uiso   1.00
Zn306  Zn    0.70053   0.00000   0.78270   0.00000  Uiso   1.00
Zn307  Zn    0.50000   0.29948   0.21730   0.00000  Uiso   1.00
Zn308  Zn    0.50000   0.20053   0.78270   0.00000  Uiso   1.00
Zn309  Zn    0.95053   0.25000   0.71730   0.00000  Uiso   1.00
Zn310  Zn    0.54948   0.25000   0.28270   0.00000  Uiso   1.00
Zn311  Zn    0.75000   0.45053   0.71730   0.00000  Uiso   1.00
Zn312  Zn    0.75000   0.04948   0.28270   0.00000  Uiso   1.00
Zn313  Zn    0.54948   0.25000   0.71730   0.00000  Uiso   1.00
Zn314  Zn    0.95053   0.25000   0.28270   0.00000  Uiso   1.00
Zn315  Zn    0.75000   0.04948   0.71730   0.00000  Uiso   1.00
Zn316  Zn    0.75000   0.45053   0.28270   0.00000  Uiso   1.00
O317   O     0.75000   0.00000   0.25000   0.00000  Uiso   1.00
O318   O     0.75000   0.00000   0.75000   0.00000  Uiso   1.00
O319   O     0.50000   0.25000   0.25000   0.00000  Uiso   1.00
O320   O     0.50000   0.25000   0.75000   0.00000  Uiso   1.00
O321   O     0.75000   0.46539   0.33749   0.00000  Uiso   1.00
O322   O     0.75000   0.03462   0.66251   0.00000  Uiso   1.00
O323   O     0.53462   0.25000   0.33749   0.00000  Uiso   1.00
O324   O     0.96539   0.25000   0.66251   0.00000  Uiso   1.00
O325   O     0.75000   0.03462   0.33749   0.00000  Uiso   1.00
O326   O     0.75000   0.46539   0.66251   0.00000  Uiso   1.00
O327   O     0.96539   0.25000   0.33749   0.00000  Uiso   1.00
O328   O     0.53462   0.25000   0.66251   0.00000  Uiso   1.00
O329   O     0.50000   0.21539   0.83749   0.00000  Uiso   1.00
O330   O     0.50000   0.28462   0.16251   0.00000  Uiso   1.00
O331   O     0.78462   0.00000   0.83749   0.00000  Uiso   1.00
O332   O     0.71539   0.00000   0.16251   0.00000  Uiso   1.00
O333   O     0.50000   0.28462   0.83749   0.00000  Uiso   1.00
O334   O     0.50000   0.21539   0.16251   0.00000  Uiso   1.00
O335   O     0.71539   0.00000   0.83749   0.00000  Uiso   1.00
O336   O     0.78462   0.00000   0.16251   0.00000  Uiso   1.00
O337   O     0.70127   0.08332   0.27298   0.00000  Uiso   1.00
O338   O     0.79874   0.41668   0.72702   0.00000  Uiso   1.00
O339   O     0.91668   0.20127   0.27298   0.00000  Uiso   1.00
O340   O     0.58332   0.29874   0.72702   0.00000  Uiso   1.00
O341   O     0.79874   0.41668   0.27298   0.00000  Uiso   1.00
O342   O     0.70127   0.08332   0.72702   0.00000  Uiso   1.00
O343   O     0.58332   0.29874   0.27298   0.00000  Uiso   1.00
O344   O     0.91668   0.20127   0.72702   0.00000  Uiso   1.00
O345   O     0.70127   0.41668   0.72702   0.00000  Uiso   1.00
O346   O     0.79874   0.08332   0.27298   0.00000  Uiso   1.00
O347   O     0.91668   0.29874   0.72702   0.00000  Uiso   1.00
O348   O     0.58332   0.20127   0.27298   0.00000  Uiso   1.00
O349   O     0.79874   0.08332   0.72702   0.00000  Uiso   1.00
O350   O     0.70127   0.41668   0.27298   0.00000  Uiso   1.00
O351   O     0.58332   0.20127   0.72702   0.00000  Uiso   1.00
O352   O     0.91668   0.29874   0.27298   0.00000  Uiso   1.00
O353   O     0.95127   0.33332   0.77298   0.00000  Uiso   1.00
O354   O     0.54874   0.16668   0.22702   0.00000  Uiso   1.00
O355   O     0.66668   0.45127   0.77298   0.00000  Uiso   1.00
O356   O     0.83332   0.04874   0.22702   0.00000  Uiso   1.00
O357   O     0.54874   0.16668   0.77298   0.00000  Uiso   1.00
O358   O     0.95127   0.33332   0.22702   0.00000  Uiso   1.00
O359   O     0.83332   0.04874   0.77298   0.00000  Uiso   1.00
O360   O     0.66668   0.45127   0.22702   0.00000  Uiso   1.00
O361   O     0.95127   0.16668   0.22702   0.00000  Uiso   1.00
O362   O     0.54874   0.33332   0.77298   0.00000  Uiso   1.00
O363   O     0.66668   0.04874   0.22702   0.00000  Uiso   1.00
O364   O     0.83332   0.45127   0.77298   0.00000  Uiso   1.00
O365   O     0.54874   0.33332   0.22702   0.00000  Uiso   1.00
O366   O     0.95127   0.16668   0.77298   0.00000  Uiso   1.00
O367   O     0.83332   0.45127   0.22702   0.00000  Uiso   1.00
O368   O     0.66668   0.04874   0.77298   0.00000  Uiso   1.00
C369   C     0.75000   0.00000   0.35588   0.00000  Uiso   1.00
C370   C     0.75000   0.00000   0.64408   0.00000  Uiso   1.00
C371   C     0.50000   0.25000   0.35592   0.00000  Uiso   1.00
C372   C     0.50000   0.25000   0.64412   0.00000  Uiso   1.00
C373   C     0.50000   0.25000   0.85587   0.00000  Uiso   1.00
C374   C     0.50000   0.25000   0.14408   0.00000  Uiso   1.00
C375   C     0.75000   0.00000   0.85592   0.00000  Uiso   1.00
C376   C     0.75000   0.00000   0.14412   0.00000  Uiso   1.00
C377   C     0.67000   0.08000   0.25000   0.00000  Uiso   1.00
C378   C     0.83000   0.42000   0.75000   0.00000  Uiso   1.00
C379   C     0.91998   0.16998   0.25000   0.00000  Uiso   1.00
C380   C     0.58002   0.33002   0.75000   0.00000  Uiso   1.00
C381   C     0.83000   0.42000   0.25000   0.00000  Uiso   1.00
C382   C     0.67000   0.08000   0.75000   0.00000  Uiso   1.00
C383   C     0.58002   0.33002   0.25000   0.00000  Uiso   1.00
C384   C     0.91998   0.16998   0.75000   0.00000  Uiso   1.00
C385   C     0.66998   0.41998   0.75000   0.00000  Uiso   1.00
C386   C     0.83002   0.08002   0.25000   0.00000  Uiso   1.00
C387   C     0.92000   0.33000   0.75000   0.00000  Uiso   1.00
C388   C     0.58000   0.17000   0.25000   0.00000  Uiso   1.00
C389   C     0.83002   0.08002   0.75000   0.00000  Uiso   1.00
C390   C     0.66998   0.41998   0.25000   0.00000  Uiso   1.00
C391   C     0.58000   0.17000   0.75000   0.00000  Uiso   1.00
C392   C     0.92000   0.33000   0.25000   0.00000  Uiso   1.00
C393   C     0.63833   0.38833   0.25000   0.00000  Uiso   1.00
C394   C     0.86167   0.11167   0.75000   0.00000  Uiso   1.00
C395   C     0.61165   0.13835   0.25000   0.00000  Uiso   1.00
C396   C     0.88835   0.36165   0.75000   0.00000  Uiso   1.00
C397   C     0.86167   0.11167   0.25000   0.00000  Uiso   1.00
C398   C     0.63833   0.38833   0.75000   0.00000  Uiso   1.00
C399   C     0.88835   0.36165   0.25000   0.00000  Uiso   1.00
C400   C     0.61165   0.13835   0.75000   0.00000  Uiso   1.00
C401   C     0.63835   0.11165   0.75000   0.00000  Uiso   1.00
C402   C     0.86165   0.38835   0.25000   0.00000  Uiso   1.00
C403   C     0.61167   0.36167   0.75000   0.00000  Uiso   1.00
C404   C     0.88833   0.13833   0.25000   0.00000  Uiso   1.00
C405   C     0.86165   0.38835   0.75000   0.00000  Uiso   1.00
C406   C     0.63835   0.11165   0.25000   0.00000  Uiso   1.00
C407   C     0.88833   0.13833   0.75000   0.00000  Uiso   1.00
C408   C     0.61167   0.36167   0.25000   0.00000  Uiso   1.00
C409   C     0.97332   0.27783   0.41828   0.00000  Uiso   1.00
C410   C     0.52443   0.22022   0.58191   0.00000  Uiso   1.00
C411   C     0.72022   0.02442   0.41809   0.00000  Uiso   1.00
C412   C     0.77783   0.47332   0.58172   0.00000  Uiso   1.00
C413   C     0.52668   0.22217   0.41828   0.00000  Uiso   1.00
C414   C     0.97557   0.27978   0.58191   0.00000  Uiso   1.00
C415   C     0.77978   0.47558   0.41809   0.00000  Uiso   1.00
C416   C     0.72217   0.02668   0.58172   0.00000  Uiso   1.00
C417   C     0.72340   0.02790   0.91828   0.00000  Uiso   1.00
C418   C     0.77428   0.47010   0.08191   0.00000  Uiso   1.00
C419   C     0.96984   0.27396   0.91808   0.00000  Uiso   1.00
C420   C     0.52801   0.22351   0.08172   0.00000  Uiso   1.00
C421   C     0.77660   0.47210   0.91828   0.00000  Uiso   1.00
C422   C     0.72572   0.02990   0.08191   0.00000  Uiso   1.00
C423   C     0.53016   0.22604   0.91808   0.00000  Uiso   1.00
C424   C     0.97199   0.27649   0.08172   0.00000  Uiso   1.00
C425   C     0.50000   0.25000   0.39829   0.00000  Uiso   1.00
C426   C     0.50000   0.25000   0.60185   0.00000  Uiso   1.00
C427   C     0.75000   0.00000   0.39815   0.00000  Uiso   1.00
C428   C     0.75000   0.00000   0.60171   0.00000  Uiso   1.00
C429   C     0.75000   0.00000   0.89829   0.00000  Uiso   1.00
C430   C     0.75000   0.00000   0.10186   0.00000  Uiso   1.00
C431   C     0.50000   0.25000   0.89814   0.00000  Uiso   1.00
C432   C     0.50000   0.25000   0.10170   0.00000  Uiso   1.00
C433   C     0.52589   0.22090   0.45911   0.00000  Uiso   1.00
C434   C     0.97406   0.27899   0.54111   0.00000  Uiso   1.00
C435   C     0.77900   0.47407   0.45889   0.00000  Uiso   1.00
C436   C     0.72090   0.02589   0.54089   0.00000  Uiso   1.00
C437   C     0.97411   0.27910   0.45911   0.00000  Uiso   1.00
C438   C     0.52594   0.22101   0.54111   0.00000  Uiso   1.00
C439   C     0.72100   0.02593   0.45889   0.00000  Uiso   1.00
C440   C     0.77910   0.47411   0.54089   0.00000  Uiso   1.00
C441   C     0.77581   0.47082   0.95911   0.00000  Uiso   1.00
C442   C     0.72418   0.02910   0.04111   0.00000  Uiso   1.00
C443   C     0.52931   0.22443   0.95888   0.00000  Uiso   1.00
C444   C     0.97069   0.27566   0.04088   0.00000  Uiso   1.00
C445   C     0.72419   0.02918   0.95911   0.00000  Uiso   1.00
C446   C     0.77582   0.47090   0.04111   0.00000  Uiso   1.00
C447   C     0.97069   0.27557   0.95888   0.00000  Uiso   1.00
C448   C     0.52931   0.22434   0.04088   0.00000  Uiso   1.00
C449   C     0.50000   0.25000   0.47959   0.00000  Uiso   1.00
C450   C     0.50000   0.25000   0.52061   0.00000  Uiso   1.00
C451   C     0.75000   0.00000   0.47939   0.00000  Uiso   1.00
C452   C     0.75000   0.00000   0.52041   0.00000  Uiso   1.00
C453   C     0.75000   0.00000   0.97959   0.00000  Uiso   1.00
C454   C     0.75000   0.00000   0.02061   0.00000  Uiso   1.00
C455   C     0.50000   0.25000   0.97938   0.00000  Uiso   1.00
C456   C     0.50000   0.25000   0.02041   0.00000  Uiso   1.00
C457   C     0.55017   0.19114   0.48002   0.00000  Uiso   1.00
C458   C     0.94736   0.30658   0.52030   0.00000  Uiso   1.00
C459   C     0.80658   0.44736   0.47970   0.00000  Uiso   1.00
C460   C     0.69114   0.05016   0.51998   0.00000  Uiso   1.00
C461   C     0.94983   0.30886   0.48002   0.00000  Uiso   1.00
C462   C     0.55264   0.19342   0.52030   0.00000  Uiso   1.00
C463   C     0.69342   0.05264   0.47970   0.00000  Uiso   1.00
C464   C     0.80886   0.44984   0.51998   0.00000  Uiso   1.00
C465   C     0.79999   0.44099   0.98002   0.00000  Uiso   1.00
C466   C     0.69755   0.05676   0.02031   0.00000  Uiso   1.00
C467   C     0.55712   0.19795   0.97968   0.00000  Uiso   1.00
C468   C     0.94071   0.29967   0.01997   0.00000  Uiso   1.00
C469   C     0.70001   0.05901   0.98002   0.00000  Uiso   1.00
C470   C     0.80245   0.44324   0.02031   0.00000  Uiso   1.00
C471   C     0.94288   0.30205   0.97968   0.00000  Uiso   1.00
C472   C     0.55929   0.20033   0.01997   0.00000  Uiso   1.00
N473   N     0.94552   0.30465   0.39660   0.00000  Uiso   1.00
O474   O     0.96081   0.33449   0.37501   0.00000  Uiso   1.00
O475   O     0.90553   0.29596   0.39481   0.00000  Uiso   1.00
N476   N     0.54464   0.18716   0.60339   0.00000  Uiso   1.00
O477   O     0.58061   0.19371   0.62037   0.00000  Uiso   1.00
O478   O     0.52697   0.15033   0.60583   0.00000  Uiso   1.00
N479   N     0.68715   0.04463   0.39661   0.00000  Uiso   1.00
O480   O     0.69369   0.08059   0.37963   0.00000  Uiso   1.00
O481   O     0.65032   0.02696   0.39419   0.00000  Uiso   1.00
N482   N     0.80466   0.44553   0.60341   0.00000  Uiso   1.00
O483   O     0.83449   0.46081   0.62499   0.00000  Uiso   1.00
O484   O     0.79597   0.40553   0.60518   0.00000  Uiso   1.00
N485   N     0.55448   0.19535   0.39660   0.00000  Uiso   1.00
O486   O     0.53919   0.16551   0.37501   0.00000  Uiso   1.00
O487   O     0.59447   0.20404   0.39481   0.00000  Uiso   1.00
N488   N     0.95536   0.31284   0.60339   0.00000  Uiso   1.00
O489   O     0.91939   0.30629   0.62037   0.00000  Uiso   1.00
O490   O     0.97303   0.34967   0.60583   0.00000  Uiso   1.00
N491   N     0.81285   0.45537   0.39661   0.00000  Uiso   1.00
O492   O     0.80631   0.41941   0.37963   0.00000  Uiso   1.00
O493   O     0.84968   0.47304   0.39419   0.00000  Uiso   1.00
N494   N     0.69534   0.05448   0.60341   0.00000  Uiso   1.00
O495   O     0.66551   0.03919   0.62499   0.00000  Uiso   1.00
O496   O     0.70403   0.09447   0.60519   0.00000  Uiso   1.00
N497   N     0.69568   0.05480   0.89659   0.00000  Uiso   1.00
O498   O     0.71104   0.08459   0.87500   0.00000  Uiso   1.00
O499   O     0.65566   0.04622   0.89481   0.00000  Uiso   1.00
N500   N     0.79430   0.43691   0.10338   0.00000  Uiso   1.00
O501   O     0.83023   0.44329   0.12048   0.00000  Uiso   1.00
O502   O     0.77653   0.40012   0.10563   0.00000  Uiso   1.00
N503   N     0.93636   0.29351   0.89664   0.00000  Uiso   1.00
O504   O     0.94232   0.32932   0.87922   0.00000  Uiso   1.00
O505   O     0.89963   0.27552   0.89489   0.00000  Uiso   1.00
N506   N     0.55499   0.19587   0.10340   0.00000  Uiso   1.00
O507   O     0.58465   0.21133   0.12510   0.00000  Uiso   1.00
O508   O     0.54662   0.15580   0.10507   0.00000  Uiso   1.00
N509   N     0.80432   0.44520   0.89659   0.00000  Uiso   1.00
O510   O     0.78896   0.41541   0.87500   0.00000  Uiso   1.00
O511   O     0.84434   0.45378   0.89481   0.00000  Uiso   1.00
N512   N     0.70570   0.06309   0.10338   0.00000  Uiso   1.00
O513   O     0.66977   0.05671   0.12048   0.00000  Uiso   1.00
O514   O     0.72347   0.09988   0.10563   0.00000  Uiso   1.00
N515   N     0.56364   0.20649   0.89664   0.00000  Uiso   1.00
O516   O     0.55768   0.17068   0.87922   0.00000  Uiso   1.00
O517   O     0.60037   0.22447   0.89489   0.00000  Uiso   1.00
N518   N     0.94501   0.30414   0.10340   0.00000  Uiso   1.00
O519   O     0.91536   0.28867   0.12510   0.00000  Uiso   1.00
O520   O     0.95338   0.34421   0.10507   0.00000  Uiso   1.00
O521   O     0.57386   0.16060   0.46140   0.00000  Uiso   1.00
C522   C     0.55157   0.12222   0.46235   0.00000  Uiso   1.00
H523   H     0.51998   0.12540   0.44862   0.00000  Uiso   1.00
H524   H     0.54832   0.11017   0.49236   0.00000  Uiso   1.00
H525   H     0.56963   0.09840   0.44567   0.00000  Uiso   1.00
O526   O     0.91923   0.33299   0.53904   0.00000  Uiso   1.00
C527   C     0.87896   0.31427   0.53813   0.00000  Uiso   1.00
H528   H     0.87915   0.28283   0.55239   0.00000  Uiso   1.00
H529   H     0.86693   0.31136   0.50808   0.00000  Uiso   1.00
H530   H     0.85671   0.33475   0.55427   0.00000  Uiso   1.00
O531   O     0.83299   0.41923   0.46096   0.00000  Uiso   1.00
C532   C     0.81428   0.37896   0.46187   0.00000  Uiso   1.00
H533   H     0.78284   0.37916   0.44760   0.00000  Uiso   1.00
H534   H     0.81136   0.36693   0.49191   0.00000  Uiso   1.00
H535   H     0.83476   0.35672   0.44572   0.00000  Uiso   1.00
O536   O     0.66060   0.07385   0.53860   0.00000  Uiso   1.00
C537   C     0.62222   0.05156   0.53765   0.00000  Uiso   1.00
H538   H     0.62540   0.01998   0.55138   0.00000  Uiso   1.00
H539   H     0.61017   0.04831   0.50764   0.00000  Uiso   1.00
H540   H     0.59840   0.06962   0.55433   0.00000  Uiso   1.00
O541   O     0.92614   0.33940   0.46140   0.00000  Uiso   1.00
C542   C     0.94843   0.37778   0.46235   0.00000  Uiso   1.00
H543   H     0.98002   0.37460   0.44862   0.00000  Uiso   1.00
H544   H     0.95168   0.38983   0.49236   0.00000  Uiso   1.00
H545   H     0.93037   0.40160   0.44567   0.00000  Uiso   1.00
O546   O     0.58077   0.16701   0.53904   0.00000  Uiso   1.00
C547   C     0.62104   0.18573   0.53813   0.00000  Uiso   1.00
H548   H     0.62085   0.21717   0.55239   0.00000  Uiso   1.00
H549   H     0.63307   0.18864   0.50808   0.00000  Uiso   1.00
H550   H     0.64329   0.16525   0.55427   0.00000  Uiso   1.00
O551   O     0.66701   0.08077   0.46096   0.00000  Uiso   1.00
C552   C     0.68572   0.12104   0.46187   0.00000  Uiso   1.00
H553   H     0.71717   0.12084   0.44760   0.00000  Uiso   1.00
H554   H     0.68864   0.13307   0.49191   0.00000  Uiso   1.00
H555   H     0.66525   0.14328   0.44572   0.00000  Uiso   1.00
O556   O     0.83940   0.42615   0.53860   0.00000  Uiso   1.00
C557   C     0.87778   0.44844   0.53765   0.00000  Uiso   1.00
H558   H     0.87460   0.48002   0.55138   0.00000  Uiso   1.00
H559   H     0.88983   0.45169   0.50764   0.00000  Uiso   1.00
H560   H     0.90160   0.43038   0.55433   0.00000  Uiso   1.00
O561   O     0.82363   0.41041   0.96140   0.00000  Uiso   1.00
C562   C     0.80128   0.37206   0.96235   0.00000  Uiso   1.00
H563   H     0.76967   0.37529   0.94867   0.00000  Uiso   1.00
H564   H     0.79807   0.35999   0.99236   0.00000  Uiso   1.00
H565   H     0.81927   0.34823   0.94563   0.00000  Uiso   1.00
O566   O     0.66951   0.08325   0.03905   0.00000  Uiso   1.00
C567   C     0.62920   0.06462   0.03821   0.00000  Uiso   1.00
H568   H     0.62934   0.03323   0.05256   0.00000  Uiso   1.00
H569   H     0.61714   0.06163   0.00818   0.00000  Uiso   1.00
H570   H     0.60700   0.08520   0.05431   0.00000  Uiso   1.00
O571   O     0.58378   0.17007   0.96092   0.00000  Uiso   1.00
C572   C     0.56526   0.12970   0.96154   0.00000  Uiso   1.00
H573   H     0.53396   0.12981   0.94702   0.00000  Uiso   1.00
H574   H     0.56212   0.11753   0.99152   0.00000  Uiso   1.00
H575   H     0.58600   0.10763   0.94547   0.00000  Uiso   1.00
O576   O     0.91003   0.32318   0.03859   0.00000  Uiso   1.00
C577   C     0.87182   0.30059   0.03777   0.00000  Uiso   1.00
H578   H     0.87527   0.26907   0.05156   0.00000  Uiso   1.00
H579   H     0.85971   0.29718   0.00779   0.00000  Uiso   1.00
H580   H     0.84790   0.31851   0.05446   0.00000  Uiso   1.00
O581   O     0.67638   0.08959   0.96140   0.00000  Uiso   1.00
C582   C     0.69872   0.12794   0.96235   0.00000  Uiso   1.00
H583   H     0.73033   0.12471   0.94867   0.00000  Uiso   1.00
H584   H     0.70194   0.14001   0.99236   0.00000  Uiso   1.00
H585   H     0.68073   0.15177   0.94563   0.00000  Uiso   1.00
O586   O     0.83049   0.41675   0.03905   0.00000  Uiso   1.00
C587   C     0.87080   0.43538   0.03821   0.00000  Uiso   1.00
H588   H     0.87066   0.46678   0.05256   0.00000  Uiso   1.00
H589   H     0.88286   0.43837   0.00818   0.00000  Uiso   1.00
H590   H     0.89300   0.41480   0.05431   0.00000  Uiso   1.00
O591   O     0.91622   0.32992   0.96092   0.00000  Uiso   1.00
C592   C     0.93473   0.37029   0.96154   0.00000  Uiso   1.00
H593   H     0.96603   0.37019   0.94702   0.00000  Uiso   1.00
H594   H     0.93787   0.38247   0.99152   0.00000  Uiso   1.00
H595   H     0.91398   0.39237   0.94547   0.00000  Uiso   1.00
O596   O     0.58997   0.17682   0.03859   0.00000  Uiso   1.00
C597   C     0.62818   0.19940   0.03776   0.00000  Uiso   1.00
H598   H     0.62473   0.23093   0.05155   0.00000  Uiso   1.00
H599   H     0.64029   0.20281   0.00778   0.00000  Uiso   1.00
H600   H     0.65210   0.18148   0.05445   0.00000  Uiso   1.00
Zn601  Zn    0.20053   0.50000   0.21730   0.00000  Uiso   1.00
Zn602  Zn    0.29948   0.50000   0.78270   0.00000  Uiso   1.00
Zn603  Zn    0.00000   0.70053   0.21730   0.00000  Uiso   1.00
Zn604  Zn    0.00000   0.79948   0.78270   0.00000  Uiso   1.00
Zn605  Zn    0.29948   0.50000   0.21730   0.00000  Uiso   1.00
Zn606  Zn    0.20053   0.50000   0.78270   0.00000  Uiso   1.00
Zn607  Zn    0.00000   0.79948   0.21730   0.00000  Uiso   1.00
Zn608  Zn    0.00000   0.70053   0.78270   0.00000  Uiso   1.00
Zn609  Zn    0.45053   0.75000   0.71730   0.00000  Uiso   1.00
Zn610  Zn    0.04948   0.75000   0.28270   0.00000  Uiso   1.00
Zn611  Zn    0.25000   0.95053   0.71730   0.00000  Uiso   1.00
Zn612  Zn    0.25000   0.54948   0.28270   0.00000  Uiso   1.00
Zn613  Zn    0.04948   0.75000   0.71730   0.00000  Uiso   1.00
Zn614  Zn    0.45053   0.75000   0.28270   0.00000  Uiso   1.00
Zn615  Zn    0.25000   0.54948   0.71730   0.00000  Uiso   1.00
Zn616  Zn    0.25000   0.95053   0.28270   0.00000  Uiso   1.00
O617   O     0.25000   0.50000   0.25000   0.00000  Uiso   1.00
O618   O     0.25000   0.50000   0.75000   0.00000  Uiso   1.00
O619   O     0.00000   0.75000   0.25000   0.00000  Uiso   1.00
O620   O     0.00000   0.75000   0.75000   0.00000  Uiso   1.00
O621   O     0.25000   0.96539   0.33749   0.00000  Uiso   1.00
O622   O     0.25000   0.53462   0.66251   0.00000  Uiso   1.00
O623   O     0.03462   0.75000   0.33749   0.00000  Uiso   1.00
O624   O     0.46539   0.75000   0.66251   0.00000  Uiso   1.00
O625   O     0.25000   0.53462   0.33749   0.00000  Uiso   1.00
O626   O     0.25000   0.96539   0.66251   0.00000  Uiso   1.00
O627   O     0.46539   0.75000   0.33749   0.00000  Uiso   1.00
O628   O     0.03462   0.75000   0.66251   0.00000  Uiso   1.00
O629   O     0.00000   0.71539   0.83749   0.00000  Uiso   1.00
O630   O     0.00000   0.78462   0.16251   0.00000  Uiso   1.00
O631   O     0.28462   0.50000   0.83749   0.00000  Uiso   1.00
O632   O     0.21539   0.50000   0.16251   0.00000  Uiso   1.00
O633   O     0.00000   0.78462   0.83749   0.00000  Uiso   1.00
O634   O     0.00000   0.71539   0.16251   0.00000  Uiso   1.00
O635   O     0.21539   0.50000   0.83749   0.00000  Uiso   1.00
O636   O     0.28462   0.50000   0.16251   0.00000  Uiso   1.00
O637   O     0.20127   0.58332   0.27298   0.00000  Uiso   1.00
O638   O     0.29874   0.91668   0.72702   0.00000  Uiso   1.00
O639   O     0.41668   0.70127   0.27298   0.00000  Uiso   1.00
O640   O     0.08332   0.79874   0.72702   0.00000  Uiso   1.00
O641   O     0.29874   0.91668   0.27298   0.00000  Uiso   1.00
O642   O     0.20127   0.58332   0.72702   0.00000  Uiso   1.00
O643   O     0.08332   0.79874   0.27298   0.00000  Uiso   1.00
O644   O     0.41668   0.70127   0.72702   0.00000  Uiso   1.00
O645   O     0.20127   0.91668   0.72702   0.00000  Uiso   1.00
O646   O     0.29874   0.58332   0.27298   0.00000  Uiso   1.00
O647   O     0.41668   0.79874   0.72702   0.00000  Uiso   1.00
O648   O     0.08332   0.70127   0.27298   0.00000  Uiso   1.00
O649   O     0.29874   0.58332   0.72702   0.00000  Uiso   1.00
O650   O     0.20127   0.91668   0.27298   0.00000  Uiso   1.00
O651   O     0.08332   0.70127   0.72702   0.00000  Uiso   1.00
O652   O     0.41668   0.79874   0.27298   0.00000  Uiso   1.00
O653   O     0.45127   0.83332   0.77298   0.00000  Uiso   1.00
O654   O     0.04874   0.66668   0.22702   0.00000  Uiso   1.00
O655   O     0.16668   0.95127   0.77298   0.00000  Uiso   1.00
O656   O     0.33332   0.54874   0.22702   0.00000  Uiso   1.00
O657   O     0.04874   0.66668   0.77298   0.00000  Uiso   1.00
O658   O     0.45127   0.83332   0.22702   0.00000  Uiso   1.00
O659   O     0.33332   0.54874   0.77298   0.00000  Uiso   1.00
O660   O     0.16668   0.95127   0.22702   0.00000  Uiso   1.00
O661   O     0.45127   0.66668   0.22702   0.00000  Uiso   1.00
O662   O     0.04874   0.83332   0.77298   0.00000  Uiso   1.00
O663   O     0.16668   0.54874   0.22702   0.00000  Uiso   1.00
O664   O     0.33332   0.95127   0.77298   0.00000  Uiso   1.00
O665   O     0.04874   0.83332   0.22702   0.00000  Uiso   1.00
O666   O     0.45127   0.66668   0.77298   0.00000  Uiso   1.00
O667   O     0.33332   0.95127   0.22702   0.00000  Uiso   1.00
O668   O     0.16668   0.54874   0.77298   0.00000  Uiso   1.00
C669   C     0.25000   0.50000   0.35588   0.00000  Uiso   1.00
C670   C     0.25000   0.50000   0.64408   0.00000  Uiso   1.00
C671   C     0.00000   0.75000   0.35592   0.00000  Uiso   1.00
C672   C     0.00000   0.75000   0.64412   0.00000  Uiso   1.00
C673   C     0.00000   0.75000   0.85587   0.00000  Uiso   1.00
C674   C     0.00000   0.75000   0.14408   0.00000  Uiso   1.00
C675   C     0.25000   0.50000   0.85592   0.00000  Uiso   1.00
C676   C     0.25000   0.50000   0.14412   0.00000  Uiso   1.00
C677   C     0.17000   0.58000   0.25000   0.00000  Uiso   1.00
C678   C     0.33000   0.92000   0.75000   0.00000  Uiso   1.00
C679   C     0.41998   0.66998   0.25000   0.00000  Uiso   1.00
C680   C     0.08002   0.83002   0.75000   0.00000  Uiso   1.00
C681   C     0.33000   0.92000   0.25000   0.00000  Uiso   1.00
C682   C     0.17000   0.58000   0.75000   0.00000  Uiso   1.00
C683   C     0.08002   0.83002   0.25000   0.00000  Uiso   1.00
C684   C     0.41998   0.66998   0.75000   0.00000  Uiso   1.00
C685   C     0.16998   0.91998   0.75000   0.00000  Uiso   1.00
C686   C     0.33002   0.58002   0.25000   0.00000  Uiso   1.00
C687   C     0.42000   0.83000   0.75000   0.00000  Uiso   1.00
C688   C     0.08000   0.67000   0.25000   0.00000  Uiso   1.00
C689   C     0.33002   0.58002   0.75000   0.00000  Uiso   1.00
C690   C     0.16998   0.91998   0.25000   0.00000  Uiso   1.00
C691   C     0.08000   0.67000   0.75000   0.00000  Uiso   1.00
C692   C     0.42000   0.83000   0.25000   0.00000  Uiso   1.00
C693   C     0.13833   0.88833   0.25000   0.00000  Uiso   1.00
C694   C     0.36167   0.61167   0.75000   0.00000  Uiso   1.00
C695   C     0.11165   0.63835   0.25000   0.00000  Uiso   1.00
C696   C     0.38835   0.86165   0.75000   0.00000  Uiso   1.00
C697   C     0.36167   0.61167   0.25000   0.00000  Uiso   1.00
C698   C     0.13833   0.88833   0.75000   0.00000  Uiso   1.00
C699   C     0.38835   0.86165   0.25000   0.00000  Uiso   1.00
C700   C     0.11165   0.63835   0.75000   0.00000  Uiso   1.00
C701   C     0.13835   0.61165   0.75000   0.00000  Uiso   1.00
C702   C     0.36165   0.88835   0.25000   0.00000  Uiso   1.00
C703   C     0.11167   0.86167   0.75000   0.00000  Uiso   1.00
C704   C     0.38833   0.63833   0.25000   0.00000  Uiso   1.00
C705   C     0.36165   0.88835   0.75000   0.00000  Uiso   1.00
C706   C     0.13835   0.61165   0.25000   0.00000  Uiso   1.00
C707   C     0.38833   0.63833   0.75000   0.00000  Uiso   1.00
C708   C     0.11167   0.86167   0.25000   0.00000  Uiso   1.00
C709   C     0.47332   0.77783   0.41828   0.00000  Uiso   1.00
C710   C     0.02443   0.72022   0.58191   0.00000  Uiso   1.00
C711   C     0.22022   0.52442   0.41809   0.00000  Uiso   1.00
C712   C     0.27783   0.97332   0.58172   0.00000  Uiso   1.00
C713   C     0.02668   0.72217   0.41828   0.00000  Uiso   1.00
C714   C     0.47557   0.77978   0.58191   0.00000  Uiso   1.00
C715   C     0.27978   0.97558   0.41809   0.00000  Uiso   1.00
C716   C     0.22217   0.52668   0.58172   0.00000  Uiso   1.00
C717   C     0.22340   0.52790   0.91828   0.00000  Uiso   1.00
C718   C     0.27428   0.97010   0.08191   0.00000  Uiso   1.00
C719   C     0.46984   0.77396   0.91808   0.00000  Uiso   1.00
C720   C     0.02801   0.72351   0.08172   0.00000  Uiso   1.00
C721   C     0.27660   0.97210   0.91828   0.00000  Uiso   1.00
C722   C     0.22572   0.52990   0.08191   0.00000  Uiso   1.00
C723   C     0.03016   0.72604   0.91808   0.00000  Uiso   1.00
C724   C     0.47199   0.77649   0.08172   0.00000  Uiso   1.00
C725   C     0.00000   0.75000   0.39829   0.00000  Uiso   1.00
C726   C     0.00000   0.75000   0.60185   0.00000  Uiso   1.00
C727   C     0.25000   0.50000   0.39815   0.00000  Uiso   1.00
C728   C     0.25000   0.50000   0.60171   0.00000  Uiso   1.00
C729   C     0.25000   0.50000   0.89829   0.00000  Uiso   1.00
C730   C     0.25000   0.50000   0.10186   0.00000  Uiso   1.00
C731   C    -0.00000   0.75000   0.89814   0.00000  Uiso   1.00
C732   C     0.00000   0.75000   0.10170   0.00000  Uiso   1.00
C733   C     0.02589   0.72090   0.45911   0.00000  Uiso   1.00
C734   C     0.47406   0.77899   0.54111   0.00000  Uiso   1.00
C735   C     0.27900   0.97407   0.45889   0.00000  Uiso   1.00
C736   C     0.22090   0.52589   0.54089   0.00000  Uiso   1.00
C737   C     0.47411   0.77910   0.45911   0.00000  Uiso   1.00
C738   C     0.02594   0.72101   0.54111   0.00000  Uiso   1.00
C739   C     0.22100   0.52593   0.45889   0.00000  Uiso   1.00
C740   C     0.27910   0.97411   0.54089   0.00000  Uiso   1.00
C741   C     0.27581   0.97082   0.95911   0.00000  Uiso   1.00
C742   C     0.22418   0.52910   0.04111   0.00000  Uiso   1.00
C743   C     0.02931   0.72443   0.95888   0.00000  Uiso   1.00
C744   C     0.47069   0.77566   0.04088   0.00000  Uiso   1.00
C745   C     0.22419   0.52918   0.95911   0.00000  Uiso   1.00
C746   C     0.27582   0.97090   0.04111   0.00000  Uiso   1.00
C747   C     0.47069   0.77557   0.95888   0.00000  Uiso   1.00
C748   C     0.02931   0.72434   0.04088   0.00000  Uiso   1.00
C749   C     0.00000   0.75000   0.47959   0.00000  Uiso   1.00
C750   C     0.00000   0.75000   0.52061   0.00000  Uiso   1.00
C751   C     0.25000   0.50000   0.47939   0.00000  Uiso   1.00
C752   C     0.25000   0.50000   0.52041   0.00000  Uiso   1.00
C753   C     0.25000   0.50000   0.97959   0.00000  Uiso   1.00
C754   C     0.25000   0.50000   0.02061   0.00000  Uiso   1.00
C755   C    -0.00000   0.75000   0.97938   0.00000  Uiso   1.00
C756   C    -0.00000   0.75000   0.02041   0.00000  Uiso   1.00
C757   C     0.05017   0.69114   0.48002   0.00000  Uiso   1.00
C758   C     0.44736   0.80658   0.52030   0.00000  Uiso   1.00
C759   C     0.30658   0.94736   0.47970   0.00000  Uiso   1.00
C760   C     0.19114   0.55016   0.51998   0.00000  Uiso   1.00
C761   C     0.44983   0.80886   0.48002   0.00000  Uiso   1.00
C762   C     0.05264   0.69342   0.52030   0.00000  Uiso   1.00
C763   C     0.19342   0.55264   0.47970   0.00000  Uiso   1.00
C764   C     0.30886   0.94984   0.51998   0.00000  Uiso   1.00
C765   C     0.29999   0.94099   0.98002   0.00000  Uiso   1.00
C766   C     0.19755   0.55676   0.02031   0.00000  Uiso   1.00
C767   C     0.05712   0.69795   0.97968   0.00000  Uiso   1.00
C768   C     0.44071   0.79967   0.01997   0.00000  Uiso   1.00
C769   C     0.20001   0.55901   0.98002   0.00000  Uiso   1.00
C770   C     0.30245   0.94324   0.02031   0.00000  Uiso   1.00
C771   C     0.44288   0.80205   0.97968   0.00000  Uiso   1.00
C772   C     0.05929   0.70033   0.01997   0.00000  Uiso   1.00
N773   N     0.44552   0.80465   0.39660   0.00000  Uiso   1.00
O774   O     0.46081   0.83449   0.37501   0.00000  Uiso   1.00
O775   O     0.40553   0.79596   0.39481   0.00000  Uiso   1.00
N776   N     0.04464   0.68716   0.60339   0.00000  Uiso   1.00
O777   O     0.08061   0.69371   0.62037   0.00000  Uiso   1.00
O778   O     0.02697   0.65033   0.60583   0.00000  Uiso   1.00
N779   N     0.18715   0.54463   0.39661   0.00000  Uiso   1.00
O780   O     0.19369   0.58059   0.37963   0.00000  Uiso   1.00
O781   O     0.15032   0.52696   0.39419   0.00000  Uiso   1.00
N782   N     0.30466   0.94553   0.60341   0.00000  Uiso   1.00
O783   O     0.33449   0.96081   0.62499   0.00000  Uiso   1.00
O784   O     0.29597   0.90553   0.60518   0.00000  Uiso   1.00
N785   N     0.05448   0.69535   0.39660   0.00000  Uiso   1.00
O786   O     0.03919   0.66551   0.37501   0.00000  Uiso   1.00
O787   O     0.09447   0.70404   0.39481   0.00000  Uiso   1.00
N788   N     0.45536   0.81284   0.60339   0.00000  Uiso   1.00
O789   O     0.41939   0.80629   0.62037   0.00000  Uiso   1.00
O790   O     0.47303   0.84967   0.60583   0.00000  Uiso   1.00
N791   N     0.31285   0.95537   0.39661   0.00000  Uiso   1.00
O792   O     0.30631   0.91941   0.37963   0.00000  Uiso   1.00
O793   O     0.34968   0.97304   0.39419   0.00000  Uiso   1.00
N794   N     0.19534   0.55448   0.60341   0.00000  Uiso   1.00
O795   O     0.16551   0.53919   0.62499   0.00000  Uiso   1.00
O796   O     0.20403   0.59447   0.60519   0.00000  Uiso   1.00
N797   N     0.19568   0.55480   0.89659   0.00000  Uiso   1.00
O798   O     0.21104   0.58459   0.87500   0.00000  Uiso   1.00
O799   O     0.15566   0.54622   0.89481   0.00000  Uiso   1.00
N800   N     0.29430   0.93691   0.10338   0.00000  Uiso   1.00
O801   O     0.33023   0.94329   0.12048   0.00000  Uiso   1.00
O802   O     0.27653   0.90012   0.10563   0.00000  Uiso   1.00
N803   N     0.43636   0.79351   0.89664   0.00000  Uiso   1.00
O804   O     0.44232   0.82932   0.87922   0.00000  Uiso   1.00
O805   O     0.39963   0.77552   0.89489   0.00000  Uiso   1.00
N806   N     0.05499   0.69587   0.10340   0.00000  Uiso   1.00
O807   O     0.08465   0.71133   0.12510   0.00000  Uiso   1.00
O808   O     0.04662   0.65580   0.10507   0.00000  Uiso   1.00
N809   N     0.30432   0.94520   0.89659   0.00000  Uiso   1.00
O810   O     0.28896   0.91541   0.87500   0.00000  Uiso   1.00
O811   O     0.34434   0.95378   0.89481   0.00000  Uiso   1.00
N812   N     0.20570   0.56309   0.10338   0.00000  Uiso   1.00
O813   O     0.16977   0.55671   0.12048   0.00000  Uiso   1.00
O814   O     0.22347   0.59988   0.10563   0.00000  Uiso   1.00
N815   N     0.06364   0.70649   0.89664   0.00000  Uiso   1.00
O816   O     0.05768   0.67068   0.87922   0.00000  Uiso   1.00
O817   O     0.10037   0.72447   0.89489   0.00000  Uiso   1.00
N818   N     0.44501   0.80414   0.10340   0.00000  Uiso   1.00
O819   O     0.41536   0.78867   0.12510   0.00000  Uiso   1.00
O820   O     0.45338   0.84421   0.10507   0.00000  Uiso   1.00
O821   O     0.07386   0.66060   0.46140   0.00000  Uiso   1.00
C822   C     0.05157   0.62222   0.46235   0.00000  Uiso   1.00
H823   H     0.01998   0.62540   0.44862   0.00000  Uiso   1.00
H824   H     0.04832   0.61017   0.49236   0.00000  Uiso   1.00
H825   H     0.06963   0.59840   0.44567   0.00000  Uiso   1.00
O826   O     0.41923   0.83299   0.53904   0.00000  Uiso   1.00
C827   C     0.37896   0.81427   0.53813   0.00000  Uiso   1.00
H828   H     0.37915   0.78283   0.55239   0.00000  Uiso   1.00
H829   H     0.36693   0.81136   0.50808   0.00000  Uiso   1.00
H830   H     0.35671   0.83475   0.55427   0.00000  Uiso   1.00
O831   O     0.33299   0.91923   0.46096   0.00000  Uiso   1.00
C832   C     0.31428   0.87896   0.46187   0.00000  Uiso   1.00
H833   H     0.28284   0.87916   0.44760   0.00000  Uiso   1.00
H834   H     0.31136   0.86693   0.49191   0.00000  Uiso   1.00
H835   H     0.33476   0.85672   0.44572   0.00000  Uiso   1.00
O836   O     0.16060   0.57385   0.53860   0.00000  Uiso   1.00
C837   C     0.12222   0.55156   0.53765   0.00000  Uiso   1.00
H838   H     0.12540   0.51998   0.55138   0.00000  Uiso   1.00
H839   H     0.11017   0.54831   0.50764   0.00000  Uiso   1.00
H840   H     0.09840   0.56962   0.55433   0.00000  Uiso   1.00
O841   O     0.42614   0.83940   0.46140   0.00000  Uiso   1.00
C842   C     0.44843   0.87778   0.46235   0.00000  Uiso   1.00
H843   H     0.48002   0.87460   0.44862   0.00000  Uiso   1.00
H844   H     0.45168   0.88983   0.49236   0.00000  Uiso   1.00
H845   H     0.43037   0.90160   0.44567   0.00000  Uiso   1.00
O846   O     0.08077   0.66701   0.53904   0.00000  Uiso   1.00
C847   C     0.12104   0.68573   0.53813   0.00000  Uiso   1.00
H848   H     0.12085   0.71717   0.55239   0.00000  Uiso   1.00
H849   H     0.13307   0.68864   0.50808   0.00000  Uiso   1.00
H850   H     0.14329   0.66525   0.55427   0.00000  Uiso   1.00
O851   O     0.16701   0.58077   0.46096   0.00000  Uiso   1.00
C852   C     0.18572   0.62104   0.46187   0.00000  Uiso   1.00
H853   H     0.21717   0.62084   0.44760   0.00000  Uiso   1.00
H854   H     0.18864   0.63307   0.49191   0.00000  Uiso   1.00
H855   H     0.16525   0.64328   0.44572   0.00000  Uiso   1.00
O856   O     0.33940   0.92615   0.53860   0.00000  Uiso   1.00
C857   C     0.37778   0.94844   0.53765   0.00000  Uiso   1.00
H858   H     0.37460   0.98002   0.55138   0.00000  Uiso   1.00
H859   H     0.38983   0.95169   0.50764   0.00000  Uiso   1.00
H860   H     0.40160   0.93038   0.55433   0.00000  Uiso   1.00
O861   O     0.32363   0.91041   0.96140   0.00000  Uiso   1.00
C862   C     0.30128   0.87206   0.96235   0.00000  Uiso   1.00
H863   H     0.26967   0.87529   0.94867   0.00000  Uiso   1.00
H864   H     0.29807   0.85999   0.99236   0.00000  Uiso   1.00
H865   H     0.31927   0.84823   0.94563   0.00000  Uiso   1.00
O866   O     0.16951   0.58325   0.03905   0.00000  Uiso   1.00
C867   C     0.12920   0.56462   0.03821   0.00000  Uiso   1.00
H868   H     0.12934   0.53323   0.05256   0.00000  Uiso   1.00
H869   H     0.11714   0.56163   0.00818   0.00000  Uiso   1.00
H870   H     0.10700   0.58520   0.05431   0.00000  Uiso   1.00
O871   O     0.08378   0.67007   0.96092   0.00000  Uiso   1.00
C872   C     0.06526   0.62970   0.96154   0.00000  Uiso   1.00
H873   H     0.03396   0.62981   0.94702   0.00000  Uiso   1.00
H874   H     0.06212   0.61753   0.99152   0.00000  Uiso   1.00
H875   H     0.08600   0.60763   0.94547   0.00000  Uiso   1.00
O876   O     0.41003   0.82318   0.03859   0.00000  Uiso   1.00
C877   C     0.37182   0.80059   0.03777   0.00000  Uiso   1.00
H878   H     0.37527   0.76907   0.05156   0.00000  Uiso   1.00
H879   H     0.35971   0.79718   0.00779   0.00000  Uiso   1.00
H880   H     0.34790   0.81851   0.05446   0.00000  Uiso   1.00
O881   O     0.17638   0.58959   0.96140   0.00000  Uiso   1.00
C882   C     0.19872   0.62794   0.96235   0.00000  Uiso   1.00
H883   H     0.23033   0.62471   0.94867   0.00000  Uiso   1.00
H884   H     0.20194   0.64001   0.99236   0.00000  Uiso   1.00
H885   H     0.18073   0.65177   0.94563   0.00000  Uiso   1.00
O886   O     0.33049   0.91675   0.03905   0.00000  Uiso   1.00
C887   C     0.37080   0.93538   0.03821   0.00000  Uiso   1.00
H888   H     0.37066   0.96678   0.05256   0.00000  Uiso   1.00
H889   H     0.38286   0.93837   0.00818   0.00000  Uiso   1.00
H890   H     0.39300   0.91480   0.05431   0.00000  Uiso   1.00
O891   O     0.41622   0.82992   0.96092   0.00000  Uiso   1.00
C892   C     0.43473   0.87029   0.96154   0.00000  Uiso   1.00
H893   H     0.46603   0.87019   0.94702   0.00000  Uiso   1.00
H894   H     0.43787   0.88247   0.99152   0.00000  Uiso   1.00
H895   H     0.41398   0.89237   0.94547   0.00000  Uiso   1.00
O896   O     0.08997   0.67682   0.03859   0.00000  Uiso   1.00
C897   C     0.12818   0.69940   0.03776   0.00000  Uiso   1.00
H898   H     0.12473   0.73093   0.05155   0.00000  Uiso   1.00
H899   H     0.14029   0.70281   0.00778   0.00000  Uiso   1.00
H900   H     0.15210   0.68148   0.05445   0.00000  Uiso   1.00
Zn901  Zn    0.70053   0.50000   0.21730   0.00000  Uiso   1.00
Zn902  Zn    0.79948   0.50000   0.78270   0.00000  Uiso   1.00
Zn903  Zn    0.50000   0.70053   0.21730   0.00000  Uiso   1.00
Zn904  Zn    0.50000   0.79948   0.78270   0.00000  Uiso   1.00
Zn905  Zn    0.79948   0.50000   0.21730   0.00000  Uiso   1.00
Zn906  Zn    0.70053   0.50000   0.78270   0.00000  Uiso   1.00
Zn907  Zn    0.50000   0.79948   0.21730   0.00000  Uiso   1.00
Zn908  Zn    0.50000   0.70053   0.78270   0.00000  Uiso   1.00
Zn909  Zn    0.95053   0.75000   0.71730   0.00000  Uiso   1.00
Zn910  Zn    0.54948   0.75000   0.28270   0.00000  Uiso   1.00
Zn911  Zn    0.75000   0.95053   0.71730   0.00000  Uiso   1.00
Zn912  Zn    0.75000   0.54948   0.28270   0.00000  Uiso   1.00
Zn913  Zn    0.54948   0.75000   0.71730   0.00000  Uiso   1.00
Zn914  Zn    0.95053   0.75000   0.28270   0.00000  Uiso   1.00
Zn915  Zn    0.75000   0.54948   0.71730   0.00000  Uiso   1.00
Zn916  Zn    0.75000   0.95053   0.28270   0.00000  Uiso   1.00
O917   O     0.75000   0.50000   0.25000   0.00000  Uiso   1.00
O918   O     0.75000   0.50000   0.75000   0.00000  Uiso   1.00
O919   O     0.50000   0.75000   0.25000   0.00000  Uiso   1.00
O920   O     0.50000   0.75000   0.75000   0.00000  Uiso   1.00
O921   O     0.75000   0.96539   0.33749   0.00000  Uiso   1.00
O922   O     0.75000   0.53462   0.66251   0.00000  Uiso   1.00
O923   O     0.53462   0.75000   0.33749   0.00000  Uiso   1.00
O924   O     0.96539   0.75000   0.66251   0.00000  Uiso   1.00
O925   O     0.75000   0.53462   0.33749   0.00000  Uiso   1.00
O926   O     0.75000   0.96539   0.66251   0.00000  Uiso   1.00
O927   O     0.96539   0.75000   0.33749   0.00000  Uiso   1.00
O928   O     0.53462   0.75000   0.66251   0.00000  Uiso   1.00
O929   O     0.50000   0.71539   0.83749   0.00000  Uiso   1.00
O930   O     0.50000   0.78462   0.16251   0.00000  Uiso   1.00
O931   O     0.78462   0.50000   0.83749   0.00000  Uiso   1.00
O932   O     0.71539   0.50000   0.16251   0.00000  Uiso   1.00
O933   O     0.50000   0.78462   0.83749   0.00000  Uiso   1.00
O934   O     0.50000   0.71539   0.16251   0.00000  Uiso   1.00
O935   O     0.71539   0.50000   0.83749   0.00000  Uiso   1.00
O936   O     0.78462   0.50000   0.16251   0.00000  Uiso   1.00
O937   O     0.70127   0.58332   0.27298   0.00000  Uiso   1.00
O938   O     0.79874   0.91668   0.72702   0.00000  Uiso   1.00
O939   O     0.91668   0.70127   0.27298   0.00000  Uiso   1.00
O940   O     0.58332   0.79874   0.72702   0.00000  Uiso   1.00
O941   O     0.79874   0.91668   0.27298   0.00000  Uiso   1.00
O942   O     0.70127   0.58332   0.72702   0.00000  Uiso   1.00
O943   O     0.58332   0.79874   0.27298   0.00000  Uiso   1.00
O944   O     0.91668   0.70127   0.72702   0.00000  Uiso   1.00
O945   O     0.70127   0.91668   0.72702   0.00000  Uiso   1.00
O946   O     0.79874   0.58332   0.27298   0.00000  Uiso   1.00
O947   O     0.91668   0.79874   0.72702   0.00000  Uiso   1.00
O948   O     0.58332   0.70127   0.27298   0.00000  Uiso   1.00
O949   O     0.79874   0.58332   0.72702   0.00000  Uiso   1.00
O950   O     0.70127   0.91668   0.27298   0.00000  Uiso   1.00
O951   O     0.58332   0.70127   0.72702   0.00000  Uiso   1.00
O952   O     0.91668   0.79874   0.27298   0.00000  Uiso   1.00
O953   O     0.95127   0.83332   0.77298   0.00000  Uiso   1.00
O954   O     0.54874   0.66668   0.22702   0.00000  Uiso   1.00
O955   O     0.66668   0.95127   0.77298   0.00000  Uiso   1.00
O956   O     0.83332   0.54874   0.22702   0.00000  Uiso   1.00
O957   O     0.54874   0.66668   0.77298   0.00000  Uiso   1.00
O958   O     0.95127   0.83332   0.22702   0.00000  Uiso   1.00
O959   O     0.83332   0.54874   0.77298   0.00000  Uiso   1.00
O960   O     0.66668   0.95127   0.22702   0.00000  Uiso   1.00
O961   O     0.95127   0.66668   0.22702   0.00000  Uiso   1.00
O962   O     0.54874   0.83332   0.77298   0.00000  Uiso   1.00
O963   O     0.66668   0.54874   0.22702   0.00000  Uiso   1.00
O964   O     0.83332   0.95127   0.77298   0.00000  Uiso   1.00
O965   O     0.54874   0.83332   0.22702   0.00000  Uiso   1.00
O966   O     0.95127   0.66668   0.77298   0.00000  Uiso   1.00
O967   O     0.83332   0.95127   0.22702   0.00000  Uiso   1.00
O968   O     0.66668   0.54874   0.77298   0.00000  Uiso   1.00
C969   C     0.75000   0.50000   0.35588   0.00000  Uiso   1.00
C970   C     0.75000   0.50000   0.64408   0.00000  Uiso   1.00
C971   C     0.50000   0.75000   0.35592   0.00000  Uiso   1.00
C972   C     0.50000   0.75000   0.64412   0.00000  Uiso   1.00
C973   C     0.50000   0.75000   0.85587   0.00000  Uiso   1.00
C974   C     0.50000   0.75000   0.14408   0.00000  Uiso   1.00
C975   C     0.75000   0.50000   0.85592   0.00000  Uiso   1.00
C976   C     0.75000   0.50000   0.14412   0.00000  Uiso   1.00
C977   C     0.67000   0.58000   0.25000   0.00000  Uiso   1.00
C978   C     0.83000   0.92000   0.75000   0.00000  Uiso   1.00
C979   C     0.91998   0.66998   0.25000   0.00000  Uiso   1.00
C980   C     0.58002   0.83002   0.75000   0.00000  Uiso   1.00
C981   C     0.83000   0.92000   0.25000   0.00000  Uiso   1.00
C982   C     0.67000   0.58000   0.75000   0.00000  Uiso   1.00
C983   C     0.58002   0.83002   0.25000   0.00000  Uiso   1.00
C984   C     0.91998   0.66998   0.75000   0.00000  Uiso   1.00
C985   C     0.66998   0.91998   0.75000   0.00000  Uiso   1.00
C986   C     0.83002   0.58002   0.25000   0.00000  Uiso   1.00
C987   C     0.92000   0.83000   0.75000   0.00000  Uiso   1.00
C988   C     0.58000   0.67000   0.25000   0.00000  Uiso   1.00
C989   C     0.83002   0.58002   0.75000   0.00000  Uiso   1.00
C990   C     0.66998   0.91998   0.25000   0.00000  Uiso   1.00
C991   C     0.58000   0.67000   0.75000   0.00000  Uiso   1.00
C992   C     0.92000   0.83000   0.25000   0.00000  Uiso   1.00
C993   C     0.63833   0.88833   0.25000   0.00000  Uiso   1.00
C994   C     0.86167   0.61167   0.75000   0.00000  Uiso   1.00
C995   C     0.61165   0.63835   0.25000   0.00000  Uiso   1.00
C996   C     0.88835   0.86165   0.75000   0.00000  Uiso   1.00
C997   C     0.86167   0.61167   0.25000   0.00000  Uiso   1.00
C998   C     0.63833   0.88833   0.75000   0.00000  Uiso   1.00
C999   C     0.88835   0.86165   0.25000   0.00000  Uiso   1.00
C1000  C     0.61165   0.63835   0.75000   0.00000  Uiso   1.00
C1001  C     0.63835   0.61165   0.75000   0.00000  Uiso   1.00
C1002  C     0.86165   0.88835   0.25000   0.00000  Uiso   1.00
C1003  C     0.61167   0.86167   0.75000   0.00000  Uiso   1.00
C1004  C     0.88833   0.63833   0.25000   0.00000  Uiso   1.00
C1005  C     0.86165   0.88835   0.75000   0.00000  Uiso   1.00
C1006  C     0.63835   0.61165   0.25000   0.00000  Uiso   1.00
C1007  C     0.88833   0.63833   0.75000   0.00000  Uiso   1.00
C1008  C     0.61167   0.86167   0.25000   0.00000  Uiso   1.00
C1009  C     0.97332   0.77783   0.41828   0.00000  Uiso   1.00
C1010  C     0.52443   0.72022   0.58191   0.00000  Uiso   1.00
C1011  C     0.72022   0.52442   0.41809   0.00000  Uiso   1.00
C1012  C     0.77783   0.97332   0.58172   0.00000  Uiso   1.00
C1013  C     0.52668   0.72217   0.41828   0.00000  Uiso   1.00
C1014  C     0.97557   0.77978   0.58191   0.00000  Uiso   1.00
C1015  C     0.77978   0.97558   0.41809   0.00000  Uiso   1.00
C1016  C     0.72217   0.52668   0.58172   0.00000  Uiso   1.00
C1017  C     0.72340   0.52790   0.91828   0.00000  Uiso   1.00
C1018  C     0.77428   0.97010   0.08191   0.00000  Uiso   1.00
C1019  C     0.96984   0.77396   0.91808   0.00000  Uiso   1.00
C1020  C     0.52801   0.72351   0.08172   0.00000  Uiso   1.00
C1021  C     0.77660   0.97210   0.91828   0.00000  Uiso   1.00
C1022  C     0.72572   0.52990   0.08191   0.00000  Uiso   1.00
C1023  C     0.53016   0.72604   0.91808   0.00000  Uiso   1.00
C1024  C     0.97199   0.77649   0.08172   0.00000  Uiso   1.00
C1025  C     0.50000   0.75000   0.39829   0.00000  Uiso   1.00
C1026  C     0.50000   0.75000   0.60185   0.00000  Uiso   1.00
C1027  C     0.75000   0.50000   0.39815   0.00000  Uiso   1.00
C1028  C     0.75000   0.50000   0.60171   0.00000  Uiso   1.00
C1029  C     0.75000   0.50000   0.89829   0.00000  Uiso   1.00
C1030  C     0.75000   0.50000   0.10186   0.00000  Uiso   1.00
C1031  C     0.50000   0.75000   0.89814   0.00000  Uiso   1.00
C1032  C     0.50000   0.75000   0.10170   0.00000  Uiso   1.00
C1033  C     0.52589   0.72090   0.45911   0.00000  Uiso   1.00
C1034  C     0.97406   0.77899   0.54111   0.00000  Uiso   1.00
C1035  C     0.77900   0.97407   0.45889   0.00000  Uiso   1.00
C1036  C     0.72090   0.52589   0.54089   0.00000  Uiso   1.00
C1037  C     0.97411   0.77910   0.45911   0.00000  Uiso   1.00
C1038  C     0.52594   0.72101   0.54111   0.00000  Uiso   1.00
C1039  C     0.72100   0.52593   0.45889   0.00000  Uiso   1.00
C1040  C     0.77910   0.97411   0.54089   0.00000  Uiso   1.00
C1041  C     0.77581   0.97082   0.95911   0.00000  Uiso   1.00
C1042  C     0.72418   0.52910   0.04111   0.00000  Uiso   1.00
C1043  C     0.52931   0.72443   0.95888   0.00000  Uiso   1.00
C1044  C     0.97069   0.77566   0.04088   0.00000  Uiso   1.00
C1045  C     0.72419   0.52918   0.95911   0.00000  Uiso   1.00
C1046  C     0.77582   0.97090   0.04111   0.00000  Uiso   1.00
C1047  C     0.97069   0.77557   0.95888   0.00000  Uiso   1.00
C1048  C     0.52931   0.72434   0.04088   0.00000  Uiso   1.00
C1049  C     0.50000   0.75000   0.47959   0.00000  Uiso   1.00
C1050  C     0.50000   0.75000   0.52061   0.00000  Uiso   1.00
C1051  C     0.75000   0.50000   0.47939   0.00000  Uiso   1.00
C1052  C     0.75000   0.50000   0.52041   0.00000  Uiso   1.00
C1053  C     0.75000   0.50000   0.97959   0.00000  Uiso   1.00
C1054  C     0.75000   0.50000   0.02061   0.00000  Uiso   1.00
C1055  C     0.50000   0.75000   0.97938   0.00000  Uiso   1.00
C1056  C     0.50000   0.75000   0.02041   0.00000  Uiso   1.00
C1057  C     0.55017   0.69114   0.48002   0.00000  Uiso   1.00
C1058  C     0.94736   0.80658   0.52030   0.00000  Uiso   1.00
C1059  C     0.80658   0.94736   0.47970   0.00000  Uiso   1.00
C1060  C     0.69114   0.55016   0.51998   0.00000  Uiso   1.00
C1061  C     0.94983   0.80886   0.48002   0.00000  Uiso   1.00
C1062  C     0.55264   0.69342   0.52030   0.00000  Uiso   1.00
C1063  C     0.69342   0.55264   0.47970   0.00000  Uiso   1.00
C1064  C     0.80886   0.94984   0.51998   0.00000  Uiso   1.00
C1065  C     0.79999   0.94099   0.98002   0.00000  Uiso   1.00
C1066  C     0.69755   0.55676   0.02031   0.00000  Uiso   1.00
C1067  C     0.55712   0.69795   0.97968   0.00000  Uiso   1.00
C1068  C     0.94071   0.79967   0.01997   0.00000  Uiso   1.00
C1069  C     0.70001   0.55901   0.98002   0.00000  Uiso   1.00
C1070  C     0.80245   0.94324   0.02031   0.00000  Uiso   1.00
C1071  C     0.94288   0.80205   0.97968   0.00000  Uiso   1.00
C1072  C     0.55929   0.70033   0.01997   0.00000  Uiso   1.00
N1073  N     0.94552   0.80465   0.39660   0.00000  Uiso   1.00
O1074  O     0.96081   0.83449   0.37501   0.00000  Uiso   1.00
O1075  O     0.90553   0.79596   0.39481   0.00000  Uiso   1.00
N1076  N     0.54464   0.68716   0.60339   0.00000  Uiso   1.00
O1077  O     0.58061   0.69371   0.62037   0.00000  Uiso   1.00
O1078  O     0.52697   0.65033   0.60583   0.00000  Uiso   1.00
N1079  N     0.68715   0.54463   0.39661   0.00000  Uiso   1.00
O1080  O     0.69369   0.58059   0.37963   0.00000  Uiso   1.00
O1081  O     0.65032   0.52696   0.39419   0.00000  Uiso   1.00
N1082  N     0.80466   0.94553   0.60341   0.00000  Uiso   1.00
O1083  O     0.83449   0.96081   0.62499   0.00000  Uiso   1.00
O1084  O     0.79597   0.90553   0.60518   0.00000  Uiso   1.00
N1085  N     0.55448   0.69535   0.39660   0.00000  Uiso   1.00
O1086  O     0.53919   0.66551   0.37501   0.00000  Uiso   1.00
O1087  O     0.59447   0.70404   0.39481   0.00000  Uiso   1.00
N1088  N     0.95536   0.81284   0.60339   0.00000  Uiso   1.00
O1089  O     0.91939   0.80629   0.62037   0.00000  Uiso   1.00
O1090  O     0.97303   0.84967   0.60583   0.00000  Uiso   1.00
N1091  N     0.81285   0.95537   0.39661   0.00000  Uiso   1.00
O1092  O     0.80631   0.91941   0.37963   0.00000  Uiso   1.00
O1093  O     0.84968   0.97304   0.39419   0.00000  Uiso   1.00
N1094  N     0.69534   0.55448   0.60341   0.00000  Uiso   1.00
O1095  O     0.66551   0.53919   0.62499   0.00000  Uiso   1.00
O1096  O     0.70403   0.59447   0.60519   0.00000  Uiso   1.00
N1097  N     0.69568   0.55480   0.89659   0.00000  Uiso   1.00
O1098  O     0.71104   0.58459   0.87500   0.00000  Uiso   1.00
O1099  O     0.65566   0.54622   0.89481   0.00000  Uiso   1.00
N1100  N     0.79430   0.93691   0.10338   0.00000  Uiso   1.00
O1101  O     0.83023   0.94329   0.12048   0.00000  Uiso   1.00
O1102  O     0.77653   0.90012   0.10563   0.00000  Uiso   1.00
N1103  N     0.93636   0.79351   0.89664   0.00000  Uiso   1.00
O1104  O     0.94232   0.82932   0.87922   0.00000  Uiso   1.00
O1105  O     0.89963   0.77552   0.89489   0.00000  Uiso   1.00
N1106  N     0.55499   0.69587   0.10340   0.00000  Uiso   1.00
O1107  O     0.58465   0.71133   0.12510   0.00000  Uiso   1.00
O1108  O     0.54662   0.65580   0.10507   0.00000  Uiso   1.00
N1109  N     0.80432   0.94520   0.89659   0.00000  Uiso   1.00
O1110  O     0.78896   0.91541   0.87500   0.00000  Uiso   1.00
O1111  O     0.84434   0.95378   0.89481   0.00000  Uiso   1.00
N1112  N     0.70570   0.56309   0.10338   0.00000  Uiso   1.00
O1113  O     0.66977   0.55671   0.12048   0.00000  Uiso   1.00
O1114  O     0.72347   0.59988   0.10563   0.00000  Uiso   1.00
N1115  N     0.56364   0.70649   0.89664   0.00000  Uiso   1.00
O1116  O     0.55768   0.67068   0.87922   0.00000  Uiso   1.00
O1117  O     0.60037   0.72447   0.89489   0.00000  Uiso   1.00
N1118  N     0.94501   0.80414   0.10340   0.00000  Uiso   1.00
O1119  O     0.91536   0.78867   0.12510   0.00000  Uiso   1.00
O1120  O     0.95338   0.84421   0.10507   0.00000  Uiso   1.00
O1121  O     0.57386   0.66060   0.46140   0.00000  Uiso   1.00
C1122  C     0.55157   0.62222   0.46235   0.00000  Uiso   1.00
H1123  H     0.51998   0.62540   0.44862   0.00000  Uiso   1.00
H1124  H     0.54832   0.61017   0.49236   0.00000  Uiso   1.00
H1125  H     0.56963   0.59840   0.44567   0.00000  Uiso   1.00
O1126  O     0.91923   0.83299   0.53904   0.00000  Uiso   1.00
C1127  C     0.87896   0.81427   0.53813   0.00000  Uiso   1.00
H1128  H     0.87915   0.78283   0.55239   0.00000  Uiso   1.00
H1129  H     0.86693   0.81136   0.50808   0.00000  Uiso   1.00
H1130  H     0.85671   0.83475   0.55427   0.00000  Uiso   1.00
O1131  O     0.83299   0.91923   0.46096   0.00000  Uiso   1.00
C1132  C     0.81428   0.87896   0.46187   0.00000  Uiso   1.00
H1133  H     0.78284   0.87916   0.44760   0.00000  Uiso   1.00
H1134  H     0.81136   0.86693   0.49191   0.00000  Uiso   1.00
H1135  H     0.83476   0.85672   0.44572   0.00000  Uiso   1.00
O1136  O     0.66060   0.57385   0.53860   0.00000  Uiso   1.00
C1137  C     0.62222   0.55156   0.53765   0.00000  Uiso   1.00
H1138  H     0.62540   0.51998   0.55138   0.00000  Uiso   1.00
H1139  H     0.61017   0.54831   0.50764   0.00000  Uiso   1.00
H1140  H     0.59840   0.56962   0.55433   0.00000  Uiso   1.00
O1141  O     0.92614   0.83940   0.46140   0.00000  Uiso   1.00
C1142  C     0.94843   0.87778   0.46235   0.00000  Uiso   1.00
H1143  H     0.98002   0.87460   0.44862   0.00000  Uiso   1.00
H1144  H     0.95168   0.88983   0.49236   0.00000  Uiso   1.00
H1145  H     0.93037   0.90160   0.44567   0.00000  Uiso   1.00
O1146  O     0.58077   0.66701   0.53904   0.00000  Uiso   1.00
C1147  C     0.62104   0.68573   0.53813   0.00000  Uiso   1.00
H1148  H     0.62085   0.71717   0.55239   0.00000  Uiso   1.00
H1149  H     0.63307   0.68864   0.50808   0.00000  Uiso   1.00
H1150  H     0.64329   0.66525   0.55427   0.00000  Uiso   1.00
O1151  O     0.66701   0.58077   0.46096   0.00000  Uiso   1.00
C1152  C     0.68572   0.62104   0.46187   0.00000  Uiso   1.00
H1153  H     0.71717   0.62084   0.44760   0.00000  Uiso   1.00
H1154  H     0.68864   0.63307   0.49191   0.00000  Uiso   1.00
H1155  H     0.66525   0.64328   0.44572   0.00000  Uiso   1.00
O1156  O     0.83940   0.92615   0.53860   0.00000  Uiso   1.00
C1157  C     0.87778   0.94844   0.53765   0.00000  Uiso   1.00
H1158  H     0.87460   0.98002   0.55138   0.00000  Uiso   1.00
H1159  H     0.88983   0.95169   0.50764   0.00000  Uiso   1.00
H1160  H     0.90160   0.93038   0.55433   0.00000  Uiso   1.00
O1161  O     0.82363   0.91041   0.96140   0.00000  Uiso   1.00
C1162  C     0.80128   0.87206   0.96235   0.00000  Uiso   1.00
H1163  H     0.76967   0.87529   0.94867   0.00000  Uiso   1.00
H1164  H     0.79807   0.85999   0.99236   0.00000  Uiso   1.00
H1165  H     0.81927   0.84823   0.94563   0.00000  Uiso   1.00
O1166  O     0.66951   0.58325   0.03905   0.00000  Uiso   1.00
C1167  C     0.62920   0.56462   0.03821   0.00000  Uiso   1.00
H1168  H     0.62934   0.53323   0.05256   0.00000  Uiso   1.00
H1169  H     0.61714   0.56163   0.00818   0.00000  Uiso   1.00
H1170  H     0.60700   0.58520   0.05431   0.00000  Uiso   1.00
O1171  O     0.58378   0.67007   0.96092   0.00000  Uiso   1.00
C1172  C     0.56526   0.62970   0.96154   0.00000  Uiso   1.00
H1173  H     0.53396   0.62981   0.94702   0.00000  Uiso   1.00
H1174  H     0.56212   0.61753   0.99152   0.00000  Uiso   1.00
H1175  H     0.58600   0.60763   0.94547   0.00000  Uiso   1.00
O1176  O     0.91003   0.82318   0.03859   0.00000  Uiso   1.00
C1177  C     0.87182   0.80059   0.03777   0.00000  Uiso   1.00
H1178  H     0.87527   0.76907   0.05156   0.00000  Uiso   1.00
H1179  H     0.85971   0.79718   0.00779   0.00000  Uiso   1.00
H1180  H     0.84790   0.81851   0.05446   0.00000  Uiso   1.00
O1181  O     0.67638   0.58959   0.96140   0.00000  Uiso   1.00
C1182  C     0.69872   0.62794   0.96235   0.00000  Uiso   1.00
H1183  H     0.73033   0.62471   0.94867   0.00000  Uiso   1.00
H1184  H     0.70194   0.64001   0.99236   0.00000  Uiso   1.00
H1185  H     0.68073   0.65177   0.94563   0.00000  Uiso   1.00
O1186  O     0.83049   0.91675   0.03905   0.00000  Uiso   1.00
C1187  C     0.87080   0.93538   0.03821   0.00000  Uiso   1.00
H1188  H     0.87066   0.96678   0.05256   0.00000  Uiso   1.00
H1189  H     0.88286   0.93837   0.00818   0.00000  Uiso   1.00
H1190  H     0.89300   0.91480   0.05431   0.00000  Uiso   1.00
O1191  O     0.91622   0.82992   0.96092   0.00000  Uiso   1.00
C1192  C     0.93473   0.87029   0.96154   0.00000  Uiso   1.00
H1193  H     0.96603   0.87019   0.94702   0.00000  Uiso   1.00
H1194  H     0.93787   0.88247   0.99152   0.00000  Uiso   1.00
H1195  H     0.91398   0.89237   0.94547   0.00000  Uiso   1.00
O1196  O     0.58997   0.67682   0.03859   0.00000  Uiso   1.00
C1197  C     0.62818   0.69940   0.03776   0.00000  Uiso   1.00
H1198  H     0.62473   0.73093   0.05155   0.00000  Uiso   1.00
H1199  H     0.64029   0.70281   0.00778   0.00000  Uiso   1.00
H1200  H     0.65210   0.68148   0.05445   0.00000  Uiso   1.00
loop_
_geom_bond_atom_site_label_1
_geom_bond_atom_site_label_2
_geom_bond_distance
_geom_bond_site_symmetry_2
_ccdc_geom_bond_type
Zn1    O17     1.936   .     S
Zn1    O63     1.910   .     S
Zn1    O32     1.954   .     S
Zn1    O660    1.916   1_545 S
Zn2    O31     1.954   .     S
Zn2    O59     1.916   .     S
Zn2    O18     1.936   .     S
Zn2    O664    1.910   1_545 S
Zn3    O54     1.910   .     S
Zn3    O19     1.936   .     S
Zn3    O34     1.954   .     S
Zn3    O361    1.916   1_455 S
Zn4    O20     1.936   .     S
Zn4    O353    1.910   1_455 S
Zn4    O33     1.954   .     S
Zn4    O62     1.916   .     S
Zn5    O56     1.916   .     S
Zn5    O17     1.936   .     S
Zn5    O36     1.954   .     S
Zn5    O667    1.910   1_545 S
Zn6    O35     1.954   .     S
Zn6    O68     1.910   .     S
Zn6    O18     1.936   .     S
Zn6    O655    1.916   1_545 S
Zn7    O30     1.954   .     S
Zn7    O65     1.916   .     S
Zn7    O19     1.936   .     S
Zn7    O358    1.910   1_455 S
Zn8    O29     1.954   .     S
Zn8    O366    1.916   1_455 S
Zn8    O20     1.936   .     S
Zn8    O57     1.910   .     S
Zn9    O320    1.936   .     S
Zn9    O47     1.910   .     S
Zn9    O44     1.916   .     S
Zn9    O24     1.954   .     S
Zn10   O19     1.936   .     S
Zn10   O48     1.910   .     S
Zn10   O43     1.916   .     S
Zn10   O23     1.954   .     S
Zn11   O38     1.910   .     S
Zn11   O45     1.916   .     S
Zn11   O26     1.954   .     S
Zn11   O618    1.936   .     S
Zn12   O46     1.916   .     S
Zn12   O37     1.910   .     S
Zn12   O17     1.936   .     S
Zn12   O25     1.954   .     S
Zn13   O51     1.910   .     S
Zn13   O40     1.916   .     S
Zn13   O28     1.954   .     S
Zn13   O20     1.936   .     S
Zn14   O52     1.910   .     S
Zn14   O39     1.916   .     S
Zn14   O27     1.954   .     S
Zn14   O319    1.936   .     S
Zn15   O42     1.910   .     S
Zn15   O18     1.936   .     S
Zn15   O49     1.916   .     S
Zn15   O22     1.954   .     S
Zn16   O21     1.954   .     S
Zn16   O41     1.910   .     S
Zn16   O50     1.916   .     S
Zn16   O617    1.936   .     S
O17    Zn616   1.936   1_545 S
O18    Zn611   1.936   1_545 S
O19    Zn314   1.936   1_455 S
O20    Zn309   1.936   1_455 S
O21    C669    1.270   .     A
O22    C70     1.270   .     S
O23    C71     1.270   .     S
O24    C372    1.270   .     A
O25    C69     1.270   .     S
O26    C670    1.270   .     A
O27    C371    1.270   .     A
O28    C72     1.270   .     S
O29    C73     1.270   .     S
O30    C74     1.270   .     A
O31    C75     1.270   .     A
O32    C76     1.270   .     A
O33    C73     1.270   .     S
O34    C74     1.270   .     A
O35    C75     1.270   .     A
O36    C76     1.270   .     A
O37    C77     1.276   .     A
O38    C78     1.276   .     A
O39    C79     1.276   .     A
O40    C80     1.276   .     A
O41    C81     1.276   .     A
O42    C82     1.276   .     A
O43    C83     1.276   .     A
O44    C84     1.276   .     A
O45    C85     1.276   .     A
O46    C86     1.276   .     A
O47    C87     1.276   .     A
O48    C88     1.276   .     A
O49    C89     1.276   .     A
O50    C90     1.276   .     A
O51    C91     1.276   .     A
O52    C92     1.276   .     A
O53    C87     1.276   .     A
O53    Zn304   1.910   .     S
O54    C88     1.276   .     A
O55    C85     1.276   .     A
O55    Zn606   1.916   .     S
O56    C86     1.276   .     A
O57    C91     1.276   .     A
O58    C92     1.276   .     A
O58    Zn307   1.910   .     S
O59    C89     1.276   .     A
O60    C90     1.276   .     A
O60    Zn601   1.916   .     S
O61    C79     1.276   .     A
O61    Zn303   1.916   .     S
O62    C80     1.276   .     A
O63    C77     1.276   .     A
O64    C78     1.276   .     A
O64    Zn602   1.910   .     S
O65    C83     1.276   .     A
O66    Zn308   1.916   .     S
O66    C84     1.276   .     A
O67    C81     1.276   .     A
O67    Zn605   1.910   .     S
O68    C82     1.276   .     A
C69    O621    1.270   1_545 A
C69    C127    1.463   .     S
C70    O626    1.270   1_545 A
C70    C128    1.467   .     S
C71    O327    1.270   1_455 A
C71    C125    1.467   .     S
C72    O324    1.270   1_455 A
C72    C126    1.463   .     S
C73    C131    1.463   .     S
C74    C132    1.467   .     S
C75    C129    1.467   .     S
C76    C130    1.463   .     S
C77    C106    1.419   .     S
C78    C105    1.419   .     S
C79    C104    1.423   .     S
C80    C103    1.423   .     S
C81    C102    1.419   .     S
C82    C101    1.419   .     S
C83    C108    1.423   .     S
C84    C107    1.423   .     S
C85    C98     1.423   .     S
C86    C97     1.423   .     S
C87    C96     1.419   .     S
C88    C95     1.419   .     S
C89    C94     1.423   .     S
C90    C93     1.423   .     S
C91    C100    1.419   .     S
C92    C99     1.419   .     S
C93    C108    1.199   .     T
C94    C107    1.199   .     T
C95    C106    1.196   .     T
C96    C105    1.196   .     T
C97    C104    1.199   .     T
C98    C103    1.199   .     T
C99    C102    1.196   .     T
C100   C101    1.196   .     T
C109   N173    1.436   .     S
C109   C137    1.414   .     A
C109   C425    1.404   .     A
C110   C138    1.413   .     A
C110   N176    1.436   .     S
C110   C126    1.402   .     A
C111   C139    1.413   .     A
C111   N179    1.436   .     S
C111   C127    1.402   .     S
C112   N182    1.436   .     S
C112   C140    1.414   .     A
C112   C728    1.404   .     S
C113   C133    1.414   .     A
C113   N185    1.436   .     S
C113   C125    1.404   .     S
C114   C134    1.413   .     A
C114   N188    1.436   .     S
C114   C426    1.402   .     S
C115   N191    1.436   .     S
C115   C135    1.413   .     A
C115   C727    1.402   .     A
C116   N194    1.436   .     S
C116   C136    1.414   .     A
C116   C128    1.404   .     A
C117   C129    1.404   .     A
C117   C145    1.414   .     A
C117   N197    1.436   .     S
C118   N200    1.436   .     S
C118   C730    1.402   .     A
C118   C146    1.413   .     A
C119   C431    1.402   .     A
C119   C147    1.413   .     A
C119   N203    1.436   .     S
C120   C148    1.415   .     A
C120   N206    1.436   .     S
C120   C132    1.404   .     S
C121   C141    1.414   .     A
C121   N209    1.436   .     S
C121   C729    1.404   .     S
C122   N212    1.436   .     S
C122   C142    1.413   .     A
C122   C130    1.402   .     S
C123   N215    1.436   .     S
C123   C143    1.413   .     A
C123   C131    1.402   .     S
C124   C432    1.404   .     A
C124   N218    1.436   .     S
C124   C144    1.415   .     A
C125   C409    1.404   1_455 A
C126   C414    1.402   1_455 S
C127   C715    1.402   1_545 A
C128   C712    1.404   1_545 S
C129   C721    1.404   1_545 S
C130   C718    1.402   1_545 A
C131   C419    1.402   1_455 A
C132   C424    1.404   1_455 A
C133   C157    1.416   .     A
C133   C149    1.423   .     A
C134   C158    1.414   .     A
C134   C450    1.422   .     S
C135   C159    1.414   .     A
C135   C751    1.422   .     S
C136   C152    1.423   .     A
C136   C160    1.416   .     A
C137   C161    1.416   .     A
C137   C449    1.423   .     S
C138   C162    1.414   .     A
C138   C150    1.422   .     A
C139   C163    1.414   .     A
C139   C151    1.422   .     A
C140   C164    1.416   .     A
C140   C752    1.423   .     S
C141   C165    1.416   .     A
C141   C753    1.423   .     S
C142   C166    1.414   .     A
C142   C154    1.422   .     S
C143   C167    1.414   .     A
C143   C155    1.422   .     S
C144   C456    1.424   .     A
C144   C168    1.416   .     A
C145   C169    1.416   .     A
C145   C153    1.423   .     A
C146   C754    1.422   .     A
C146   C170    1.414   .     A
C147   C171    1.414   .     A
C147   C455    1.422   .     A
C148   C172    1.416   .     A
C148   C156    1.424   .     S
C149   C150    1.420   .     A
C149   C437    1.423   1_455 S
C150   C434    1.422   1_455 S
C151   C152    1.420   .     A
C151   C735    1.422   1_545 S
C152   C740    1.423   1_545 S
C153   C741    1.423   1_545 S
C153   C154    1.420   1_556 S
C154   C746    1.422   1_545 A
C154   C153    1.420   1_554 S
C155   C447    1.422   1_455 A
C155   C156    1.420   1_556 S
C156   C444    1.424   1_455 A
C156   C155    1.420   1_554 S
C157   C162    1.399   .     A
C157   O221    1.384   .     S
C158   O226    1.384   .     S
C158   C161    1.399   .     A
C159   O231    1.384   .     S
C159   C164    1.399   .     A
C160   C163    1.399   .     A
C160   O236    1.384   .     S
C161   O241    1.384   .     S
C162   O246    1.384   .     S
C163   O251    1.384   .     S
C164   O256    1.384   .     S
C165   O261    1.384   .     S
C165   C170    1.399   1_556 S
C166   O266    1.384   .     S
C166   C169    1.399   1_554 S
C167   O271    1.384   .     S
C167   C172    1.399   1_556 S
C168   O276    1.384   .     S
C168   C171    1.399   1_554 S
C169   O281    1.384   .     S
C169   C166    1.399   1_556 S
C170   O286    1.384   .     S
C170   C165    1.399   1_554 S
C171   O291    1.384   .     S
C171   C168    1.399   1_556 S
C172   O296    1.384   .     S
C172   C167    1.399   1_554 S
N173   O175    1.301   .     A
N173   O174    1.301   .     A
N176   O178    1.301   .     A
N176   O177    1.301   .     A
N179   O180    1.301   .     A
N179   O181    1.301   .     A
N182   O183    1.301   .     A
N182   O184    1.301   .     A
N185   O187    1.301   .     A
N185   O186    1.301   .     A
N188   O190    1.301   .     A
N188   O189    1.301   .     A
N191   O192    1.301   .     A
N191   O193    1.301   .     A
N194   O196    1.301   .     A
N194   O195    1.301   .     A
N197   O199    1.301   .     A
N197   O198    1.301   .     A
N200   O202    1.301   .     A
N200   O201    1.301   .     A
N203   O205    1.301   .     A
N203   O204    1.301   .     A
N206   O207    1.301   .     A
N206   O208    1.301   .     A
N209   O210    1.301   .     A
N209   O211    1.301   .     A
N212   O213    1.301   .     A
N212   O214    1.301   .     A
N215   O216    1.301   .     A
N215   O217    1.301   .     A
N218   O220    1.301   .     A
N218   O219    1.301   .     A
O221   C222    1.411   .     S
C222   H225    1.109   .     S
C222   H224    1.112   .     S
C222   H223    1.114   .     S
O226   C227    1.411   .     S
C227   H228    1.113   .     S
C227   H229    1.112   .     S
C227   H230    1.109   .     S
O231   C232    1.411   .     S
C232   H234    1.112   .     S
C232   H235    1.109   .     S
C232   H233    1.114   .     S
O236   C237    1.411   .     S
C237   H239    1.112   .     S
C237   H240    1.109   .     S
C237   H238    1.114   .     S
O241   C242    1.411   .     S
C242   H244    1.112   .     S
C242   H245    1.109   .     S
C242   H243    1.114   .     S
O246   C247    1.411   .     S
C247   H250    1.109   .     S
C247   H249    1.112   .     S
C247   H248    1.113   .     S
O251   C252    1.411   .     S
C252   H253    1.114   .     S
C252   H255    1.109   .     S
C252   H254    1.112   .     S
O256   C257    1.411   .     S
C257   H260    1.109   .     S
C257   H258    1.114   .     S
C257   H259    1.112   .     S
O261   C262    1.411   .     S
C262   H263    1.114   .     S
C262   H265    1.109   .     S
C262   H264    1.112   .     S
O266   C267    1.411   .     S
C267   H270    1.109   .     S
C267   H268    1.113   .     S
C267   H269    1.112   .     S
O271   C272    1.411   .     S
C272   H273    1.113   .     S
C272   H275    1.109   .     S
C272   H274    1.112   .     S
O276   C277    1.411   .     S
C277   H279    1.112   .     S
C277   H278    1.114   .     S
C277   H280    1.109   .     S
O281   C282    1.411   .     S
C282   H283    1.114   .     S
C282   H285    1.109   .     S
C282   H284    1.112   .     S
O286   C287    1.411   .     S
C287   H289    1.112   .     S
C287   H288    1.113   .     S
C287   H290    1.109   .     S
O291   C292    1.411   .     S
C292   H294    1.112   .     S
C292   H293    1.113   .     S
C292   H295    1.109   .     S
O296   C297    1.411   .     S
C297   H299    1.112   .     S
C297   H298    1.114   .     S
C297   H300    1.109   .     S
Zn301  O317    1.936   .     S
Zn301  O363    1.910   .     S
Zn301  O332    1.954   .     S
Zn301  O960    1.916   1_545 S
Zn302  O331    1.954   .     S
Zn302  O359    1.916   .     S
Zn302  O318    1.936   .     S
Zn302  O964    1.910   1_545 S
Zn303  O354    1.910   .     S
Zn303  O319    1.936   .     S
Zn303  O334    1.954   .     S
Zn304  O320    1.936   .     S
Zn304  O333    1.954   .     S
Zn304  O362    1.916   .     S
Zn305  O356    1.916   .     S
Zn305  O317    1.936   .     S
Zn305  O336    1.954   .     S
Zn305  O967    1.910   1_545 S
Zn306  O335    1.954   .     S
Zn306  O368    1.910   .     S
Zn306  O318    1.936   .     S
Zn306  O955    1.916   1_545 S
Zn307  O330    1.954   .     S
Zn307  O365    1.916   .     S
Zn307  O319    1.936   .     S
Zn308  O329    1.954   .     S
Zn308  O320    1.936   .     S
Zn308  O357    1.910   .     S
Zn309  O20     1.936   1_655 S
Zn309  O347    1.910   .     S
Zn309  O344    1.916   .     S
Zn309  O324    1.954   .     S
Zn310  O319    1.936   .     S
Zn310  O348    1.910   .     S
Zn310  O343    1.916   .     S
Zn310  O323    1.954   .     S
Zn311  O338    1.910   .     S
Zn311  O345    1.916   .     S
Zn311  O326    1.954   .     S
Zn311  O918    1.936   .     S
Zn312  O346    1.916   .     S
Zn312  O337    1.910   .     S
Zn312  O317    1.936   .     S
Zn312  O325    1.954   .     S
Zn313  O351    1.910   .     S
Zn313  O340    1.916   .     S
Zn313  O328    1.954   .     S
Zn313  O320    1.936   .     S
Zn314  O352    1.910   .     S
Zn314  O339    1.916   .     S
Zn314  O327    1.954   .     S
Zn314  O19     1.936   1_655 S
Zn315  O342    1.910   .     S
Zn315  O318    1.936   .     S
Zn315  O349    1.916   .     S
Zn315  O322    1.954   .     S
Zn316  O321    1.954   .     S
Zn316  O341    1.910   .     S
Zn316  O350    1.916   .     S
Zn316  O917    1.936   .     S
O317   Zn916   1.936   1_545 S
O318   Zn911   1.936   1_545 S
O321   C969    1.270   .     A
O322   C370    1.270   .     S
O323   C371    1.270   .     S
O324   C72     1.270   1_655 A
O325   C369    1.270   .     S
O326   C970    1.270   .     A
O327   C71     1.270   1_655 A
O328   C372    1.270   .     S
O329   C373    1.270   .     S
O330   C374    1.270   .     A
O331   C375    1.270   .     A
O332   C376    1.270   .     A
O333   C373    1.270   .     S
O334   C374    1.270   .     A
O335   C375    1.270   .     A
O336   C376    1.270   .     A
O337   C377    1.276   .     A
O338   C378    1.276   .     A
O339   C379    1.276   .     A
O340   C380    1.276   .     A
O341   C381    1.276   .     A
O342   C382    1.276   .     A
O343   C383    1.276   .     A
O344   C384    1.276   .     A
O345   C385    1.276   .     A
O346   C386    1.276   .     A
O347   C387    1.276   .     A
O348   C388    1.276   .     A
O349   C389    1.276   .     A
O350   C390    1.276   .     A
O351   C391    1.276   .     A
O352   C392    1.276   .     A
O353   C387    1.276   .     A
O353   Zn4     1.910   1_655 S
O354   C388    1.276   .     A
O355   C385    1.276   .     A
O355   Zn906   1.916   .     S
O356   C386    1.276   .     A
O357   C391    1.276   .     A
O358   C392    1.276   .     A
O358   Zn7     1.910   1_655 S
O359   C389    1.276   .     A
O360   C390    1.276   .     A
O360   Zn901   1.916   .     S
O361   C379    1.276   .     A
O361   Zn3     1.916   1_655 S
O362   C380    1.276   .     A
O363   C377    1.276   .     A
O364   C378    1.276   .     A
O364   Zn902   1.910   .     S
O365   C383    1.276   .     A
O366   Zn8     1.916   1_655 S
O366   C384    1.276   .     A
O367   C381    1.276   .     A
O367   Zn905   1.910   .     S
O368   C382    1.276   .     A
C369   O921    1.270   1_545 A
C369   C427    1.463   .     S
C370   O926    1.270   1_545 A
C370   C428    1.467   .     S
C371   C425    1.467   .     S
C372   C426    1.463   .     S
C373   C431    1.463   .     S
C374   C432    1.467   .     S
C375   C429    1.467   .     S
C376   C430    1.463   .     S
C377   C406    1.419   .     S
C378   C405    1.419   .     S
C379   C404    1.423   .     S
C380   C403    1.423   .     S
C381   C402    1.419   .     S
C382   C401    1.419   .     S
C383   C408    1.423   .     S
C384   C407    1.423   .     S
C385   C398    1.423   .     S
C386   C397    1.423   .     S
C387   C396    1.419   .     S
C388   C395    1.419   .     S
C389   C394    1.423   .     S
C390   C393    1.423   .     S
C391   C400    1.419   .     S
C392   C399    1.419   .     S
C393   C408    1.199   .     T
C394   C407    1.199   .     T
C395   C406    1.196   .     T
C396   C405    1.196   .     T
C397   C404    1.199   .     T
C398   C403    1.199   .     T
C399   C402    1.196   .     T
C400   C401    1.196   .     T
C409   N473    1.436   .     S
C409   C437    1.414   .     A
C409   C125    1.404   1_655 A
C410   C438    1.413   .     A
C410   N476    1.436   .     S
C410   C426    1.402   .     A
C411   C439    1.413   .     A
C411   N479    1.436   .     S
C411   C427    1.402   .     S
C412   N482    1.436   .     S
C412   C440    1.414   .     A
C412   C1028   1.404   .     S
C413   C433    1.414   .     A
C413   N485    1.436   .     S
C413   C425    1.404   .     S
C414   C434    1.413   .     A
C414   N488    1.436   .     S
C414   C126    1.402   1_655 S
C415   N491    1.436   .     S
C415   C435    1.413   .     A
C415   C1027   1.402   .     A
C416   N494    1.436   .     S
C416   C436    1.414   .     A
C416   C428    1.404   .     A
C417   C429    1.404   .     A
C417   C445    1.414   .     A
C417   N497    1.436   .     S
C418   N500    1.436   .     S
C418   C1030   1.402   .     A
C418   C446    1.413   .     A
C419   C131    1.402   1_655 A
C419   C447    1.413   .     A
C419   N503    1.436   .     S
C420   C448    1.415   .     A
C420   N506    1.436   .     S
C420   C432    1.404   .     S
C421   C441    1.414   .     A
C421   N509    1.436   .     S
C421   C1029   1.404   .     S
C422   N512    1.436   .     S
C422   C442    1.413   .     A
C422   C430    1.402   .     S
C423   N515    1.436   .     S
C423   C443    1.413   .     A
C423   C431    1.402   .     S
C424   C132    1.404   1_655 A
C424   N518    1.436   .     S
C424   C444    1.415   .     A
C427   C1015   1.402   1_545 A
C428   C1012   1.404   1_545 S
C429   C1021   1.404   1_545 S
C430   C1018   1.402   1_545 A
C433   C457    1.416   .     A
C433   C449    1.423   .     A
C434   C458    1.414   .     A
C434   C150    1.422   1_655 S
C435   C459    1.414   .     A
C435   C1051   1.422   .     S
C436   C452    1.423   .     A
C436   C460    1.416   .     A
C437   C461    1.416   .     A
C437   C149    1.423   1_655 S
C438   C462    1.414   .     A
C438   C450    1.422   .     A
C439   C463    1.414   .     A
C439   C451    1.422   .     A
C440   C464    1.416   .     A
C440   C1052   1.423   .     S
C441   C465    1.416   .     A
C441   C1053   1.423   .     S
C442   C466    1.414   .     A
C442   C454    1.422   .     S
C443   C467    1.414   .     A
C443   C455    1.422   .     S
C444   C156    1.424   1_655 A
C444   C468    1.416   .     A
C445   C469    1.416   .     A
C445   C453    1.423   .     A
C446   C1054   1.422   .     A
C446   C470    1.414   .     A
C447   C471    1.414   .     A
C447   C155    1.422   1_655 A
C448   C472    1.416   .     A
C448   C456    1.424   .     S
C449   C450    1.420   .     A
C451   C452    1.420   .     A
C451   C1035   1.422   1_545 S
C452   C1040   1.423   1_545 S
C453   C1041   1.423   1_545 S
C453   C454    1.420   1_556 S
C454   C1046   1.422   1_545 A
C454   C453    1.420   1_554 S
C455   C456    1.420   1_556 S
C456   C455    1.420   1_554 S
C457   C462    1.399   .     A
C457   O521    1.384   .     S
C458   O526    1.384   .     S
C458   C461    1.399   .     A
C459   O531    1.384   .     S
C459   C464    1.399   .     A
C460   C463    1.399   .     A
C460   O536    1.384   .     S
C461   O541    1.384   .     S
C462   O546    1.384   .     S
C463   O551    1.384   .     S
C464   O556    1.384   .     S
C465   O561    1.384   .     S
C465   C470    1.399   1_556 S
C466   O566    1.384   .     S
C466   C469    1.399   1_554 S
C467   O571    1.384   .     S
C467   C472    1.399   1_556 S
C468   O576    1.384   .     S
C468   C471    1.399   1_554 S
C469   O581    1.384   .     S
C469   C466    1.399   1_556 S
C470   O586    1.384   .     S
C470   C465    1.399   1_554 S
C471   O591    1.384   .     S
C471   C468    1.399   1_556 S
C472   O596    1.384   .     S
C472   C467    1.399   1_554 S
N473   O475    1.301   .     A
N473   O474    1.301   .     A
N476   O478    1.301   .     A
N476   O477    1.301   .     A
N479   O480    1.301   .     A
N479   O481    1.301   .     A
N482   O483    1.301   .     A
N482   O484    1.301   .     A
N485   O487    1.301   .     A
N485   O486    1.301   .     A
N488   O490    1.301   .     A
N488   O489    1.301   .     A
N491   O492    1.301   .     A
N491   O493    1.301   .     A
N494   O496    1.301   .     A
N494   O495    1.301   .     A
N497   O499    1.301   .     A
N497   O498    1.301   .     A
N500   O502    1.301   .     A
N500   O501    1.301   .     A
N503   O505    1.301   .     A
N503   O504    1.301   .     A
N506   O507    1.301   .     A
N506   O508    1.301   .     A
N509   O510    1.301   .     A
N509   O511    1.301   .     A
N512   O513    1.301   .     A
N512   O514    1.301   .     A
N515   O516    1.301   .     A
N515   O517    1.301   .     A
N518   O520    1.301   .     A
N518   O519    1.301   .     A
O521   C522    1.411   .     S
C522   H525    1.109   .     S
C522   H524    1.112   .     S
C522   H523    1.114   .     S
O526   C527    1.411   .     S
C527   H528    1.113   .     S
C527   H529    1.112   .     S
C527   H530    1.109   .     S
O531   C532    1.411   .     S
C532   H534    1.112   .     S
C532   H535    1.109   .     S
C532   H533    1.114   .     S
O536   C537    1.411   .     S
C537   H539    1.112   .     S
C537   H540    1.109   .     S
C537   H538    1.114   .     S
O541   C542    1.411   .     S
C542   H544    1.112   .     S
C542   H545    1.109   .     S
C542   H543    1.114   .     S
O546   C547    1.411   .     S
C547   H550    1.109   .     S
C547   H549    1.112   .     S
C547   H548    1.113   .     S
O551   C552    1.411   .     S
C552   H553    1.114   .     S
C552   H555    1.109   .     S
C552   H554    1.112   .     S
O556   C557    1.411   .     S
C557   H560    1.109   .     S
C557   H558    1.114   .     S
C557   H559    1.112   .     S
O561   C562    1.411   .     S
C562   H563    1.114   .     S
C562   H565    1.109   .     S
C562   H564    1.112   .     S
O566   C567    1.411   .     S
C567   H570    1.109   .     S
C567   H568    1.113   .     S
C567   H569    1.112   .     S
O571   C572    1.411   .     S
C572   H573    1.113   .     S
C572   H575    1.109   .     S
C572   H574    1.112   .     S
O576   C577    1.411   .     S
C577   H579    1.112   .     S
C577   H578    1.114   .     S
C577   H580    1.109   .     S
O581   C582    1.411   .     S
C582   H583    1.114   .     S
C582   H585    1.109   .     S
C582   H584    1.112   .     S
O586   C587    1.411   .     S
C587   H589    1.112   .     S
C587   H588    1.113   .     S
C587   H590    1.109   .     S
O591   C592    1.411   .     S
C592   H594    1.112   .     S
C592   H593    1.113   .     S
C592   H595    1.109   .     S
O596   C597    1.411   .     S
C597   H599    1.112   .     S
C597   H598    1.114   .     S
C597   H600    1.109   .     S
Zn601  O617    1.936   .     S
Zn601  O663    1.910   .     S
Zn601  O632    1.954   .     S
Zn602  O631    1.954   .     S
Zn602  O659    1.916   .     S
Zn602  O618    1.936   .     S
Zn603  O654    1.910   .     S
Zn603  O619    1.936   .     S
Zn603  O634    1.954   .     S
Zn603  O961    1.916   1_455 S
Zn604  O620    1.936   .     S
Zn604  O953    1.910   1_455 S
Zn604  O633    1.954   .     S
Zn604  O662    1.916   .     S
Zn605  O656    1.916   .     S
Zn605  O617    1.936   .     S
Zn605  O636    1.954   .     S
Zn606  O635    1.954   .     S
Zn606  O668    1.910   .     S
Zn606  O618    1.936   .     S
Zn607  O630    1.954   .     S
Zn607  O665    1.916   .     S
Zn607  O619    1.936   .     S
Zn607  O958    1.910   1_455 S
Zn608  O629    1.954   .     S
Zn608  O966    1.916   1_455 S
Zn608  O620    1.936   .     S
Zn608  O657    1.910   .     S
Zn609  O920    1.936   .     S
Zn609  O647    1.910   .     S
Zn609  O644    1.916   .     S
Zn609  O624    1.954   .     S
Zn610  O619    1.936   .     S
Zn610  O648    1.910   .     S
Zn610  O643    1.916   .     S
Zn610  O623    1.954   .     S
Zn611  O638    1.910   .     S
Zn611  O645    1.916   .     S
Zn611  O626    1.954   .     S
Zn611  O18     1.936   1_565 S
Zn612  O646    1.916   .     S
Zn612  O637    1.910   .     S
Zn612  O617    1.936   .     S
Zn612  O625    1.954   .     S
Zn613  O651    1.910   .     S
Zn613  O640    1.916   .     S
Zn613  O628    1.954   .     S
Zn613  O620    1.936   .     S
Zn614  O652    1.910   .     S
Zn614  O639    1.916   .     S
Zn614  O627    1.954   .     S
Zn614  O919    1.936   .     S
Zn615  O642    1.910   .     S
Zn615  O618    1.936   .     S
Zn615  O649    1.916   .     S
Zn615  O622    1.954   .     S
Zn616  O621    1.954   .     S
Zn616  O641    1.910   .     S
Zn616  O650    1.916   .     S
Zn616  O17     1.936   1_565 S
O619   Zn914   1.936   1_455 S
O620   Zn909   1.936   1_455 S
O621   C69     1.270   1_565 A
O622   C670    1.270   .     S
O623   C671    1.270   .     S
O624   C972    1.270   .     A
O625   C669    1.270   .     S
O626   C70     1.270   1_565 A
O627   C971    1.270   .     A
O628   C672    1.270   .     S
O629   C673    1.270   .     S
O630   C674    1.270   .     A
O631   C675    1.270   .     A
O632   C676    1.270   .     A
O633   C673    1.270   .     S
O634   C674    1.270   .     A
O635   C675    1.270   .     A
O636   C676    1.270   .     A
O637   C677    1.276   .     A
O638   C678    1.276   .     A
O639   C679    1.276   .     A
O640   C680    1.276   .     A
O641   C681    1.276   .     A
O642   C682    1.276   .     A
O643   C683    1.276   .     A
O644   C684    1.276   .     A
O645   C685    1.276   .     A
O646   C686    1.276   .     A
O647   C687    1.276   .     A
O648   C688    1.276   .     A
O649   C689    1.276   .     A
O650   C690    1.276   .     A
O651   C691    1.276   .     A
O652   C692    1.276   .     A
O653   C687    1.276   .     A
O653   Zn904   1.910   .     S
O654   C688    1.276   .     A
O655   C685    1.276   .     A
O655   Zn6     1.916   1_565 S
O656   C686    1.276   .     A
O657   C691    1.276   .     A
O658   C692    1.276   .     A
O658   Zn907   1.910   .     S
O659   C689    1.276   .     A
O660   C690    1.276   .     A
O660   Zn1     1.916   1_565 S
O661   C679    1.276   .     A
O661   Zn903   1.916   .     S
O662   C680    1.276   .     A
O663   C677    1.276   .     A
O664   C678    1.276   .     A
O664   Zn2     1.910   1_565 S
O665   C683    1.276   .     A
O666   Zn908   1.916   .     S
O666   C684    1.276   .     A
O667   C681    1.276   .     A
O667   Zn5     1.910   1_565 S
O668   C682    1.276   .     A
C669   C727    1.463   .     S
C670   C728    1.467   .     S
C671   O927    1.270   1_455 A
C671   C725    1.467   .     S
C672   O924    1.270   1_455 A
C672   C726    1.463   .     S
C673   C731    1.463   .     S
C674   C732    1.467   .     S
C675   C729    1.467   .     S
C676   C730    1.463   .     S
C677   C706    1.419   .     S
C678   C705    1.419   .     S
C679   C704    1.423   .     S
C680   C703    1.423   .     S
C681   C702    1.419   .     S
C682   C701    1.419   .     S
C683   C708    1.423   .     S
C684   C707    1.423   .     S
C685   C698    1.423   .     S
C686   C697    1.423   .     S
C687   C696    1.419   .     S
C688   C695    1.419   .     S
C689   C694    1.423   .     S
C690   C693    1.423   .     S
C691   C700    1.419   .     S
C692   C699    1.419   .     S
C693   C708    1.199   .     T
C694   C707    1.199   .     T
C695   C706    1.196   .     T
C696   C705    1.196   .     T
C697   C704    1.199   .     T
C698   C703    1.199   .     T
C699   C702    1.196   .     T
C700   C701    1.196   .     T
C709   N773    1.436   .     S
C709   C737    1.414   .     A
C709   C1025   1.404   .     A
C710   C738    1.413   .     A
C710   N776    1.436   .     S
C710   C726    1.402   .     A
C711   C739    1.413   .     A
C711   N779    1.436   .     S
C711   C727    1.402   .     S
C712   N782    1.436   .     S
C712   C740    1.414   .     A
C712   C128    1.404   1_565 S
C713   C733    1.414   .     A
C713   N785    1.436   .     S
C713   C725    1.404   .     S
C714   C734    1.413   .     A
C714   N788    1.436   .     S
C714   C1026   1.402   .     S
C715   N791    1.436   .     S
C715   C735    1.413   .     A
C715   C127    1.402   1_565 A
C716   N794    1.436   .     S
C716   C736    1.414   .     A
C716   C728    1.404   .     A
C717   C729    1.404   .     A
C717   C745    1.414   .     A
C717   N797    1.436   .     S
C718   N800    1.436   .     S
C718   C130    1.402   1_565 A
C718   C746    1.413   .     A
C719   C1031   1.402   .     A
C719   C747    1.413   .     A
C719   N803    1.436   .     S
C720   C748    1.415   .     A
C720   N806    1.436   .     S
C720   C732    1.404   .     S
C721   C741    1.414   .     A
C721   N809    1.436   .     S
C721   C129    1.404   1_565 S
C722   N812    1.436   .     S
C722   C742    1.413   .     A
C722   C730    1.402   .     S
C723   N815    1.436   .     S
C723   C743    1.413   .     A
C723   C731    1.402   .     S
C724   C1032   1.404   .     A
C724   N818    1.436   .     S
C724   C744    1.415   .     A
C725   C1009   1.404   1_455 A
C726   C1014   1.402   1_455 S
C731   C1019   1.402   1_455 A
C732   C1024   1.404   1_455 A
C733   C757    1.416   .     A
C733   C749    1.423   .     A
C734   C758    1.414   .     A
C734   C1050   1.422   .     S
C735   C759    1.414   .     A
C735   C151    1.422   1_565 S
C736   C752    1.423   .     A
C736   C760    1.416   .     A
C737   C761    1.416   .     A
C737   C1049   1.423   .     S
C738   C762    1.414   .     A
C738   C750    1.422   .     A
C739   C763    1.414   .     A
C739   C751    1.422   .     A
C740   C764    1.416   .     A
C740   C152    1.423   1_565 S
C741   C765    1.416   .     A
C741   C153    1.423   1_565 S
C742   C766    1.414   .     A
C742   C754    1.422   .     S
C743   C767    1.414   .     A
C743   C755    1.422   .     S
C744   C1056   1.424   .     A
C744   C768    1.416   .     A
C745   C769    1.416   .     A
C745   C753    1.423   .     A
C746   C154    1.422   1_565 A
C746   C770    1.414   .     A
C747   C771    1.414   .     A
C747   C1055   1.422   .     A
C748   C772    1.416   .     A
C748   C756    1.424   .     S
C749   C750    1.420   .     A
C749   C1037   1.423   1_455 S
C750   C1034   1.422   1_455 S
C751   C752    1.420   .     A
C753   C754    1.420   1_556 S
C754   C753    1.420   1_554 S
C755   C1047   1.422   1_455 A
C755   C756    1.420   1_556 S
C756   C1044   1.424   1_455 A
C756   C755    1.420   1_554 S
C757   C762    1.399   .     A
C757   O821    1.384   .     S
C758   O826    1.384   .     S
C758   C761    1.399   .     A
C759   O831    1.384   .     S
C759   C764    1.399   .     A
C760   C763    1.399   .     A
C760   O836    1.384   .     S
C761   O841    1.384   .     S
C762   O846    1.384   .     S
C763   O851    1.384   .     S
C764   O856    1.384   .     S
C765   O861    1.384   .     S
C765   C770    1.399   1_556 S
C766   O866    1.384   .     S
C766   C769    1.399   1_554 S
C767   O871    1.384   .     S
C767   C772    1.399   1_556 S
C768   O876    1.384   .     S
C768   C771    1.399   1_554 S
C769   O881    1.384   .     S
C769   C766    1.399   1_556 S
C770   O886    1.384   .     S
C770   C765    1.399   1_554 S
C771   O891    1.384   .     S
C771   C768    1.399   1_556 S
C772   O896    1.384   .     S
C772   C767    1.399   1_554 S
N773   O775    1.301   .     A
N773   O774    1.301   .     A
N776   O778    1.301   .     A
N776   O777    1.301   .     A
N779   O780    1.301   .     A
N779   O781    1.301   .     A
N782   O783    1.301   .     A
N782   O784    1.301   .     A
N785   O787    1.301   .     A
N785   O786    1.301   .     A
N788   O790    1.301   .     A
N788   O789    1.301   .     A
N791   O792    1.301   .     A
N791   O793    1.301   .     A
N794   O796    1.301   .     A
N794   O795    1.301   .     A
N797   O799    1.301   .     A
N797   O798    1.301   .     A
N800   O802    1.301   .     A
N800   O801    1.301   .     A
N803   O805    1.301   .     A
N803   O804    1.301   .     A
N806   O807    1.301   .     A
N806   O808    1.301   .     A
N809   O810    1.301   .     A
N809   O811    1.301   .     A
N812   O813    1.301   .     A
N812   O814    1.301   .     A
N815   O816    1.301   .     A
N815   O817    1.301   .     A
N818   O820    1.301   .     A
N818   O819    1.301   .     A
O821   C822    1.411   .     S
C822   H825    1.109   .     S
C822   H824    1.112   .     S
C822   H823    1.114   .     S
O826   C827    1.411   .     S
C827   H828    1.113   .     S
C827   H829    1.112   .     S
C827   H830    1.109   .     S
O831   C832    1.411   .     S
C832   H834    1.112   .     S
C832   H835    1.109   .     S
C832   H833    1.114   .     S
O836   C837    1.411   .     S
C837   H839    1.112   .     S
C837   H840    1.109   .     S
C837   H838    1.114   .     S
O841   C842    1.411   .     S
C842   H844    1.112   .     S
C842   H845    1.109   .     S
C842   H843    1.114   .     S
O846   C847    1.411   .     S
C847   H850    1.109   .     S
C847   H849    1.112   .     S
C847   H848    1.113   .     S
O851   C852    1.411   .     S
C852   H853    1.114   .     S
C852   H855    1.109   .     S
C852   H854    1.112   .     S
O856   C857    1.411   .     S
C857   H860    1.109   .     S
C857   H858    1.114   .     S
C857   H859    1.112   .     S
O861   C862    1.411   .     S
C862   H863    1.114   .     S
C862   H865    1.109   .     S
C862   H864    1.112   .     S
O866   C867    1.411   .     S
C867   H870    1.109   .     S
C867   H868    1.113   .     S
C867   H869    1.112   .     S
O871   C872    1.411   .     S
C872   H873    1.113   .     S
C872   H875    1.109   .     S
C872   H874    1.112   .     S
O876   C877    1.411   .     S
C877   H879    1.112   .     S
C877   H878    1.114   .     S
C877   H880    1.109   .     S
O881   C882    1.411   .     S
C882   H883    1.114   .     S
C882   H885    1.109   .     S
C882   H884    1.112   .     S
O886   C887    1.411   .     S
C887   H889    1.112   .     S
C887   H888    1.113   .     S
C887   H890    1.109   .     S
O891   C892    1.411   .     S
C892   H894    1.112   .     S
C892   H893    1.113   .     S
C892   H895    1.109   .     S
O896   C897    1.411   .     S
C897   H899    1.112   .     S
C897   H898    1.114   .     S
C897   H900    1.109   .     S
Zn901  O917    1.936   .     S
Zn901  O963    1.910   .     S
Zn901  O932    1.954   .     S
Zn902  O931    1.954   .     S
Zn902  O959    1.916   .     S
Zn902  O918    1.936   .     S
Zn903  O954    1.910   .     S
Zn903  O919    1.936   .     S
Zn903  O934    1.954   .     S
Zn904  O920    1.936   .     S
Zn904  O933    1.954   .     S
Zn904  O962    1.916   .     S
Zn905  O956    1.916   .     S
Zn905  O917    1.936   .     S
Zn905  O936    1.954   .     S
Zn906  O935    1.954   .     S
Zn906  O968    1.910   .     S
Zn906  O918    1.936   .     S
Zn907  O930    1.954   .     S
Zn907  O965    1.916   .     S
Zn907  O919    1.936   .     S
Zn908  O929    1.954   .     S
Zn908  O920    1.936   .     S
Zn908  O957    1.910   .     S
Zn909  O620    1.936   1_655 S
Zn909  O947    1.910   .     S
Zn909  O944    1.916   .     S
Zn909  O924    1.954   .     S
Zn910  O919    1.936   .     S
Zn910  O948    1.910   .     S
Zn910  O943    1.916   .     S
Zn910  O923    1.954   .     S
Zn911  O938    1.910   .     S
Zn911  O945    1.916   .     S
Zn911  O926    1.954   .     S
Zn911  O318    1.936   1_565 S
Zn912  O946    1.916   .     S
Zn912  O937    1.910   .     S
Zn912  O917    1.936   .     S
Zn912  O925    1.954   .     S
Zn913  O951    1.910   .     S
Zn913  O940    1.916   .     S
Zn913  O928    1.954   .     S
Zn913  O920    1.936   .     S
Zn914  O952    1.910   .     S
Zn914  O939    1.916   .     S
Zn914  O927    1.954   .     S
Zn914  O619    1.936   1_655 S
Zn915  O942    1.910   .     S
Zn915  O918    1.936   .     S
Zn915  O949    1.916   .     S
Zn915  O922    1.954   .     S
Zn916  O921    1.954   .     S
Zn916  O941    1.910   .     S
Zn916  O950    1.916   .     S
Zn916  O317    1.936   1_565 S
O921   C369    1.270   1_565 A
O922   C970    1.270   .     S
O923   C971    1.270   .     S
O924   C672    1.270   1_655 A
O925   C969    1.270   .     S
O926   C370    1.270   1_565 A
O927   C671    1.270   1_655 A
O928   C972    1.270   .     S
O929   C973    1.270   .     S
O930   C974    1.270   .     A
O931   C975    1.270   .     A
O932   C976    1.270   .     A
O933   C973    1.270   .     S
O934   C974    1.270   .     A
O935   C975    1.270   .     A
O936   C976    1.270   .     A
O937   C977    1.276   .     A
O938   C978    1.276   .     A
O939   C979    1.276   .     A
O940   C980    1.276   .     A
O941   C981    1.276   .     A
O942   C982    1.276   .     A
O943   C983    1.276   .     A
O944   C984    1.276   .     A
O945   C985    1.276   .     A
O946   C986    1.276   .     A
O947   C987    1.276   .     A
O948   C988    1.276   .     A
O949   C989    1.276   .     A
O950   C990    1.276   .     A
O951   C991    1.276   .     A
O952   C992    1.276   .     A
O953   C987    1.276   .     A
O953   Zn604   1.910   1_655 S
O954   C988    1.276   .     A
O955   C985    1.276   .     A
O955   Zn306   1.916   1_565 S
O956   C986    1.276   .     A
O957   C991    1.276   .     A
O958   C992    1.276   .     A
O958   Zn607   1.910   1_655 S
O959   C989    1.276   .     A
O960   C990    1.276   .     A
O960   Zn301   1.916   1_565 S
O961   C979    1.276   .     A
O961   Zn603   1.916   1_655 S
O962   C980    1.276   .     A
O963   C977    1.276   .     A
O964   C978    1.276   .     A
O964   Zn302   1.910   1_565 S
O965   C983    1.276   .     A
O966   Zn608   1.916   1_655 S
O966   C984    1.276   .     A
O967   C981    1.276   .     A
O967   Zn305   1.910   1_565 S
O968   C982    1.276   .     A
C969   C1027   1.463   .     S
C970   C1028   1.467   .     S
C971   C1025   1.467   .     S
C972   C1026   1.463   .     S
C973   C1031   1.463   .     S
C974   C1032   1.467   .     S
C975   C1029   1.467   .     S
C976   C1030   1.463   .     S
C977   C1006   1.419   .     S
C978   C1005   1.419   .     S
C979   C1004   1.423   .     S
C980   C1003   1.423   .     S
C981   C1002   1.419   .     S
C982   C1001   1.419   .     S
C983   C1008   1.423   .     S
C984   C1007   1.423   .     S
C985   C998    1.423   .     S
C986   C997    1.423   .     S
C987   C996    1.419   .     S
C988   C995    1.419   .     S
C989   C994    1.423   .     S
C990   C993    1.423   .     S
C991   C1000   1.419   .     S
C992   C999    1.419   .     S
C993   C1008   1.199   .     T
C994   C1007   1.199   .     T
C995   C1006   1.196   .     T
C996   C1005   1.196   .     T
C997   C1004   1.199   .     T
C998   C1003   1.199   .     T
C999   C1002   1.196   .     T
C1000  C1001   1.196   .     T
C1009  N1073   1.436   .     S
C1009  C1037   1.414   .     A
C1009  C725    1.404   1_655 A
C1010  C1038   1.413   .     A
C1010  N1076   1.436   .     S
C1010  C1026   1.402   .     A
C1011  C1039   1.413   .     A
C1011  N1079   1.436   .     S
C1011  C1027   1.402   .     S
C1012  N1082   1.436   .     S
C1012  C1040   1.414   .     A
C1012  C428    1.404   1_565 S
C1013  C1033   1.414   .     A
C1013  N1085   1.436   .     S
C1013  C1025   1.404   .     S
C1014  C1034   1.413   .     A
C1014  N1088   1.436   .     S
C1014  C726    1.402   1_655 S
C1015  N1091   1.436   .     S
C1015  C1035   1.413   .     A
C1015  C427    1.402   1_565 A
C1016  N1094   1.436   .     S
C1016  C1036   1.414   .     A
C1016  C1028   1.404   .     A
C1017  C1029   1.404   .     A
C1017  C1045   1.414   .     A
C1017  N1097   1.436   .     S
C1018  N1100   1.436   .     S
C1018  C430    1.402   1_565 A
C1018  C1046   1.413   .     A
C1019  C731    1.402   1_655 A
C1019  C1047   1.413   .     A
C1019  N1103   1.436   .     S
C1020  C1048   1.415   .     A
C1020  N1106   1.436   .     S
C1020  C1032   1.404   .     S
C1021  C1041   1.414   .     A
C1021  N1109   1.436   .     S
C1021  C429    1.404   1_565 S
C1022  N1112   1.436   .     S
C1022  C1042   1.413   .     A
C1022  C1030   1.402   .     S
C1023  N1115   1.436   .     S
C1023  C1043   1.413   .     A
C1023  C1031   1.402   .     S
C1024  C732    1.404   1_655 A
C1024  N1118   1.436   .     S
C1024  C1044   1.415   .     A
C1033  C1057   1.416   .     A
C1033  C1049   1.423   .     A
C1034  C1058   1.414   .     A
C1034  C750    1.422   1_655 S
C1035  C1059   1.414   .     A
C1035  C451    1.422   1_565 S
C1036  C1052   1.423   .     A
C1036  C1060   1.416   .     A
C1037  C1061   1.416   .     A
C1037  C749    1.423   1_655 S
C1038  C1062   1.414   .     A
C1038  C1050   1.422   .     A
C1039  C1063   1.414   .     A
C1039  C1051   1.422   .     A
C1040  C1064   1.416   .     A
C1040  C452    1.423   1_565 S
C1041  C1065   1.416   .     A
C1041  C453    1.423   1_565 S
C1042  C1066   1.414   .     A
C1042  C1054   1.422   .     S
C1043  C1067   1.414   .     A
C1043  C1055   1.422   .     S
C1044  C756    1.424   1_655 A
C1044  C1068   1.416   .     A
C1045  C1069   1.416   .     A
C1045  C1053   1.423   .     A
C1046  C454    1.422   1_565 A
C1046  C1070   1.414   .     A
C1047  C1071   1.414   .     A
C1047  C755    1.422   1_655 A
C1048  C1072   1.416   .     A
C1048  C1056   1.424   .     S
C1049  C1050   1.420   .     A
C1051  C1052   1.420   .     A
C1053  C1054   1.420   1_556 S
C1054  C1053   1.420   1_554 S
C1055  C1056   1.420   1_556 S
C1056  C1055   1.420   1_554 S
C1057  C1062   1.399   .     A
C1057  O1121   1.384   .     S
C1058  O1126   1.384   .     S
C1058  C1061   1.399   .     A
C1059  O1131   1.384   .     S
C1059  C1064   1.399   .     A
C1060  C1063   1.399   .     A
C1060  O1136   1.384   .     S
C1061  O1141   1.384   .     S
C1062  O1146   1.384   .     S
C1063  O1151   1.384   .     S
C1064  O1156   1.384   .     S
C1065  O1161   1.384   .     S
C1065  C1070   1.399   1_556 S
C1066  O1166   1.384   .     S
C1066  C1069   1.399   1_554 S
C1067  O1171   1.384   .     S
C1067  C1072   1.399   1_556 S
C1068  O1176   1.384   .     S
C1068  C1071   1.399   1_554 S
C1069  O1181   1.384   .     S
C1069  C1066   1.399   1_556 S
C1070  O1186   1.384   .     S
C1070  C1065   1.399   1_554 S
C1071  O1191   1.384   .     S
C1071  C1068   1.399   1_556 S
C1072  O1196   1.384   .     S
C1072  C1067   1.399   1_554 S
N1073  O1075   1.301   .     A
N1073  O1074   1.301   .     A
N1076  O1078   1.301   .     A
N1076  O1077   1.301   .     A
N1079  O1080   1.301   .     A
N1079  O1081   1.301   .     A
N1082  O1083   1.301   .     A
N1082  O1084   1.301   .     A
N1085  O1087   1.301   .     A
N1085  O1086   1.301   .     A
N1088  O1090   1.301   .     A
N1088  O1089   1.301   .     A
N1091  O1092   1.301   .     A
N1091  O1093   1.301   .     A
N1094  O1096   1.301   .     A
N1094  O1095   1.301   .     A
N1097  O1099   1.301   .     A
N1097  O1098   1.301   .     A
N1100  O1102   1.301   .     A
N1100  O1101   1.301   .     A
N1103  O1105   1.301   .     A
N1103  O1104   1.301   .     A
N1106  O1107   1.301   .     A
N1106  O1108   1.301   .     A
N1109  O1110   1.301   .     A
N1109  O1111   1.301   .     A
N1112  O1113   1.301   .     A
N1112  O1114   1.301   .     A
N1115  O1116   1.301   .     A
N1115  O1117   1.301   .     A
N1118  O1120   1.301   .     A
N1118  O1119   1.301   .     A
O1121  C1122   1.411   .     S
C1122  H1125   1.109   .     S
C1122  H1124   1.112   .     S
C1122  H1123   1.114   .     S
O1126  C1127   1.411   .     S
C1127  H1128   1.113   .     S
C1127  H1129   1.112   .     S
C1127  H1130   1.109   .     S
O1131  C1132   1.411   .     S
C1132  H1134   1.112   .     S
C1132  H1135   1.109   .     S
C1132  H1133   1.114   .     S
O1136  C1137   1.411   .     S
C1137  H1139   1.112   .     S
C1137  H1140   1.109   .     S
C1137  H1138   1.114   .     S
O1141  C1142   1.411   .     S
C1142  H1144   1.112   .     S
C1142  H1145   1.109   .     S
C1142  H1143   1.114   .     S
O1146  C1147   1.411   .     S
C1147  H1150   1.109   .     S
C1147  H1149   1.112   .     S
C1147  H1148   1.113   .     S
O1151  C1152   1.411   .     S
C1152  H1153   1.114   .     S
C1152  H1155   1.109   .     S
C1152  H1154   1.112   .     S
O1156  C1157   1.411   .     S
C1157  H1160   1.109   .     S
C1157  H1158   1.114   .     S
C1157  H1159   1.112   .     S
O1161  C1162   1.411   .     S
C1162  H1163   1.114   .     S
C1162  H1165   1.109   .     S
C1162  H1164   1.112   .     S
O1166  C1167   1.411   .     S
C1167  H1170   1.109   .     S
C1167  H1168   1.113   .     S
C1167  H1169   1.112   .     S
O1171  C1172   1.411   .     S
C1172  H1173   1.113   .     S
C1172  H1175   1.109   .     S
C1172  H1174   1.112   .     S
O1176  C1177   1.411   .     S
C1177  H1179   1.112   .     S
C1177  H1178   1.114   .     S
C1177  H1180   1.109   .     S
O1181  C1182   1.411   .     S
C1182  H1183   1.114   .     S
C1182  H1185   1.109   .     S
C1182  H1184   1.112   .     S
O1186  C1187   1.411   .     S
C1187  H1189   1.112   .     S
C1187  H1188   1.113   .     S
C1187  H1190   1.109   .     S
O1191  C1192   1.411   .     S
C1192  H1194   1.112   .     S
C1192  H1193   1.113   .     S
C1192  H1195   1.109   .     S
O1196  C1197   1.411   .     S
C1197  H1199   1.112   .     S
C1197  H1198   1.114   .     S
C1197  H1200   1.109   .     S
