data_str_m1_o10_o16_pcu_sym.154
_audit_creation_date              2020-01-03
_audit_creation_method            'Materials Studio'
_symmetry_space_group_name_H-M    'P1'
_symmetry_Int_Tables_number       1
_symmetry_cell_setting            triclinic
loop_
_symmetry_equiv_pos_as_xyz
  x,y,z
_cell_length_a                    32.5834
_cell_length_b                    32.5068
_cell_length_c                    31.0964
_cell_angle_alpha                 96.0747
_cell_angle_beta                  74.2284
_cell_angle_gamma                 98.5165
loop_
_atom_site_label
_atom_site_type_symbol
_atom_site_fract_x
_atom_site_fract_y
_atom_site_fract_z
_atom_site_U_iso_or_equiv
_atom_site_adp_type
_atom_site_occupancy
C1     C     0.05272   0.15950   0.26050   0.00000  Uiso   1.00
C2     C     0.16586   0.15333   0.05952   0.00000  Uiso   1.00
C3     C     0.23681   0.13699   0.05654   0.00000  Uiso   1.00
C4     C     0.28095   0.17364   0.23951   0.00000  Uiso   1.00
C5     C     0.13831   0.18947   0.42021   0.00000  Uiso   1.00
C6     C     0.32721   0.17611   0.23405   0.00000  Uiso   1.00
C7     C     0.00765   0.15833   0.26378   0.00000  Uiso   1.00
C8     C     0.18067   0.32259   0.23617   0.00000  Uiso   1.00
C9     C     0.15219   0.01178   0.26393   0.00000  Uiso   1.00
C10    C     0.15633   0.05591   0.26011   0.00000  Uiso   1.00
C11    C     0.17668   0.27799   0.24006   0.00000  Uiso   1.00
C12    C     0.08222   0.19434   0.48936   0.00000  Uiso   1.00
C13    C     0.18560   0.14850   0.12933   0.00000  Uiso   1.00
C14    C     0.14902   0.18506   0.37085   0.00000  Uiso   1.00
C15    C     0.24994   0.14232   0.01096   0.00000  Uiso   1.00
C16    C     0.19508   0.14310   0.08087   0.00000  Uiso   1.00
C17    C     0.09672   0.19772   0.44345   0.00000  Uiso   1.00
C18    C     0.02911   0.17525   0.15474   0.00000  Uiso   1.00
C19    C     0.10847   0.18171   0.01277   0.00000  Uiso   1.00
C20    C     0.15107   0.17397   0.49084   0.00000  Uiso   1.00
C21    C     0.16670   0.18023   0.44428   0.00000  Uiso   1.00
C22    C     0.17879   0.16048   0.01351   0.00000  Uiso   1.00
C23    C     0.22180   0.15507   0.48953   0.00000  Uiso   1.00
C24    C     0.23716   0.16430   0.44488   0.00000  Uiso   1.00
C25    C     0.21041   0.17758   0.42291   0.00000  Uiso   1.00
H26    H     0.25979   0.12989   0.07331   0.00000  Uiso   1.00
H27    H     0.04980   0.20020   0.00678   0.00000  Uiso   1.00
H28    H     0.22494   0.18663   0.38914   0.00000  Uiso   1.00
H29    H     0.05147   0.21214   0.20433   0.00000  Uiso   1.00
H30    H     0.05005   0.19546   0.12870   0.00000  Uiso   1.00
H31    H     0.33120   0.16587   0.14632   0.00000  Uiso   1.00
H32    H     0.04478   0.14706   0.15448   0.00000  Uiso   1.00
H33    H     0.31867   0.14279   0.29174   0.00000  Uiso   1.00
H34    H     0.20697   0.00388   0.21055   0.00000  Uiso   1.00
H35    H     0.12561   0.33125   0.28974   0.00000  Uiso   1.00
H36    H     0.27039   0.16195   0.42697   0.00000  Uiso   1.00
H37    H     0.28276   0.13834   0.49287   0.00000  Uiso   1.00
H38    H     0.13441   0.15816   0.08041   0.00000  Uiso   1.00
H39    H     0.07459   0.20512   0.42579   0.00000  Uiso   1.00
H40    H     0.09439   0.17862   0.04800   0.00000  Uiso   1.00
N41    N     0.02297   0.19799   0.19812   0.00000  Uiso   1.00
O42    O     0.16667   0.16667   0.25000   0.00000  Uiso   1.00
O43    O     0.15451   0.12637   0.15458   0.00000  Uiso   1.00
O44    O     0.12940   0.20391   0.34968   0.00000  Uiso   1.00
O45    O     0.20824   0.17759   0.14606   0.00000  Uiso   1.00
O46    O     0.17451   0.15880   0.34968   0.00000  Uiso   1.00
O47    O     0.17930   0.08019   0.28213   0.00000  Uiso   1.00
O48    O     0.14632   0.26085   0.27013   0.00000  Uiso   1.00
O49    O     0.07412   0.13291   0.23413   0.00000  Uiso   1.00
O50    O     0.26693   0.19272   0.21360   0.00000  Uiso   1.00
O51    O     0.07071   0.18878   0.28213   0.00000  Uiso   1.00
O52    O     0.25491   0.15226   0.27013   0.00000  Uiso   1.00
O53    O     0.13760   0.06944   0.23413   0.00000  Uiso   1.00
O54    O     0.20345   0.25620   0.21360   0.00000  Uiso   1.00
Zn55   Zn    0.19338   0.13994   0.28734   0.00000  Uiso   1.00
Zn56   Zn    0.13379   0.12458   0.21875   0.00000  Uiso   1.00
Zn57   Zn    0.21056   0.19775   0.20657   0.00000  Uiso   1.00
Zn58   Zn    0.12893   0.20439   0.28733   0.00000  Uiso   1.00
C59    C     0.38605   0.15950   0.26050   0.00000  Uiso   1.00
C60    C     0.49919   0.15333   0.05952   0.00000  Uiso   1.00
C61    C     0.57014   0.13699   0.05654   0.00000  Uiso   1.00
C62    C     0.61428   0.17364   0.23951   0.00000  Uiso   1.00
C63    C     0.47165   0.18947   0.42021   0.00000  Uiso   1.00
C64    C     0.66054   0.17611   0.23405   0.00000  Uiso   1.00
C65    C     0.34098   0.15833   0.26378   0.00000  Uiso   1.00
C66    C     0.51400   0.32259   0.23617   0.00000  Uiso   1.00
C67    C     0.48553   0.01178   0.26393   0.00000  Uiso   1.00
C68    C     0.48966   0.05591   0.26011   0.00000  Uiso   1.00
C69    C     0.51002   0.27799   0.24006   0.00000  Uiso   1.00
C70    C     0.41556   0.19434   0.48936   0.00000  Uiso   1.00
C71    C     0.51894   0.14850   0.12933   0.00000  Uiso   1.00
C72    C     0.48235   0.18506   0.37085   0.00000  Uiso   1.00
C73    C     0.58328   0.14232   0.01096   0.00000  Uiso   1.00
C74    C     0.52842   0.14310   0.08087   0.00000  Uiso   1.00
C75    C     0.43005   0.19772   0.44345   0.00000  Uiso   1.00
C76    C     0.36244   0.17525   0.15474   0.00000  Uiso   1.00
C77    C     0.44180   0.18171   0.01277   0.00000  Uiso   1.00
C78    C     0.48440   0.17397   0.49084   0.00000  Uiso   1.00
C79    C     0.50004   0.18023   0.44428   0.00000  Uiso   1.00
C80    C     0.51213   0.16048   0.01351   0.00000  Uiso   1.00
C81    C     0.55514   0.15507   0.48953   0.00000  Uiso   1.00
C82    C     0.57049   0.16430   0.44488   0.00000  Uiso   1.00
C83    C     0.54375   0.17758   0.42291   0.00000  Uiso   1.00
H84    H     0.59312   0.12989   0.07331   0.00000  Uiso   1.00
H85    H     0.38313   0.20020   0.00678   0.00000  Uiso   1.00
H86    H     0.55827   0.18663   0.38914   0.00000  Uiso   1.00
H87    H     0.38481   0.21214   0.20433   0.00000  Uiso   1.00
H88    H     0.38338   0.19546   0.12870   0.00000  Uiso   1.00
H89    H     0.66453   0.16587   0.14632   0.00000  Uiso   1.00
H90    H     0.37811   0.14706   0.15448   0.00000  Uiso   1.00
H91    H     0.65200   0.14279   0.29174   0.00000  Uiso   1.00
H92    H     0.54030   0.00388   0.21055   0.00000  Uiso   1.00
H93    H     0.45895   0.33125   0.28974   0.00000  Uiso   1.00
H94    H     0.60372   0.16195   0.42697   0.00000  Uiso   1.00
H95    H     0.61609   0.13834   0.49287   0.00000  Uiso   1.00
H96    H     0.46774   0.15816   0.08041   0.00000  Uiso   1.00
H97    H     0.40793   0.20512   0.42579   0.00000  Uiso   1.00
H98    H     0.42772   0.17862   0.04800   0.00000  Uiso   1.00
N99    N     0.35631   0.19799   0.19812   0.00000  Uiso   1.00
O100   O     0.50000   0.16667   0.25000   0.00000  Uiso   1.00
O101   O     0.48784   0.12637   0.15458   0.00000  Uiso   1.00
O102   O     0.46274   0.20391   0.34968   0.00000  Uiso   1.00
O103   O     0.54157   0.17759   0.14606   0.00000  Uiso   1.00
O104   O     0.50785   0.15880   0.34968   0.00000  Uiso   1.00
O105   O     0.51264   0.08019   0.28213   0.00000  Uiso   1.00
O106   O     0.47965   0.26085   0.27013   0.00000  Uiso   1.00
O107   O     0.40745   0.13291   0.23413   0.00000  Uiso   1.00
O108   O     0.60026   0.19272   0.21360   0.00000  Uiso   1.00
O109   O     0.40405   0.18878   0.28213   0.00000  Uiso   1.00
O110   O     0.58824   0.15226   0.27013   0.00000  Uiso   1.00
O111   O     0.47093   0.06944   0.23413   0.00000  Uiso   1.00
O112   O     0.53678   0.25620   0.21360   0.00000  Uiso   1.00
Zn113  Zn    0.52672   0.13994   0.28734   0.00000  Uiso   1.00
Zn114  Zn    0.46713   0.12458   0.21875   0.00000  Uiso   1.00
Zn115  Zn    0.54389   0.19775   0.20657   0.00000  Uiso   1.00
Zn116  Zn    0.46226   0.20439   0.28733   0.00000  Uiso   1.00
C117   C     0.71939   0.15950   0.26050   0.00000  Uiso   1.00
C118   C     0.83252   0.15333   0.05952   0.00000  Uiso   1.00
C119   C     0.90348   0.13699   0.05654   0.00000  Uiso   1.00
C120   C     0.94762   0.17364   0.23951   0.00000  Uiso   1.00
C121   C     0.80498   0.18947   0.42021   0.00000  Uiso   1.00
C122   C     0.99387   0.17611   0.23405   0.00000  Uiso   1.00
C123   C     0.67431   0.15833   0.26378   0.00000  Uiso   1.00
C124   C     0.84733   0.32259   0.23617   0.00000  Uiso   1.00
C125   C     0.81886   0.01178   0.26393   0.00000  Uiso   1.00
C126   C     0.82300   0.05591   0.26011   0.00000  Uiso   1.00
C127   C     0.84335   0.27799   0.24006   0.00000  Uiso   1.00
C128   C     0.74889   0.19434   0.48936   0.00000  Uiso   1.00
C129   C     0.85227   0.14850   0.12933   0.00000  Uiso   1.00
C130   C     0.81568   0.18506   0.37085   0.00000  Uiso   1.00
C131   C     0.91661   0.14232   0.01096   0.00000  Uiso   1.00
C132   C     0.86175   0.14310   0.08087   0.00000  Uiso   1.00
C133   C     0.76339   0.19772   0.44345   0.00000  Uiso   1.00
C134   C     0.69577   0.17525   0.15474   0.00000  Uiso   1.00
C135   C     0.77514   0.18171   0.01277   0.00000  Uiso   1.00
C136   C     0.81773   0.17397   0.49084   0.00000  Uiso   1.00
C137   C     0.83337   0.18023   0.44428   0.00000  Uiso   1.00
C138   C     0.84546   0.16048   0.01351   0.00000  Uiso   1.00
C139   C     0.88847   0.15507   0.48953   0.00000  Uiso   1.00
C140   C     0.90383   0.16430   0.44488   0.00000  Uiso   1.00
C141   C     0.87708   0.17758   0.42291   0.00000  Uiso   1.00
H142   H     0.92646   0.12989   0.07331   0.00000  Uiso   1.00
H143   H     0.71647   0.20020   0.00678   0.00000  Uiso   1.00
H144   H     0.89160   0.18663   0.38914   0.00000  Uiso   1.00
H145   H     0.71814   0.21214   0.20433   0.00000  Uiso   1.00
H146   H     0.71671   0.19546   0.12870   0.00000  Uiso   1.00
H147   H     0.99787   0.16587   0.14632   0.00000  Uiso   1.00
H148   H     0.71144   0.14706   0.15448   0.00000  Uiso   1.00
H149   H     0.98533   0.14279   0.29174   0.00000  Uiso   1.00
H150   H     0.87364   0.00388   0.21055   0.00000  Uiso   1.00
H151   H     0.79228   0.33125   0.28974   0.00000  Uiso   1.00
H152   H     0.93705   0.16195   0.42697   0.00000  Uiso   1.00
H153   H     0.94943   0.13834   0.49287   0.00000  Uiso   1.00
H154   H     0.80108   0.15816   0.08041   0.00000  Uiso   1.00
H155   H     0.74126   0.20512   0.42579   0.00000  Uiso   1.00
H156   H     0.76106   0.17862   0.04800   0.00000  Uiso   1.00
N157   N     0.68964   0.19799   0.19812   0.00000  Uiso   1.00
O158   O     0.83333   0.16667   0.25000   0.00000  Uiso   1.00
O159   O     0.82118   0.12637   0.15458   0.00000  Uiso   1.00
O160   O     0.79607   0.20391   0.34968   0.00000  Uiso   1.00
O161   O     0.87491   0.17759   0.14606   0.00000  Uiso   1.00
O162   O     0.84118   0.15880   0.34968   0.00000  Uiso   1.00
O163   O     0.84597   0.08019   0.28213   0.00000  Uiso   1.00
O164   O     0.81298   0.26085   0.27013   0.00000  Uiso   1.00
O165   O     0.74078   0.13291   0.23413   0.00000  Uiso   1.00
O166   O     0.93360   0.19272   0.21360   0.00000  Uiso   1.00
O167   O     0.73738   0.18878   0.28213   0.00000  Uiso   1.00
O168   O     0.92158   0.15226   0.27013   0.00000  Uiso   1.00
O169   O     0.80426   0.06944   0.23413   0.00000  Uiso   1.00
O170   O     0.87012   0.25620   0.21360   0.00000  Uiso   1.00
Zn171  Zn    0.86005   0.13994   0.28734   0.00000  Uiso   1.00
Zn172  Zn    0.80046   0.12458   0.21875   0.00000  Uiso   1.00
Zn173  Zn    0.87723   0.19775   0.20657   0.00000  Uiso   1.00
Zn174  Zn    0.79560   0.20439   0.28733   0.00000  Uiso   1.00
C175   C     0.05272   0.49283   0.26050   0.00000  Uiso   1.00
C176   C     0.16586   0.48667   0.05952   0.00000  Uiso   1.00
C177   C     0.23681   0.47032   0.05654   0.00000  Uiso   1.00
C178   C     0.28095   0.50697   0.23951   0.00000  Uiso   1.00
C179   C     0.13831   0.52280   0.42021   0.00000  Uiso   1.00
C180   C     0.32721   0.50944   0.23405   0.00000  Uiso   1.00
C181   C     0.00765   0.49166   0.26378   0.00000  Uiso   1.00
C182   C     0.18067   0.65593   0.23617   0.00000  Uiso   1.00
C183   C     0.15219   0.34511   0.26393   0.00000  Uiso   1.00
C184   C     0.15633   0.38925   0.26011   0.00000  Uiso   1.00
C185   C     0.17668   0.61132   0.24006   0.00000  Uiso   1.00
C186   C     0.08222   0.52767   0.48936   0.00000  Uiso   1.00
C187   C     0.18560   0.48183   0.12933   0.00000  Uiso   1.00
C188   C     0.14902   0.51840   0.37085   0.00000  Uiso   1.00
C189   C     0.24994   0.47565   0.01096   0.00000  Uiso   1.00
C190   C     0.19508   0.47644   0.08087   0.00000  Uiso   1.00
C191   C     0.09672   0.53106   0.44345   0.00000  Uiso   1.00
C192   C     0.02911   0.50859   0.15474   0.00000  Uiso   1.00
C193   C     0.10847   0.51505   0.01277   0.00000  Uiso   1.00
C194   C     0.15107   0.50730   0.49084   0.00000  Uiso   1.00
C195   C     0.16670   0.51356   0.44428   0.00000  Uiso   1.00
C196   C     0.17879   0.49381   0.01351   0.00000  Uiso   1.00
C197   C     0.22180   0.48840   0.48953   0.00000  Uiso   1.00
C198   C     0.23716   0.49763   0.44488   0.00000  Uiso   1.00
C199   C     0.21041   0.51092   0.42291   0.00000  Uiso   1.00
H200   H     0.25979   0.46322   0.07331   0.00000  Uiso   1.00
H201   H     0.04980   0.53354   0.00678   0.00000  Uiso   1.00
H202   H     0.22494   0.51996   0.38914   0.00000  Uiso   1.00
H203   H     0.05147   0.54548   0.20433   0.00000  Uiso   1.00
H204   H     0.05005   0.52880   0.12870   0.00000  Uiso   1.00
H205   H     0.33120   0.49920   0.14632   0.00000  Uiso   1.00
H206   H     0.04478   0.48040   0.15448   0.00000  Uiso   1.00
H207   H     0.31867   0.47613   0.29174   0.00000  Uiso   1.00
H208   H     0.20697   0.33721   0.21055   0.00000  Uiso   1.00
H209   H     0.12561   0.66458   0.28974   0.00000  Uiso   1.00
H210   H     0.27039   0.49528   0.42697   0.00000  Uiso   1.00
H211   H     0.28276   0.47167   0.49287   0.00000  Uiso   1.00
H212   H     0.13441   0.49149   0.08041   0.00000  Uiso   1.00
H213   H     0.07459   0.53845   0.42579   0.00000  Uiso   1.00
H214   H     0.09439   0.51196   0.04800   0.00000  Uiso   1.00
N215   N     0.02297   0.53133   0.19812   0.00000  Uiso   1.00
O216   O     0.16667   0.50000   0.25000   0.00000  Uiso   1.00
O217   O     0.15451   0.45970   0.15458   0.00000  Uiso   1.00
O218   O     0.12940   0.53724   0.34968   0.00000  Uiso   1.00
O219   O     0.20824   0.51092   0.14606   0.00000  Uiso   1.00
O220   O     0.17451   0.49213   0.34968   0.00000  Uiso   1.00
O221   O     0.17930   0.41352   0.28213   0.00000  Uiso   1.00
O222   O     0.14632   0.59418   0.27013   0.00000  Uiso   1.00
O223   O     0.07412   0.46625   0.23413   0.00000  Uiso   1.00
O224   O     0.26693   0.52605   0.21360   0.00000  Uiso   1.00
O225   O     0.07071   0.52211   0.28213   0.00000  Uiso   1.00
O226   O     0.25491   0.48559   0.27013   0.00000  Uiso   1.00
O227   O     0.13760   0.40277   0.23413   0.00000  Uiso   1.00
O228   O     0.20345   0.58953   0.21360   0.00000  Uiso   1.00
Zn229  Zn    0.19338   0.47327   0.28734   0.00000  Uiso   1.00
Zn230  Zn    0.13379   0.45791   0.21875   0.00000  Uiso   1.00
Zn231  Zn    0.21056   0.53109   0.20657   0.00000  Uiso   1.00
Zn232  Zn    0.12893   0.53773   0.28733   0.00000  Uiso   1.00
C233   C     0.38605   0.49283   0.26050   0.00000  Uiso   1.00
C234   C     0.49919   0.48667   0.05952   0.00000  Uiso   1.00
C235   C     0.57014   0.47032   0.05654   0.00000  Uiso   1.00
C236   C     0.61428   0.50697   0.23951   0.00000  Uiso   1.00
C237   C     0.47165   0.52280   0.42021   0.00000  Uiso   1.00
C238   C     0.66054   0.50944   0.23405   0.00000  Uiso   1.00
C239   C     0.34098   0.49166   0.26378   0.00000  Uiso   1.00
C240   C     0.51400   0.65593   0.23617   0.00000  Uiso   1.00
C241   C     0.48553   0.34511   0.26393   0.00000  Uiso   1.00
C242   C     0.48966   0.38925   0.26011   0.00000  Uiso   1.00
C243   C     0.51002   0.61132   0.24006   0.00000  Uiso   1.00
C244   C     0.41556   0.52767   0.48936   0.00000  Uiso   1.00
C245   C     0.51894   0.48183   0.12933   0.00000  Uiso   1.00
C246   C     0.48235   0.51840   0.37085   0.00000  Uiso   1.00
C247   C     0.58328   0.47565   0.01096   0.00000  Uiso   1.00
C248   C     0.52842   0.47644   0.08087   0.00000  Uiso   1.00
C249   C     0.43005   0.53106   0.44345   0.00000  Uiso   1.00
C250   C     0.36244   0.50859   0.15474   0.00000  Uiso   1.00
C251   C     0.44180   0.51505   0.01277   0.00000  Uiso   1.00
C252   C     0.48440   0.50730   0.49084   0.00000  Uiso   1.00
C253   C     0.50004   0.51356   0.44428   0.00000  Uiso   1.00
C254   C     0.51213   0.49381   0.01351   0.00000  Uiso   1.00
C255   C     0.55514   0.48840   0.48953   0.00000  Uiso   1.00
C256   C     0.57049   0.49763   0.44488   0.00000  Uiso   1.00
C257   C     0.54375   0.51092   0.42291   0.00000  Uiso   1.00
H258   H     0.59312   0.46322   0.07331   0.00000  Uiso   1.00
H259   H     0.38313   0.53354   0.00678   0.00000  Uiso   1.00
H260   H     0.55827   0.51996   0.38914   0.00000  Uiso   1.00
H261   H     0.38481   0.54548   0.20433   0.00000  Uiso   1.00
H262   H     0.38338   0.52880   0.12870   0.00000  Uiso   1.00
H263   H     0.66453   0.49920   0.14632   0.00000  Uiso   1.00
H264   H     0.37811   0.48040   0.15448   0.00000  Uiso   1.00
H265   H     0.65200   0.47613   0.29174   0.00000  Uiso   1.00
H266   H     0.54030   0.33721   0.21055   0.00000  Uiso   1.00
H267   H     0.45895   0.66458   0.28974   0.00000  Uiso   1.00
H268   H     0.60372   0.49528   0.42697   0.00000  Uiso   1.00
H269   H     0.61609   0.47167   0.49287   0.00000  Uiso   1.00
H270   H     0.46774   0.49149   0.08041   0.00000  Uiso   1.00
H271   H     0.40793   0.53845   0.42579   0.00000  Uiso   1.00
H272   H     0.42772   0.51196   0.04800   0.00000  Uiso   1.00
N273   N     0.35631   0.53133   0.19812   0.00000  Uiso   1.00
O274   O     0.50000   0.50000   0.25000   0.00000  Uiso   1.00
O275   O     0.48784   0.45970   0.15458   0.00000  Uiso   1.00
O276   O     0.46274   0.53724   0.34968   0.00000  Uiso   1.00
O277   O     0.54157   0.51092   0.14606   0.00000  Uiso   1.00
O278   O     0.50785   0.49213   0.34968   0.00000  Uiso   1.00
O279   O     0.51264   0.41352   0.28213   0.00000  Uiso   1.00
O280   O     0.47965   0.59418   0.27013   0.00000  Uiso   1.00
O281   O     0.40745   0.46625   0.23413   0.00000  Uiso   1.00
O282   O     0.60026   0.52605   0.21360   0.00000  Uiso   1.00
O283   O     0.40405   0.52211   0.28213   0.00000  Uiso   1.00
O284   O     0.58824   0.48559   0.27013   0.00000  Uiso   1.00
O285   O     0.47093   0.40277   0.23413   0.00000  Uiso   1.00
O286   O     0.53678   0.58953   0.21360   0.00000  Uiso   1.00
Zn287  Zn    0.52672   0.47327   0.28734   0.00000  Uiso   1.00
Zn288  Zn    0.46713   0.45791   0.21875   0.00000  Uiso   1.00
Zn289  Zn    0.54389   0.53109   0.20657   0.00000  Uiso   1.00
Zn290  Zn    0.46226   0.53773   0.28733   0.00000  Uiso   1.00
C291   C     0.71939   0.49283   0.26050   0.00000  Uiso   1.00
C292   C     0.83252   0.48667   0.05952   0.00000  Uiso   1.00
C293   C     0.90348   0.47032   0.05654   0.00000  Uiso   1.00
C294   C     0.94762   0.50697   0.23951   0.00000  Uiso   1.00
C295   C     0.80498   0.52280   0.42021   0.00000  Uiso   1.00
C296   C     0.99387   0.50944   0.23405   0.00000  Uiso   1.00
C297   C     0.67431   0.49166   0.26378   0.00000  Uiso   1.00
C298   C     0.84733   0.65593   0.23617   0.00000  Uiso   1.00
C299   C     0.81886   0.34511   0.26393   0.00000  Uiso   1.00
C300   C     0.82300   0.38925   0.26011   0.00000  Uiso   1.00
C301   C     0.84335   0.61132   0.24006   0.00000  Uiso   1.00
C302   C     0.74889   0.52767   0.48936   0.00000  Uiso   1.00
C303   C     0.85227   0.48183   0.12933   0.00000  Uiso   1.00
C304   C     0.81568   0.51840   0.37085   0.00000  Uiso   1.00
C305   C     0.91661   0.47565   0.01096   0.00000  Uiso   1.00
C306   C     0.86175   0.47644   0.08087   0.00000  Uiso   1.00
C307   C     0.76339   0.53106   0.44345   0.00000  Uiso   1.00
C308   C     0.69577   0.50859   0.15474   0.00000  Uiso   1.00
C309   C     0.77514   0.51505   0.01277   0.00000  Uiso   1.00
C310   C     0.81773   0.50730   0.49084   0.00000  Uiso   1.00
C311   C     0.83337   0.51356   0.44428   0.00000  Uiso   1.00
C312   C     0.84546   0.49381   0.01351   0.00000  Uiso   1.00
C313   C     0.88847   0.48840   0.48953   0.00000  Uiso   1.00
C314   C     0.90383   0.49763   0.44488   0.00000  Uiso   1.00
C315   C     0.87708   0.51092   0.42291   0.00000  Uiso   1.00
H316   H     0.92646   0.46322   0.07331   0.00000  Uiso   1.00
H317   H     0.71647   0.53354   0.00678   0.00000  Uiso   1.00
H318   H     0.89160   0.51996   0.38914   0.00000  Uiso   1.00
H319   H     0.71814   0.54548   0.20433   0.00000  Uiso   1.00
H320   H     0.71671   0.52880   0.12870   0.00000  Uiso   1.00
H321   H     0.99787   0.49920   0.14632   0.00000  Uiso   1.00
H322   H     0.71144   0.48040   0.15448   0.00000  Uiso   1.00
H323   H     0.98533   0.47613   0.29174   0.00000  Uiso   1.00
H324   H     0.87364   0.33721   0.21055   0.00000  Uiso   1.00
H325   H     0.79228   0.66458   0.28974   0.00000  Uiso   1.00
H326   H     0.93705   0.49528   0.42697   0.00000  Uiso   1.00
H327   H     0.94943   0.47167   0.49287   0.00000  Uiso   1.00
H328   H     0.80108   0.49149   0.08041   0.00000  Uiso   1.00
H329   H     0.74126   0.53845   0.42579   0.00000  Uiso   1.00
H330   H     0.76106   0.51196   0.04800   0.00000  Uiso   1.00
N331   N     0.68964   0.53133   0.19812   0.00000  Uiso   1.00
O332   O     0.83333   0.50000   0.25000   0.00000  Uiso   1.00
O333   O     0.82118   0.45970   0.15458   0.00000  Uiso   1.00
O334   O     0.79607   0.53724   0.34968   0.00000  Uiso   1.00
O335   O     0.87491   0.51092   0.14606   0.00000  Uiso   1.00
O336   O     0.84118   0.49213   0.34968   0.00000  Uiso   1.00
O337   O     0.84597   0.41352   0.28213   0.00000  Uiso   1.00
O338   O     0.81298   0.59418   0.27013   0.00000  Uiso   1.00
O339   O     0.74078   0.46625   0.23413   0.00000  Uiso   1.00
O340   O     0.93360   0.52605   0.21360   0.00000  Uiso   1.00
O341   O     0.73738   0.52211   0.28213   0.00000  Uiso   1.00
O342   O     0.92158   0.48559   0.27013   0.00000  Uiso   1.00
O343   O     0.80426   0.40277   0.23413   0.00000  Uiso   1.00
O344   O     0.87012   0.58953   0.21360   0.00000  Uiso   1.00
Zn345  Zn    0.86005   0.47327   0.28734   0.00000  Uiso   1.00
Zn346  Zn    0.80046   0.45791   0.21875   0.00000  Uiso   1.00
Zn347  Zn    0.87723   0.53109   0.20657   0.00000  Uiso   1.00
Zn348  Zn    0.79560   0.53773   0.28733   0.00000  Uiso   1.00
C349   C     0.05272   0.82616   0.26050   0.00000  Uiso   1.00
C350   C     0.16586   0.82000   0.05952   0.00000  Uiso   1.00
C351   C     0.23681   0.80365   0.05654   0.00000  Uiso   1.00
C352   C     0.28095   0.84030   0.23951   0.00000  Uiso   1.00
C353   C     0.13831   0.85614   0.42021   0.00000  Uiso   1.00
C354   C     0.32721   0.84277   0.23405   0.00000  Uiso   1.00
C355   C     0.00765   0.82499   0.26378   0.00000  Uiso   1.00
C356   C     0.18067   0.98926   0.23617   0.00000  Uiso   1.00
C357   C     0.15219   0.67845   0.26393   0.00000  Uiso   1.00
C358   C     0.15633   0.72258   0.26011   0.00000  Uiso   1.00
C359   C     0.17668   0.94465   0.24006   0.00000  Uiso   1.00
C360   C     0.08222   0.86100   0.48936   0.00000  Uiso   1.00
C361   C     0.18560   0.81517   0.12933   0.00000  Uiso   1.00
C362   C     0.14902   0.85173   0.37085   0.00000  Uiso   1.00
C363   C     0.24994   0.80899   0.01096   0.00000  Uiso   1.00
C364   C     0.19508   0.80977   0.08087   0.00000  Uiso   1.00
C365   C     0.09672   0.86439   0.44345   0.00000  Uiso   1.00
C366   C     0.02911   0.84192   0.15474   0.00000  Uiso   1.00
C367   C     0.10847   0.84838   0.01277   0.00000  Uiso   1.00
C368   C     0.15107   0.84063   0.49084   0.00000  Uiso   1.00
C369   C     0.16670   0.84689   0.44428   0.00000  Uiso   1.00
C370   C     0.17879   0.82714   0.01351   0.00000  Uiso   1.00
C371   C     0.22180   0.82174   0.48953   0.00000  Uiso   1.00
C372   C     0.23716   0.83096   0.44488   0.00000  Uiso   1.00
C373   C     0.21041   0.84425   0.42291   0.00000  Uiso   1.00
H374   H     0.25979   0.79656   0.07331   0.00000  Uiso   1.00
H375   H     0.04980   0.86687   0.00678   0.00000  Uiso   1.00
H376   H     0.22494   0.85329   0.38914   0.00000  Uiso   1.00
H377   H     0.05147   0.87881   0.20433   0.00000  Uiso   1.00
H378   H     0.05005   0.86213   0.12870   0.00000  Uiso   1.00
H379   H     0.33120   0.83253   0.14632   0.00000  Uiso   1.00
H380   H     0.04478   0.81373   0.15448   0.00000  Uiso   1.00
H381   H     0.31867   0.80946   0.29174   0.00000  Uiso   1.00
H382   H     0.20697   0.67055   0.21055   0.00000  Uiso   1.00
H383   H     0.12561   0.99792   0.28974   0.00000  Uiso   1.00
H384   H     0.27039   0.82861   0.42697   0.00000  Uiso   1.00
H385   H     0.28276   0.80501   0.49287   0.00000  Uiso   1.00
H386   H     0.13441   0.82483   0.08041   0.00000  Uiso   1.00
H387   H     0.07459   0.87178   0.42579   0.00000  Uiso   1.00
H388   H     0.09439   0.84529   0.04800   0.00000  Uiso   1.00
N389   N     0.02297   0.86466   0.19812   0.00000  Uiso   1.00
O390   O     0.16667   0.83333   0.25000   0.00000  Uiso   1.00
O391   O     0.15451   0.79304   0.15458   0.00000  Uiso   1.00
O392   O     0.12940   0.87058   0.34968   0.00000  Uiso   1.00
O393   O     0.20824   0.84425   0.14606   0.00000  Uiso   1.00
O394   O     0.17451   0.82546   0.34968   0.00000  Uiso   1.00
O395   O     0.17930   0.74686   0.28213   0.00000  Uiso   1.00
O396   O     0.14632   0.92751   0.27013   0.00000  Uiso   1.00
O397   O     0.07412   0.79958   0.23413   0.00000  Uiso   1.00
O398   O     0.26693   0.85939   0.21360   0.00000  Uiso   1.00
O399   O     0.07071   0.85544   0.28213   0.00000  Uiso   1.00
O400   O     0.25491   0.81892   0.27013   0.00000  Uiso   1.00
O401   O     0.13760   0.73610   0.23413   0.00000  Uiso   1.00
O402   O     0.20345   0.92286   0.21360   0.00000  Uiso   1.00
Zn403  Zn    0.19338   0.80661   0.28734   0.00000  Uiso   1.00
Zn404  Zn    0.13379   0.79124   0.21875   0.00000  Uiso   1.00
Zn405  Zn    0.21056   0.86442   0.20657   0.00000  Uiso   1.00
Zn406  Zn    0.12893   0.87106   0.28733   0.00000  Uiso   1.00
C407   C     0.38605   0.82616   0.26050   0.00000  Uiso   1.00
C408   C     0.49919   0.82000   0.05952   0.00000  Uiso   1.00
C409   C     0.57014   0.80365   0.05654   0.00000  Uiso   1.00
C410   C     0.61428   0.84030   0.23951   0.00000  Uiso   1.00
C411   C     0.47165   0.85614   0.42021   0.00000  Uiso   1.00
C412   C     0.66054   0.84277   0.23405   0.00000  Uiso   1.00
C413   C     0.34098   0.82499   0.26378   0.00000  Uiso   1.00
C414   C     0.51400   0.98926   0.23617   0.00000  Uiso   1.00
C415   C     0.48553   0.67845   0.26393   0.00000  Uiso   1.00
C416   C     0.48966   0.72258   0.26011   0.00000  Uiso   1.00
C417   C     0.51002   0.94465   0.24006   0.00000  Uiso   1.00
C418   C     0.41556   0.86100   0.48936   0.00000  Uiso   1.00
C419   C     0.51894   0.81517   0.12933   0.00000  Uiso   1.00
C420   C     0.48235   0.85173   0.37085   0.00000  Uiso   1.00
C421   C     0.58328   0.80899   0.01096   0.00000  Uiso   1.00
C422   C     0.52842   0.80977   0.08087   0.00000  Uiso   1.00
C423   C     0.43005   0.86439   0.44345   0.00000  Uiso   1.00
C424   C     0.36244   0.84192   0.15474   0.00000  Uiso   1.00
C425   C     0.44180   0.84838   0.01277   0.00000  Uiso   1.00
C426   C     0.48440   0.84063   0.49084   0.00000  Uiso   1.00
C427   C     0.50004   0.84689   0.44428   0.00000  Uiso   1.00
C428   C     0.51213   0.82714   0.01351   0.00000  Uiso   1.00
C429   C     0.55514   0.82174   0.48953   0.00000  Uiso   1.00
C430   C     0.57049   0.83096   0.44488   0.00000  Uiso   1.00
C431   C     0.54375   0.84425   0.42291   0.00000  Uiso   1.00
H432   H     0.59312   0.79656   0.07331   0.00000  Uiso   1.00
H433   H     0.38313   0.86687   0.00678   0.00000  Uiso   1.00
H434   H     0.55827   0.85329   0.38914   0.00000  Uiso   1.00
H435   H     0.38481   0.87881   0.20433   0.00000  Uiso   1.00
H436   H     0.38338   0.86213   0.12870   0.00000  Uiso   1.00
H437   H     0.66453   0.83253   0.14632   0.00000  Uiso   1.00
H438   H     0.37811   0.81373   0.15448   0.00000  Uiso   1.00
H439   H     0.65200   0.80946   0.29174   0.00000  Uiso   1.00
H440   H     0.54030   0.67055   0.21055   0.00000  Uiso   1.00
H441   H     0.45895   0.99792   0.28974   0.00000  Uiso   1.00
H442   H     0.60372   0.82861   0.42697   0.00000  Uiso   1.00
H443   H     0.61609   0.80501   0.49287   0.00000  Uiso   1.00
H444   H     0.46774   0.82483   0.08041   0.00000  Uiso   1.00
H445   H     0.40793   0.87178   0.42579   0.00000  Uiso   1.00
H446   H     0.42772   0.84529   0.04800   0.00000  Uiso   1.00
N447   N     0.35631   0.86466   0.19812   0.00000  Uiso   1.00
O448   O     0.50000   0.83333   0.25000   0.00000  Uiso   1.00
O449   O     0.48784   0.79304   0.15458   0.00000  Uiso   1.00
O450   O     0.46274   0.87058   0.34968   0.00000  Uiso   1.00
O451   O     0.54157   0.84425   0.14606   0.00000  Uiso   1.00
O452   O     0.50785   0.82546   0.34968   0.00000  Uiso   1.00
O453   O     0.51264   0.74686   0.28213   0.00000  Uiso   1.00
O454   O     0.47965   0.92751   0.27013   0.00000  Uiso   1.00
O455   O     0.40745   0.79958   0.23413   0.00000  Uiso   1.00
O456   O     0.60026   0.85939   0.21360   0.00000  Uiso   1.00
O457   O     0.40405   0.85544   0.28213   0.00000  Uiso   1.00
O458   O     0.58824   0.81892   0.27013   0.00000  Uiso   1.00
O459   O     0.47093   0.73610   0.23413   0.00000  Uiso   1.00
O460   O     0.53678   0.92286   0.21360   0.00000  Uiso   1.00
Zn461  Zn    0.52672   0.80661   0.28734   0.00000  Uiso   1.00
Zn462  Zn    0.46713   0.79124   0.21875   0.00000  Uiso   1.00
Zn463  Zn    0.54389   0.86442   0.20657   0.00000  Uiso   1.00
Zn464  Zn    0.46226   0.87106   0.28733   0.00000  Uiso   1.00
C465   C     0.71939   0.82616   0.26050   0.00000  Uiso   1.00
C466   C     0.83252   0.82000   0.05952   0.00000  Uiso   1.00
C467   C     0.90348   0.80365   0.05654   0.00000  Uiso   1.00
C468   C     0.94762   0.84030   0.23951   0.00000  Uiso   1.00
C469   C     0.80498   0.85614   0.42021   0.00000  Uiso   1.00
C470   C     0.99387   0.84277   0.23405   0.00000  Uiso   1.00
C471   C     0.67431   0.82499   0.26378   0.00000  Uiso   1.00
C472   C     0.84733   0.98926   0.23617   0.00000  Uiso   1.00
C473   C     0.81886   0.67845   0.26393   0.00000  Uiso   1.00
C474   C     0.82300   0.72258   0.26011   0.00000  Uiso   1.00
C475   C     0.84335   0.94465   0.24006   0.00000  Uiso   1.00
C476   C     0.74889   0.86100   0.48936   0.00000  Uiso   1.00
C477   C     0.85227   0.81517   0.12933   0.00000  Uiso   1.00
C478   C     0.81568   0.85173   0.37085   0.00000  Uiso   1.00
C479   C     0.91661   0.80899   0.01096   0.00000  Uiso   1.00
C480   C     0.86175   0.80977   0.08087   0.00000  Uiso   1.00
C481   C     0.76339   0.86439   0.44345   0.00000  Uiso   1.00
C482   C     0.69577   0.84192   0.15474   0.00000  Uiso   1.00
C483   C     0.77514   0.84838   0.01277   0.00000  Uiso   1.00
C484   C     0.81773   0.84063   0.49084   0.00000  Uiso   1.00
C485   C     0.83337   0.84689   0.44428   0.00000  Uiso   1.00
C486   C     0.84546   0.82714   0.01351   0.00000  Uiso   1.00
C487   C     0.88847   0.82174   0.48953   0.00000  Uiso   1.00
C488   C     0.90383   0.83096   0.44488   0.00000  Uiso   1.00
C489   C     0.87708   0.84425   0.42291   0.00000  Uiso   1.00
H490   H     0.92646   0.79656   0.07331   0.00000  Uiso   1.00
H491   H     0.71647   0.86687   0.00678   0.00000  Uiso   1.00
H492   H     0.89160   0.85329   0.38914   0.00000  Uiso   1.00
H493   H     0.71814   0.87881   0.20433   0.00000  Uiso   1.00
H494   H     0.71671   0.86213   0.12870   0.00000  Uiso   1.00
H495   H     0.99787   0.83253   0.14632   0.00000  Uiso   1.00
H496   H     0.71144   0.81373   0.15448   0.00000  Uiso   1.00
H497   H     0.98533   0.80946   0.29174   0.00000  Uiso   1.00
H498   H     0.87364   0.67055   0.21055   0.00000  Uiso   1.00
H499   H     0.79228   0.99792   0.28974   0.00000  Uiso   1.00
H500   H     0.93705   0.82861   0.42697   0.00000  Uiso   1.00
H501   H     0.94943   0.80501   0.49287   0.00000  Uiso   1.00
H502   H     0.80108   0.82483   0.08041   0.00000  Uiso   1.00
H503   H     0.74126   0.87178   0.42579   0.00000  Uiso   1.00
H504   H     0.76106   0.84529   0.04800   0.00000  Uiso   1.00
N505   N     0.68964   0.86466   0.19812   0.00000  Uiso   1.00
O506   O     0.83333   0.83333   0.25000   0.00000  Uiso   1.00
O507   O     0.82118   0.79304   0.15458   0.00000  Uiso   1.00
O508   O     0.79607   0.87058   0.34968   0.00000  Uiso   1.00
O509   O     0.87491   0.84425   0.14606   0.00000  Uiso   1.00
O510   O     0.84118   0.82546   0.34968   0.00000  Uiso   1.00
O511   O     0.84597   0.74686   0.28213   0.00000  Uiso   1.00
O512   O     0.81298   0.92751   0.27013   0.00000  Uiso   1.00
O513   O     0.74078   0.79958   0.23413   0.00000  Uiso   1.00
O514   O     0.93360   0.85939   0.21360   0.00000  Uiso   1.00
O515   O     0.73738   0.85544   0.28213   0.00000  Uiso   1.00
O516   O     0.92158   0.81892   0.27013   0.00000  Uiso   1.00
O517   O     0.80426   0.73610   0.23413   0.00000  Uiso   1.00
O518   O     0.87012   0.92286   0.21360   0.00000  Uiso   1.00
Zn519  Zn    0.86005   0.80661   0.28734   0.00000  Uiso   1.00
Zn520  Zn    0.80046   0.79124   0.21875   0.00000  Uiso   1.00
Zn521  Zn    0.87723   0.86442   0.20657   0.00000  Uiso   1.00
Zn522  Zn    0.79560   0.87106   0.28733   0.00000  Uiso   1.00
C523   C     0.05272   0.15950   0.76050   0.00000  Uiso   1.00
C524   C     0.16586   0.15333   0.55952   0.00000  Uiso   1.00
C525   C     0.23681   0.13699   0.55654   0.00000  Uiso   1.00
C526   C     0.28095   0.17364   0.73951   0.00000  Uiso   1.00
C527   C     0.13831   0.18947   0.92021   0.00000  Uiso   1.00
C528   C     0.32721   0.17611   0.73405   0.00000  Uiso   1.00
C529   C     0.00765   0.15833   0.76378   0.00000  Uiso   1.00
C530   C     0.18067   0.32259   0.73617   0.00000  Uiso   1.00
C531   C     0.15219   0.01178   0.76393   0.00000  Uiso   1.00
C532   C     0.15633   0.05591   0.76011   0.00000  Uiso   1.00
C533   C     0.17668   0.27799   0.74006   0.00000  Uiso   1.00
C534   C     0.08222   0.19434   0.98936   0.00000  Uiso   1.00
C535   C     0.18560   0.14850   0.62933   0.00000  Uiso   1.00
C536   C     0.14902   0.18506   0.87085   0.00000  Uiso   1.00
C537   C     0.24994   0.14232   0.51096   0.00000  Uiso   1.00
C538   C     0.19508   0.14310   0.58087   0.00000  Uiso   1.00
C539   C     0.09672   0.19772   0.94345   0.00000  Uiso   1.00
C540   C     0.02911   0.17525   0.65474   0.00000  Uiso   1.00
C541   C     0.10847   0.18171   0.51277   0.00000  Uiso   1.00
C542   C     0.15107   0.17397   0.99084   0.00000  Uiso   1.00
C543   C     0.16670   0.18023   0.94428   0.00000  Uiso   1.00
C544   C     0.17879   0.16048   0.51351   0.00000  Uiso   1.00
C545   C     0.22180   0.15507   0.98953   0.00000  Uiso   1.00
C546   C     0.23716   0.16430   0.94488   0.00000  Uiso   1.00
C547   C     0.21041   0.17758   0.92291   0.00000  Uiso   1.00
H548   H     0.25979   0.12989   0.57331   0.00000  Uiso   1.00
H549   H     0.04980   0.20020   0.50678   0.00000  Uiso   1.00
H550   H     0.22494   0.18663   0.88914   0.00000  Uiso   1.00
H551   H     0.05147   0.21214   0.70433   0.00000  Uiso   1.00
H552   H     0.05005   0.19546   0.62870   0.00000  Uiso   1.00
H553   H     0.33120   0.16587   0.64632   0.00000  Uiso   1.00
H554   H     0.04478   0.14706   0.65448   0.00000  Uiso   1.00
H555   H     0.31867   0.14279   0.79174   0.00000  Uiso   1.00
H556   H     0.20697   0.00388   0.71055   0.00000  Uiso   1.00
H557   H     0.12561   0.33125   0.78974   0.00000  Uiso   1.00
H558   H     0.27039   0.16195   0.92697   0.00000  Uiso   1.00
H559   H     0.28276   0.13834   0.99287   0.00000  Uiso   1.00
H560   H     0.13441   0.15816   0.58041   0.00000  Uiso   1.00
H561   H     0.07459   0.20512   0.92579   0.00000  Uiso   1.00
H562   H     0.09439   0.17862   0.54800   0.00000  Uiso   1.00
N563   N     0.02297   0.19799   0.69812   0.00000  Uiso   1.00
O564   O     0.16667   0.16667   0.75000   0.00000  Uiso   1.00
O565   O     0.15451   0.12637   0.65458   0.00000  Uiso   1.00
O566   O     0.12940   0.20391   0.84968   0.00000  Uiso   1.00
O567   O     0.20824   0.17759   0.64606   0.00000  Uiso   1.00
O568   O     0.17451   0.15880   0.84968   0.00000  Uiso   1.00
O569   O     0.17930   0.08019   0.78213   0.00000  Uiso   1.00
O570   O     0.14632   0.26085   0.77013   0.00000  Uiso   1.00
O571   O     0.07412   0.13291   0.73413   0.00000  Uiso   1.00
O572   O     0.26693   0.19272   0.71360   0.00000  Uiso   1.00
O573   O     0.07071   0.18878   0.78213   0.00000  Uiso   1.00
O574   O     0.25491   0.15226   0.77013   0.00000  Uiso   1.00
O575   O     0.13760   0.06944   0.73413   0.00000  Uiso   1.00
O576   O     0.20345   0.25620   0.71360   0.00000  Uiso   1.00
Zn577  Zn    0.19338   0.13994   0.78734   0.00000  Uiso   1.00
Zn578  Zn    0.13379   0.12458   0.71875   0.00000  Uiso   1.00
Zn579  Zn    0.21056   0.19775   0.70657   0.00000  Uiso   1.00
Zn580  Zn    0.12893   0.20439   0.78733   0.00000  Uiso   1.00
C581   C     0.38605   0.15950   0.76050   0.00000  Uiso   1.00
C582   C     0.49919   0.15333   0.55952   0.00000  Uiso   1.00
C583   C     0.57014   0.13699   0.55654   0.00000  Uiso   1.00
C584   C     0.61428   0.17364   0.73951   0.00000  Uiso   1.00
C585   C     0.47165   0.18947   0.92021   0.00000  Uiso   1.00
C586   C     0.66054   0.17611   0.73405   0.00000  Uiso   1.00
C587   C     0.34098   0.15833   0.76378   0.00000  Uiso   1.00
C588   C     0.51400   0.32259   0.73617   0.00000  Uiso   1.00
C589   C     0.48553   0.01178   0.76393   0.00000  Uiso   1.00
C590   C     0.48966   0.05591   0.76011   0.00000  Uiso   1.00
C591   C     0.51002   0.27799   0.74006   0.00000  Uiso   1.00
C592   C     0.41556   0.19434   0.98936   0.00000  Uiso   1.00
C593   C     0.51894   0.14850   0.62933   0.00000  Uiso   1.00
C594   C     0.48235   0.18506   0.87085   0.00000  Uiso   1.00
C595   C     0.58328   0.14232   0.51096   0.00000  Uiso   1.00
C596   C     0.52842   0.14310   0.58087   0.00000  Uiso   1.00
C597   C     0.43005   0.19772   0.94345   0.00000  Uiso   1.00
C598   C     0.36244   0.17525   0.65474   0.00000  Uiso   1.00
C599   C     0.44180   0.18171   0.51277   0.00000  Uiso   1.00
C600   C     0.48440   0.17397   0.99084   0.00000  Uiso   1.00
C601   C     0.50004   0.18023   0.94428   0.00000  Uiso   1.00
C602   C     0.51213   0.16048   0.51351   0.00000  Uiso   1.00
C603   C     0.55514   0.15507   0.98953   0.00000  Uiso   1.00
C604   C     0.57049   0.16430   0.94488   0.00000  Uiso   1.00
C605   C     0.54375   0.17758   0.92291   0.00000  Uiso   1.00
H606   H     0.59312   0.12989   0.57331   0.00000  Uiso   1.00
H607   H     0.38313   0.20020   0.50678   0.00000  Uiso   1.00
H608   H     0.55827   0.18663   0.88914   0.00000  Uiso   1.00
H609   H     0.38481   0.21214   0.70433   0.00000  Uiso   1.00
H610   H     0.38338   0.19546   0.62870   0.00000  Uiso   1.00
H611   H     0.66453   0.16587   0.64632   0.00000  Uiso   1.00
H612   H     0.37811   0.14706   0.65448   0.00000  Uiso   1.00
H613   H     0.65200   0.14279   0.79174   0.00000  Uiso   1.00
H614   H     0.54030   0.00388   0.71055   0.00000  Uiso   1.00
H615   H     0.45895   0.33125   0.78974   0.00000  Uiso   1.00
H616   H     0.60372   0.16195   0.92697   0.00000  Uiso   1.00
H617   H     0.61609   0.13834   0.99287   0.00000  Uiso   1.00
H618   H     0.46774   0.15816   0.58041   0.00000  Uiso   1.00
H619   H     0.40793   0.20512   0.92579   0.00000  Uiso   1.00
H620   H     0.42772   0.17862   0.54800   0.00000  Uiso   1.00
N621   N     0.35631   0.19799   0.69812   0.00000  Uiso   1.00
O622   O     0.50000   0.16667   0.75000   0.00000  Uiso   1.00
O623   O     0.48784   0.12637   0.65458   0.00000  Uiso   1.00
O624   O     0.46274   0.20391   0.84968   0.00000  Uiso   1.00
O625   O     0.54157   0.17759   0.64606   0.00000  Uiso   1.00
O626   O     0.50785   0.15880   0.84968   0.00000  Uiso   1.00
O627   O     0.51264   0.08019   0.78213   0.00000  Uiso   1.00
O628   O     0.47965   0.26085   0.77013   0.00000  Uiso   1.00
O629   O     0.40745   0.13291   0.73413   0.00000  Uiso   1.00
O630   O     0.60026   0.19272   0.71360   0.00000  Uiso   1.00
O631   O     0.40405   0.18878   0.78213   0.00000  Uiso   1.00
O632   O     0.58824   0.15226   0.77013   0.00000  Uiso   1.00
O633   O     0.47093   0.06944   0.73413   0.00000  Uiso   1.00
O634   O     0.53678   0.25620   0.71360   0.00000  Uiso   1.00
Zn635  Zn    0.52672   0.13994   0.78734   0.00000  Uiso   1.00
Zn636  Zn    0.46713   0.12458   0.71875   0.00000  Uiso   1.00
Zn637  Zn    0.54389   0.19775   0.70657   0.00000  Uiso   1.00
Zn638  Zn    0.46226   0.20439   0.78733   0.00000  Uiso   1.00
C639   C     0.71939   0.15950   0.76050   0.00000  Uiso   1.00
C640   C     0.83252   0.15333   0.55952   0.00000  Uiso   1.00
C641   C     0.90348   0.13699   0.55654   0.00000  Uiso   1.00
C642   C     0.94762   0.17364   0.73951   0.00000  Uiso   1.00
C643   C     0.80498   0.18947   0.92021   0.00000  Uiso   1.00
C644   C     0.99387   0.17611   0.73405   0.00000  Uiso   1.00
C645   C     0.67431   0.15833   0.76378   0.00000  Uiso   1.00
C646   C     0.84733   0.32259   0.73617   0.00000  Uiso   1.00
C647   C     0.81886   0.01178   0.76393   0.00000  Uiso   1.00
C648   C     0.82300   0.05591   0.76011   0.00000  Uiso   1.00
C649   C     0.84335   0.27799   0.74006   0.00000  Uiso   1.00
C650   C     0.74889   0.19434   0.98936   0.00000  Uiso   1.00
C651   C     0.85227   0.14850   0.62933   0.00000  Uiso   1.00
C652   C     0.81568   0.18506   0.87085   0.00000  Uiso   1.00
C653   C     0.91661   0.14232   0.51096   0.00000  Uiso   1.00
C654   C     0.86175   0.14310   0.58087   0.00000  Uiso   1.00
C655   C     0.76339   0.19772   0.94345   0.00000  Uiso   1.00
C656   C     0.69577   0.17525   0.65474   0.00000  Uiso   1.00
C657   C     0.77514   0.18171   0.51277   0.00000  Uiso   1.00
C658   C     0.81773   0.17397   0.99084   0.00000  Uiso   1.00
C659   C     0.83337   0.18023   0.94428   0.00000  Uiso   1.00
C660   C     0.84546   0.16048   0.51351   0.00000  Uiso   1.00
C661   C     0.88847   0.15507   0.98953   0.00000  Uiso   1.00
C662   C     0.90383   0.16430   0.94488   0.00000  Uiso   1.00
C663   C     0.87708   0.17758   0.92291   0.00000  Uiso   1.00
H664   H     0.92646   0.12989   0.57331   0.00000  Uiso   1.00
H665   H     0.71647   0.20020   0.50678   0.00000  Uiso   1.00
H666   H     0.89160   0.18663   0.88914   0.00000  Uiso   1.00
H667   H     0.71814   0.21214   0.70433   0.00000  Uiso   1.00
H668   H     0.71671   0.19546   0.62870   0.00000  Uiso   1.00
H669   H     0.99787   0.16587   0.64632   0.00000  Uiso   1.00
H670   H     0.71144   0.14706   0.65448   0.00000  Uiso   1.00
H671   H     0.98533   0.14279   0.79174   0.00000  Uiso   1.00
H672   H     0.87364   0.00388   0.71055   0.00000  Uiso   1.00
H673   H     0.79228   0.33125   0.78974   0.00000  Uiso   1.00
H674   H     0.93705   0.16195   0.92697   0.00000  Uiso   1.00
H675   H     0.94943   0.13834   0.99287   0.00000  Uiso   1.00
H676   H     0.80108   0.15816   0.58041   0.00000  Uiso   1.00
H677   H     0.74126   0.20512   0.92579   0.00000  Uiso   1.00
H678   H     0.76106   0.17862   0.54800   0.00000  Uiso   1.00
N679   N     0.68964   0.19799   0.69812   0.00000  Uiso   1.00
O680   O     0.83333   0.16667   0.75000   0.00000  Uiso   1.00
O681   O     0.82118   0.12637   0.65458   0.00000  Uiso   1.00
O682   O     0.79607   0.20391   0.84968   0.00000  Uiso   1.00
O683   O     0.87491   0.17759   0.64606   0.00000  Uiso   1.00
O684   O     0.84118   0.15880   0.84968   0.00000  Uiso   1.00
O685   O     0.84597   0.08019   0.78213   0.00000  Uiso   1.00
O686   O     0.81298   0.26085   0.77013   0.00000  Uiso   1.00
O687   O     0.74078   0.13291   0.73413   0.00000  Uiso   1.00
O688   O     0.93360   0.19272   0.71360   0.00000  Uiso   1.00
O689   O     0.73738   0.18878   0.78213   0.00000  Uiso   1.00
O690   O     0.92158   0.15226   0.77013   0.00000  Uiso   1.00
O691   O     0.80426   0.06944   0.73413   0.00000  Uiso   1.00
O692   O     0.87012   0.25620   0.71360   0.00000  Uiso   1.00
Zn693  Zn    0.86005   0.13994   0.78734   0.00000  Uiso   1.00
Zn694  Zn    0.80046   0.12458   0.71875   0.00000  Uiso   1.00
Zn695  Zn    0.87723   0.19775   0.70657   0.00000  Uiso   1.00
Zn696  Zn    0.79560   0.20439   0.78733   0.00000  Uiso   1.00
C697   C     0.05272   0.49283   0.76050   0.00000  Uiso   1.00
C698   C     0.16586   0.48667   0.55952   0.00000  Uiso   1.00
C699   C     0.23681   0.47032   0.55654   0.00000  Uiso   1.00
C700   C     0.28095   0.50697   0.73951   0.00000  Uiso   1.00
C701   C     0.13831   0.52280   0.92021   0.00000  Uiso   1.00
C702   C     0.32721   0.50944   0.73405   0.00000  Uiso   1.00
C703   C     0.00765   0.49166   0.76378   0.00000  Uiso   1.00
C704   C     0.18067   0.65593   0.73617   0.00000  Uiso   1.00
C705   C     0.15219   0.34511   0.76393   0.00000  Uiso   1.00
C706   C     0.15633   0.38925   0.76011   0.00000  Uiso   1.00
C707   C     0.17668   0.61132   0.74006   0.00000  Uiso   1.00
C708   C     0.08222   0.52767   0.98936   0.00000  Uiso   1.00
C709   C     0.18560   0.48183   0.62933   0.00000  Uiso   1.00
C710   C     0.14902   0.51840   0.87085   0.00000  Uiso   1.00
C711   C     0.24994   0.47565   0.51096   0.00000  Uiso   1.00
C712   C     0.19508   0.47644   0.58087   0.00000  Uiso   1.00
C713   C     0.09672   0.53106   0.94345   0.00000  Uiso   1.00
C714   C     0.02911   0.50859   0.65474   0.00000  Uiso   1.00
C715   C     0.10847   0.51505   0.51277   0.00000  Uiso   1.00
C716   C     0.15107   0.50730   0.99084   0.00000  Uiso   1.00
C717   C     0.16670   0.51356   0.94428   0.00000  Uiso   1.00
C718   C     0.17879   0.49381   0.51351   0.00000  Uiso   1.00
C719   C     0.22180   0.48840   0.98953   0.00000  Uiso   1.00
C720   C     0.23716   0.49763   0.94488   0.00000  Uiso   1.00
C721   C     0.21041   0.51092   0.92291   0.00000  Uiso   1.00
H722   H     0.25979   0.46322   0.57331   0.00000  Uiso   1.00
H723   H     0.04980   0.53354   0.50678   0.00000  Uiso   1.00
H724   H     0.22494   0.51996   0.88914   0.00000  Uiso   1.00
H725   H     0.05147   0.54548   0.70433   0.00000  Uiso   1.00
H726   H     0.05005   0.52880   0.62870   0.00000  Uiso   1.00
H727   H     0.33120   0.49920   0.64632   0.00000  Uiso   1.00
H728   H     0.04478   0.48040   0.65448   0.00000  Uiso   1.00
H729   H     0.31867   0.47613   0.79174   0.00000  Uiso   1.00
H730   H     0.20697   0.33721   0.71055   0.00000  Uiso   1.00
H731   H     0.12561   0.66458   0.78974   0.00000  Uiso   1.00
H732   H     0.27039   0.49528   0.92697   0.00000  Uiso   1.00
H733   H     0.28276   0.47167   0.99287   0.00000  Uiso   1.00
H734   H     0.13441   0.49149   0.58041   0.00000  Uiso   1.00
H735   H     0.07459   0.53845   0.92579   0.00000  Uiso   1.00
H736   H     0.09439   0.51196   0.54800   0.00000  Uiso   1.00
N737   N     0.02297   0.53133   0.69812   0.00000  Uiso   1.00
O738   O     0.16667   0.50000   0.75000   0.00000  Uiso   1.00
O739   O     0.15451   0.45970   0.65458   0.00000  Uiso   1.00
O740   O     0.12940   0.53724   0.84968   0.00000  Uiso   1.00
O741   O     0.20824   0.51092   0.64606   0.00000  Uiso   1.00
O742   O     0.17451   0.49213   0.84968   0.00000  Uiso   1.00
O743   O     0.17930   0.41352   0.78213   0.00000  Uiso   1.00
O744   O     0.14632   0.59418   0.77013   0.00000  Uiso   1.00
O745   O     0.07412   0.46625   0.73413   0.00000  Uiso   1.00
O746   O     0.26693   0.52605   0.71360   0.00000  Uiso   1.00
O747   O     0.07071   0.52211   0.78213   0.00000  Uiso   1.00
O748   O     0.25491   0.48559   0.77013   0.00000  Uiso   1.00
O749   O     0.13760   0.40277   0.73413   0.00000  Uiso   1.00
O750   O     0.20345   0.58953   0.71360   0.00000  Uiso   1.00
Zn751  Zn    0.19338   0.47327   0.78734   0.00000  Uiso   1.00
Zn752  Zn    0.13379   0.45791   0.71875   0.00000  Uiso   1.00
Zn753  Zn    0.21056   0.53109   0.70657   0.00000  Uiso   1.00
Zn754  Zn    0.12893   0.53773   0.78733   0.00000  Uiso   1.00
C755   C     0.38605   0.49283   0.76050   0.00000  Uiso   1.00
C756   C     0.49919   0.48667   0.55952   0.00000  Uiso   1.00
C757   C     0.57014   0.47032   0.55654   0.00000  Uiso   1.00
C758   C     0.61428   0.50697   0.73951   0.00000  Uiso   1.00
C759   C     0.47165   0.52280   0.92021   0.00000  Uiso   1.00
C760   C     0.66054   0.50944   0.73405   0.00000  Uiso   1.00
C761   C     0.34098   0.49166   0.76378   0.00000  Uiso   1.00
C762   C     0.51400   0.65593   0.73617   0.00000  Uiso   1.00
C763   C     0.48553   0.34511   0.76393   0.00000  Uiso   1.00
C764   C     0.48966   0.38925   0.76011   0.00000  Uiso   1.00
C765   C     0.51002   0.61132   0.74006   0.00000  Uiso   1.00
C766   C     0.41556   0.52767   0.98936   0.00000  Uiso   1.00
C767   C     0.51894   0.48183   0.62933   0.00000  Uiso   1.00
C768   C     0.48235   0.51840   0.87085   0.00000  Uiso   1.00
C769   C     0.58328   0.47565   0.51096   0.00000  Uiso   1.00
C770   C     0.52842   0.47644   0.58087   0.00000  Uiso   1.00
C771   C     0.43005   0.53106   0.94345   0.00000  Uiso   1.00
C772   C     0.36244   0.50859   0.65474   0.00000  Uiso   1.00
C773   C     0.44180   0.51505   0.51277   0.00000  Uiso   1.00
C774   C     0.48440   0.50730   0.99084   0.00000  Uiso   1.00
C775   C     0.50004   0.51356   0.94428   0.00000  Uiso   1.00
C776   C     0.51213   0.49381   0.51351   0.00000  Uiso   1.00
C777   C     0.55514   0.48840   0.98953   0.00000  Uiso   1.00
C778   C     0.57049   0.49763   0.94488   0.00000  Uiso   1.00
C779   C     0.54375   0.51092   0.92291   0.00000  Uiso   1.00
H780   H     0.59312   0.46322   0.57331   0.00000  Uiso   1.00
H781   H     0.38313   0.53354   0.50678   0.00000  Uiso   1.00
H782   H     0.55827   0.51996   0.88914   0.00000  Uiso   1.00
H783   H     0.38481   0.54548   0.70433   0.00000  Uiso   1.00
H784   H     0.38338   0.52880   0.62870   0.00000  Uiso   1.00
H785   H     0.66453   0.49920   0.64632   0.00000  Uiso   1.00
H786   H     0.37811   0.48040   0.65448   0.00000  Uiso   1.00
H787   H     0.65200   0.47613   0.79174   0.00000  Uiso   1.00
H788   H     0.54030   0.33721   0.71055   0.00000  Uiso   1.00
H789   H     0.45895   0.66458   0.78974   0.00000  Uiso   1.00
H790   H     0.60372   0.49528   0.92697   0.00000  Uiso   1.00
H791   H     0.61609   0.47167   0.99287   0.00000  Uiso   1.00
H792   H     0.46774   0.49149   0.58041   0.00000  Uiso   1.00
H793   H     0.40793   0.53845   0.92579   0.00000  Uiso   1.00
H794   H     0.42772   0.51196   0.54800   0.00000  Uiso   1.00
N795   N     0.35631   0.53133   0.69812   0.00000  Uiso   1.00
O796   O     0.50000   0.50000   0.75000   0.00000  Uiso   1.00
O797   O     0.48784   0.45970   0.65458   0.00000  Uiso   1.00
O798   O     0.46274   0.53724   0.84968   0.00000  Uiso   1.00
O799   O     0.54157   0.51092   0.64606   0.00000  Uiso   1.00
O800   O     0.50785   0.49213   0.84968   0.00000  Uiso   1.00
O801   O     0.51264   0.41352   0.78213   0.00000  Uiso   1.00
O802   O     0.47965   0.59418   0.77013   0.00000  Uiso   1.00
O803   O     0.40745   0.46625   0.73413   0.00000  Uiso   1.00
O804   O     0.60026   0.52605   0.71360   0.00000  Uiso   1.00
O805   O     0.40405   0.52211   0.78213   0.00000  Uiso   1.00
O806   O     0.58824   0.48559   0.77013   0.00000  Uiso   1.00
O807   O     0.47093   0.40277   0.73413   0.00000  Uiso   1.00
O808   O     0.53678   0.58953   0.71360   0.00000  Uiso   1.00
Zn809  Zn    0.52672   0.47327   0.78734   0.00000  Uiso   1.00
Zn810  Zn    0.46713   0.45791   0.71875   0.00000  Uiso   1.00
Zn811  Zn    0.54389   0.53109   0.70657   0.00000  Uiso   1.00
Zn812  Zn    0.46226   0.53773   0.78733   0.00000  Uiso   1.00
C813   C     0.71939   0.49283   0.76050   0.00000  Uiso   1.00
C814   C     0.83252   0.48667   0.55952   0.00000  Uiso   1.00
C815   C     0.90348   0.47032   0.55654   0.00000  Uiso   1.00
C816   C     0.94762   0.50697   0.73951   0.00000  Uiso   1.00
C817   C     0.80498   0.52280   0.92021   0.00000  Uiso   1.00
C818   C     0.99387   0.50944   0.73405   0.00000  Uiso   1.00
C819   C     0.67431   0.49166   0.76378   0.00000  Uiso   1.00
C820   C     0.84733   0.65593   0.73617   0.00000  Uiso   1.00
C821   C     0.81886   0.34511   0.76393   0.00000  Uiso   1.00
C822   C     0.82300   0.38925   0.76011   0.00000  Uiso   1.00
C823   C     0.84335   0.61132   0.74006   0.00000  Uiso   1.00
C824   C     0.74889   0.52767   0.98936   0.00000  Uiso   1.00
C825   C     0.85227   0.48183   0.62933   0.00000  Uiso   1.00
C826   C     0.81568   0.51840   0.87085   0.00000  Uiso   1.00
C827   C     0.91661   0.47565   0.51096   0.00000  Uiso   1.00
C828   C     0.86175   0.47644   0.58087   0.00000  Uiso   1.00
C829   C     0.76339   0.53106   0.94345   0.00000  Uiso   1.00
C830   C     0.69577   0.50859   0.65474   0.00000  Uiso   1.00
C831   C     0.77514   0.51505   0.51277   0.00000  Uiso   1.00
C832   C     0.81773   0.50730   0.99084   0.00000  Uiso   1.00
C833   C     0.83337   0.51356   0.94428   0.00000  Uiso   1.00
C834   C     0.84546   0.49381   0.51351   0.00000  Uiso   1.00
C835   C     0.88847   0.48840   0.98953   0.00000  Uiso   1.00
C836   C     0.90383   0.49763   0.94488   0.00000  Uiso   1.00
C837   C     0.87708   0.51092   0.92291   0.00000  Uiso   1.00
H838   H     0.92646   0.46322   0.57331   0.00000  Uiso   1.00
H839   H     0.71647   0.53354   0.50678   0.00000  Uiso   1.00
H840   H     0.89160   0.51996   0.88914   0.00000  Uiso   1.00
H841   H     0.71814   0.54548   0.70433   0.00000  Uiso   1.00
H842   H     0.71671   0.52880   0.62870   0.00000  Uiso   1.00
H843   H     0.99787   0.49920   0.64632   0.00000  Uiso   1.00
H844   H     0.71144   0.48040   0.65448   0.00000  Uiso   1.00
H845   H     0.98533   0.47613   0.79174   0.00000  Uiso   1.00
H846   H     0.87364   0.33721   0.71055   0.00000  Uiso   1.00
H847   H     0.79228   0.66458   0.78974   0.00000  Uiso   1.00
H848   H     0.93705   0.49528   0.92697   0.00000  Uiso   1.00
H849   H     0.94943   0.47167   0.99287   0.00000  Uiso   1.00
H850   H     0.80108   0.49149   0.58041   0.00000  Uiso   1.00
H851   H     0.74126   0.53845   0.92579   0.00000  Uiso   1.00
H852   H     0.76106   0.51196   0.54800   0.00000  Uiso   1.00
N853   N     0.68964   0.53133   0.69812   0.00000  Uiso   1.00
O854   O     0.83333   0.50000   0.75000   0.00000  Uiso   1.00
O855   O     0.82118   0.45970   0.65458   0.00000  Uiso   1.00
O856   O     0.79607   0.53724   0.84968   0.00000  Uiso   1.00
O857   O     0.87491   0.51092   0.64606   0.00000  Uiso   1.00
O858   O     0.84118   0.49213   0.84968   0.00000  Uiso   1.00
O859   O     0.84597   0.41352   0.78213   0.00000  Uiso   1.00
O860   O     0.81298   0.59418   0.77013   0.00000  Uiso   1.00
O861   O     0.74078   0.46625   0.73413   0.00000  Uiso   1.00
O862   O     0.93360   0.52605   0.71360   0.00000  Uiso   1.00
O863   O     0.73738   0.52211   0.78213   0.00000  Uiso   1.00
O864   O     0.92158   0.48559   0.77013   0.00000  Uiso   1.00
O865   O     0.80426   0.40277   0.73413   0.00000  Uiso   1.00
O866   O     0.87012   0.58953   0.71360   0.00000  Uiso   1.00
Zn867  Zn    0.86005   0.47327   0.78734   0.00000  Uiso   1.00
Zn868  Zn    0.80046   0.45791   0.71875   0.00000  Uiso   1.00
Zn869  Zn    0.87723   0.53109   0.70657   0.00000  Uiso   1.00
Zn870  Zn    0.79560   0.53773   0.78733   0.00000  Uiso   1.00
C871   C     0.05272   0.82616   0.76050   0.00000  Uiso   1.00
C872   C     0.16586   0.82000   0.55952   0.00000  Uiso   1.00
C873   C     0.23681   0.80365   0.55654   0.00000  Uiso   1.00
C874   C     0.28095   0.84030   0.73951   0.00000  Uiso   1.00
C875   C     0.13831   0.85614   0.92021   0.00000  Uiso   1.00
C876   C     0.32721   0.84277   0.73405   0.00000  Uiso   1.00
C877   C     0.00765   0.82499   0.76378   0.00000  Uiso   1.00
C878   C     0.18067   0.98926   0.73617   0.00000  Uiso   1.00
C879   C     0.15219   0.67845   0.76393   0.00000  Uiso   1.00
C880   C     0.15633   0.72258   0.76011   0.00000  Uiso   1.00
C881   C     0.17668   0.94465   0.74006   0.00000  Uiso   1.00
C882   C     0.08222   0.86100   0.98936   0.00000  Uiso   1.00
C883   C     0.18560   0.81517   0.62933   0.00000  Uiso   1.00
C884   C     0.14902   0.85173   0.87085   0.00000  Uiso   1.00
C885   C     0.24994   0.80899   0.51096   0.00000  Uiso   1.00
C886   C     0.19508   0.80977   0.58087   0.00000  Uiso   1.00
C887   C     0.09672   0.86439   0.94345   0.00000  Uiso   1.00
C888   C     0.02911   0.84192   0.65474   0.00000  Uiso   1.00
C889   C     0.10847   0.84838   0.51277   0.00000  Uiso   1.00
C890   C     0.15107   0.84063   0.99084   0.00000  Uiso   1.00
C891   C     0.16670   0.84689   0.94428   0.00000  Uiso   1.00
C892   C     0.17879   0.82714   0.51351   0.00000  Uiso   1.00
C893   C     0.22180   0.82174   0.98953   0.00000  Uiso   1.00
C894   C     0.23716   0.83096   0.94488   0.00000  Uiso   1.00
C895   C     0.21041   0.84425   0.92291   0.00000  Uiso   1.00
H896   H     0.25979   0.79656   0.57331   0.00000  Uiso   1.00
H897   H     0.04980   0.86687   0.50678   0.00000  Uiso   1.00
H898   H     0.22494   0.85329   0.88914   0.00000  Uiso   1.00
H899   H     0.05147   0.87881   0.70433   0.00000  Uiso   1.00
H900   H     0.05005   0.86213   0.62870   0.00000  Uiso   1.00
H901   H     0.33120   0.83253   0.64632   0.00000  Uiso   1.00
H902   H     0.04478   0.81373   0.65448   0.00000  Uiso   1.00
H903   H     0.31867   0.80946   0.79174   0.00000  Uiso   1.00
H904   H     0.20697   0.67055   0.71055   0.00000  Uiso   1.00
H905   H     0.12561   0.99792   0.78974   0.00000  Uiso   1.00
H906   H     0.27039   0.82861   0.92697   0.00000  Uiso   1.00
H907   H     0.28276   0.80501   0.99287   0.00000  Uiso   1.00
H908   H     0.13441   0.82483   0.58041   0.00000  Uiso   1.00
H909   H     0.07459   0.87178   0.92579   0.00000  Uiso   1.00
H910   H     0.09439   0.84529   0.54800   0.00000  Uiso   1.00
N911   N     0.02297   0.86466   0.69812   0.00000  Uiso   1.00
O912   O     0.16667   0.83333   0.75000   0.00000  Uiso   1.00
O913   O     0.15451   0.79304   0.65458   0.00000  Uiso   1.00
O914   O     0.12940   0.87058   0.84968   0.00000  Uiso   1.00
O915   O     0.20824   0.84425   0.64606   0.00000  Uiso   1.00
O916   O     0.17451   0.82546   0.84968   0.00000  Uiso   1.00
O917   O     0.17930   0.74686   0.78213   0.00000  Uiso   1.00
O918   O     0.14632   0.92751   0.77013   0.00000  Uiso   1.00
O919   O     0.07412   0.79958   0.73413   0.00000  Uiso   1.00
O920   O     0.26693   0.85939   0.71360   0.00000  Uiso   1.00
O921   O     0.07071   0.85544   0.78213   0.00000  Uiso   1.00
O922   O     0.25491   0.81892   0.77013   0.00000  Uiso   1.00
O923   O     0.13760   0.73610   0.73413   0.00000  Uiso   1.00
O924   O     0.20345   0.92286   0.71360   0.00000  Uiso   1.00
Zn925  Zn    0.19338   0.80661   0.78734   0.00000  Uiso   1.00
Zn926  Zn    0.13379   0.79124   0.71875   0.00000  Uiso   1.00
Zn927  Zn    0.21056   0.86442   0.70657   0.00000  Uiso   1.00
Zn928  Zn    0.12893   0.87106   0.78733   0.00000  Uiso   1.00
C929   C     0.38605   0.82616   0.76050   0.00000  Uiso   1.00
C930   C     0.49919   0.82000   0.55952   0.00000  Uiso   1.00
C931   C     0.57014   0.80365   0.55654   0.00000  Uiso   1.00
C932   C     0.61428   0.84030   0.73951   0.00000  Uiso   1.00
C933   C     0.47165   0.85614   0.92021   0.00000  Uiso   1.00
C934   C     0.66054   0.84277   0.73405   0.00000  Uiso   1.00
C935   C     0.34098   0.82499   0.76378   0.00000  Uiso   1.00
C936   C     0.51400   0.98926   0.73617   0.00000  Uiso   1.00
C937   C     0.48553   0.67845   0.76393   0.00000  Uiso   1.00
C938   C     0.48966   0.72258   0.76011   0.00000  Uiso   1.00
C939   C     0.51002   0.94465   0.74006   0.00000  Uiso   1.00
C940   C     0.41556   0.86100   0.98936   0.00000  Uiso   1.00
C941   C     0.51894   0.81517   0.62933   0.00000  Uiso   1.00
C942   C     0.48235   0.85173   0.87085   0.00000  Uiso   1.00
C943   C     0.58328   0.80899   0.51096   0.00000  Uiso   1.00
C944   C     0.52842   0.80977   0.58087   0.00000  Uiso   1.00
C945   C     0.43005   0.86439   0.94345   0.00000  Uiso   1.00
C946   C     0.36244   0.84192   0.65474   0.00000  Uiso   1.00
C947   C     0.44180   0.84838   0.51277   0.00000  Uiso   1.00
C948   C     0.48440   0.84063   0.99084   0.00000  Uiso   1.00
C949   C     0.50004   0.84689   0.94428   0.00000  Uiso   1.00
C950   C     0.51213   0.82714   0.51351   0.00000  Uiso   1.00
C951   C     0.55514   0.82174   0.98953   0.00000  Uiso   1.00
C952   C     0.57049   0.83096   0.94488   0.00000  Uiso   1.00
C953   C     0.54375   0.84425   0.92291   0.00000  Uiso   1.00
H954   H     0.59312   0.79656   0.57331   0.00000  Uiso   1.00
H955   H     0.38313   0.86687   0.50678   0.00000  Uiso   1.00
H956   H     0.55827   0.85329   0.88914   0.00000  Uiso   1.00
H957   H     0.38481   0.87881   0.70433   0.00000  Uiso   1.00
H958   H     0.38338   0.86213   0.62870   0.00000  Uiso   1.00
H959   H     0.66453   0.83253   0.64632   0.00000  Uiso   1.00
H960   H     0.37811   0.81373   0.65448   0.00000  Uiso   1.00
H961   H     0.65200   0.80946   0.79174   0.00000  Uiso   1.00
H962   H     0.54030   0.67055   0.71055   0.00000  Uiso   1.00
H963   H     0.45895   0.99792   0.78974   0.00000  Uiso   1.00
H964   H     0.60372   0.82861   0.92697   0.00000  Uiso   1.00
H965   H     0.61609   0.80501   0.99287   0.00000  Uiso   1.00
H966   H     0.46774   0.82483   0.58041   0.00000  Uiso   1.00
H967   H     0.40793   0.87178   0.92579   0.00000  Uiso   1.00
H968   H     0.42772   0.84529   0.54800   0.00000  Uiso   1.00
N969   N     0.35631   0.86466   0.69812   0.00000  Uiso   1.00
O970   O     0.50000   0.83333   0.75000   0.00000  Uiso   1.00
O971   O     0.48784   0.79304   0.65458   0.00000  Uiso   1.00
O972   O     0.46274   0.87058   0.84968   0.00000  Uiso   1.00
O973   O     0.54157   0.84425   0.64606   0.00000  Uiso   1.00
O974   O     0.50785   0.82546   0.84968   0.00000  Uiso   1.00
O975   O     0.51264   0.74686   0.78213   0.00000  Uiso   1.00
O976   O     0.47965   0.92751   0.77013   0.00000  Uiso   1.00
O977   O     0.40745   0.79958   0.73413   0.00000  Uiso   1.00
O978   O     0.60026   0.85939   0.71360   0.00000  Uiso   1.00
O979   O     0.40405   0.85544   0.78213   0.00000  Uiso   1.00
O980   O     0.58824   0.81892   0.77013   0.00000  Uiso   1.00
O981   O     0.47093   0.73610   0.73413   0.00000  Uiso   1.00
O982   O     0.53678   0.92286   0.71360   0.00000  Uiso   1.00
Zn983  Zn    0.52672   0.80661   0.78734   0.00000  Uiso   1.00
Zn984  Zn    0.46713   0.79124   0.71875   0.00000  Uiso   1.00
Zn985  Zn    0.54389   0.86442   0.70657   0.00000  Uiso   1.00
Zn986  Zn    0.46226   0.87106   0.78733   0.00000  Uiso   1.00
C987   C     0.71939   0.82616   0.76050   0.00000  Uiso   1.00
C988   C     0.83252   0.82000   0.55952   0.00000  Uiso   1.00
C989   C     0.90348   0.80365   0.55654   0.00000  Uiso   1.00
C990   C     0.94762   0.84030   0.73951   0.00000  Uiso   1.00
C991   C     0.80498   0.85614   0.92021   0.00000  Uiso   1.00
C992   C     0.99387   0.84277   0.73405   0.00000  Uiso   1.00
C993   C     0.67431   0.82499   0.76378   0.00000  Uiso   1.00
C994   C     0.84733   0.98926   0.73617   0.00000  Uiso   1.00
C995   C     0.81886   0.67845   0.76393   0.00000  Uiso   1.00
C996   C     0.82300   0.72258   0.76011   0.00000  Uiso   1.00
C997   C     0.84335   0.94465   0.74006   0.00000  Uiso   1.00
C998   C     0.74889   0.86100   0.98936   0.00000  Uiso   1.00
C999   C     0.85227   0.81517   0.62933   0.00000  Uiso   1.00
C1000  C     0.81568   0.85173   0.87085   0.00000  Uiso   1.00
C1001  C     0.91661   0.80899   0.51096   0.00000  Uiso   1.00
C1002  C     0.86175   0.80977   0.58087   0.00000  Uiso   1.00
C1003  C     0.76339   0.86439   0.94345   0.00000  Uiso   1.00
C1004  C     0.69577   0.84192   0.65474   0.00000  Uiso   1.00
C1005  C     0.77514   0.84838   0.51277   0.00000  Uiso   1.00
C1006  C     0.81773   0.84063   0.99084   0.00000  Uiso   1.00
C1007  C     0.83337   0.84689   0.94428   0.00000  Uiso   1.00
C1008  C     0.84546   0.82714   0.51351   0.00000  Uiso   1.00
C1009  C     0.88847   0.82174   0.98953   0.00000  Uiso   1.00
C1010  C     0.90383   0.83096   0.94488   0.00000  Uiso   1.00
C1011  C     0.87708   0.84425   0.92291   0.00000  Uiso   1.00
H1012  H     0.92646   0.79656   0.57331   0.00000  Uiso   1.00
H1013  H     0.71647   0.86687   0.50678   0.00000  Uiso   1.00
H1014  H     0.89160   0.85329   0.88914   0.00000  Uiso   1.00
H1015  H     0.71814   0.87881   0.70433   0.00000  Uiso   1.00
H1016  H     0.71671   0.86213   0.62870   0.00000  Uiso   1.00
H1017  H     0.99787   0.83253   0.64632   0.00000  Uiso   1.00
H1018  H     0.71144   0.81373   0.65448   0.00000  Uiso   1.00
H1019  H     0.98533   0.80946   0.79174   0.00000  Uiso   1.00
H1020  H     0.87364   0.67055   0.71055   0.00000  Uiso   1.00
H1021  H     0.79228   0.99792   0.78974   0.00000  Uiso   1.00
H1022  H     0.93705   0.82861   0.92697   0.00000  Uiso   1.00
H1023  H     0.94943   0.80501   0.99287   0.00000  Uiso   1.00
H1024  H     0.80108   0.82483   0.58041   0.00000  Uiso   1.00
H1025  H     0.74126   0.87178   0.92579   0.00000  Uiso   1.00
H1026  H     0.76106   0.84529   0.54800   0.00000  Uiso   1.00
N1027  N     0.68964   0.86466   0.69812   0.00000  Uiso   1.00
O1028  O     0.83333   0.83333   0.75000   0.00000  Uiso   1.00
O1029  O     0.82118   0.79304   0.65458   0.00000  Uiso   1.00
O1030  O     0.79607   0.87058   0.84968   0.00000  Uiso   1.00
O1031  O     0.87491   0.84425   0.64606   0.00000  Uiso   1.00
O1032  O     0.84118   0.82546   0.84968   0.00000  Uiso   1.00
O1033  O     0.84597   0.74686   0.78213   0.00000  Uiso   1.00
O1034  O     0.81298   0.92751   0.77013   0.00000  Uiso   1.00
O1035  O     0.74078   0.79958   0.73413   0.00000  Uiso   1.00
O1036  O     0.93360   0.85939   0.71360   0.00000  Uiso   1.00
O1037  O     0.73738   0.85544   0.78213   0.00000  Uiso   1.00
O1038  O     0.92158   0.81892   0.77013   0.00000  Uiso   1.00
O1039  O     0.80426   0.73610   0.73413   0.00000  Uiso   1.00
O1040  O     0.87012   0.92286   0.71360   0.00000  Uiso   1.00
Zn1041 Zn    0.86005   0.80661   0.78734   0.00000  Uiso   1.00
Zn1042 Zn    0.80046   0.79124   0.71875   0.00000  Uiso   1.00
Zn1043 Zn    0.87723   0.86442   0.70657   0.00000  Uiso   1.00
Zn1044 Zn    0.79560   0.87106   0.78733   0.00000  Uiso   1.00
loop_
_geom_bond_atom_site_label_1
_geom_bond_atom_site_label_2
_geom_bond_distance
_geom_bond_site_symmetry_2
_ccdc_geom_bond_type
C1     O51     1.271   .     A
C1     C7      1.439   .     S
C1     O49     1.274   .     A
C2     H38     1.077   .     S
C2     C22     1.412   .     A
C2     C16     1.394   .     A
C3     C15     1.386   .     A
C3     H26     1.084   .     S
C3     C16     1.396   .     A
C4     O52     1.279   .     A
C4     C6      1.461   .     S
C4     O50     1.278   .     A
C5     C14     1.475   .     S
C5     C17     1.402   .     A
C5     C21     1.419   .     A
C6     C65     1.344   .     S
C6     N99     1.430   .     S
C7     C122    1.344   1_455 S
C7     H149    1.086   1_455 S
C8     C11     1.452   .     S
C8     C183    1.332   .     S
C8     H208    1.088   .     S
C9     C10     1.436   .     S
C9     C356    1.332   1_545 S
C9     H383    1.086   1_545 S
C10    O47     1.281   .     A
C10    O53     1.281   .     A
C11    O48     1.268   .     A
C11    O54     1.268   .     A
C12    C17     1.387   .     A
C12    C541    1.391   .     S
C12    H549    1.083   .     S
C13    C16     1.450   .     S
C13    O45     1.268   .     A
C13    O43     1.277   .     A
C14    O46     1.283   .     A
C14    O44     1.283   .     A
C15    C545    1.400   1_554 S
C15    H559    1.084   1_554 S
C17    H39     1.083   .     S
C18    H30     1.110   .     S
C18    N41     1.446   .     S
C18    H32     1.111   .     S
C18    H147    1.111   1_455 S
C19    H40     1.076   .     S
C19    C534    1.391   1_554 S
C19    C542    1.417   1_554 S
C20    C21     1.424   .     A
C20    C541    1.417   .     S
C20    C544    1.426   .     S
C21    C25     1.410   .     A
C22    C542    1.426   1_554 S
C22    C545    1.424   1_554 S
C23    C24     1.391   .     A
C23    C537    1.400   .     S
C23    C544    1.424   .     S
C24    C25     1.382   .     A
C24    H36     1.084   .     S
C25    H28     1.080   .     S
H27    C534    1.083   1_554 S
H29    N41     1.031   .     S
H31    C76     1.111   .     S
H33    C65     1.086   .     S
H34    C356    1.088   1_545 S
H35    C183    1.086   .     S
H37    C537    1.084   .     S
N41    C122    1.430   1_455 S
O42    Zn55    1.962   .     S
O42    Zn58    1.932   .     S
O42    Zn57    1.924   .     S
O42    Zn56    1.953   .     S
O43    Zn56    1.929   .     S
O44    Zn58    1.945   .     S
O45    Zn57    1.944   .     S
O46    Zn55    1.930   .     S
O47    Zn55    1.928   .     S
O48    Zn58    1.926   .     S
O49    Zn56    1.925   .     S
O50    Zn57    1.940   .     S
O51    Zn58    1.936   .     S
O52    Zn55    1.921   .     S
O53    Zn56    1.933   .     S
O54    Zn57    1.930   .     S
C59    O109    1.271   .     A
C59    C65     1.439   .     S
C59    O107    1.274   .     A
C60    H96     1.077   .     S
C60    C80     1.412   .     A
C60    C74     1.394   .     A
C61    C73     1.386   .     A
C61    H84     1.084   .     S
C61    C74     1.396   .     A
C62    O110    1.279   .     A
C62    C64     1.461   .     S
C62    O108    1.278   .     A
C63    C72     1.475   .     S
C63    C75     1.402   .     A
C63    C79     1.419   .     A
C64    C123    1.344   .     S
C64    N157    1.430   .     S
C66    C69     1.452   .     S
C66    C241    1.332   .     S
C66    H266    1.088   .     S
C67    C68     1.436   .     S
C67    C414    1.332   1_545 S
C67    H441    1.086   1_545 S
C68    O105    1.281   .     A
C68    O111    1.281   .     A
C69    O106    1.268   .     A
C69    O112    1.268   .     A
C70    C75     1.387   .     A
C70    C599    1.391   .     S
C70    H607    1.083   .     S
C71    C74     1.450   .     S
C71    O103    1.268   .     A
C71    O101    1.277   .     A
C72    O104    1.283   .     A
C72    O102    1.283   .     A
C73    C603    1.400   1_554 S
C73    H617    1.084   1_554 S
C75    H97     1.083   .     S
C76    H88     1.110   .     S
C76    N99     1.446   .     S
C76    H90     1.111   .     S
C77    H98     1.076   .     S
C77    C592    1.391   1_554 S
C77    C600    1.417   1_554 S
C78    C79     1.424   .     A
C78    C599    1.417   .     S
C78    C602    1.426   .     S
C79    C83     1.410   .     A
C80    C600    1.426   1_554 S
C80    C603    1.424   1_554 S
C81    C82     1.391   .     A
C81    C595    1.400   .     S
C81    C602    1.424   .     S
C82    C83     1.382   .     A
C82    H94     1.084   .     S
C83    H86     1.080   .     S
H85    C592    1.083   1_554 S
H87    N99     1.031   .     S
H89    C134    1.111   .     S
H91    C123    1.086   .     S
H92    C414    1.088   1_545 S
H93    C241    1.086   .     S
H95    C595    1.084   .     S
O100   Zn113   1.962   .     S
O100   Zn116   1.932   .     S
O100   Zn115   1.924   .     S
O100   Zn114   1.953   .     S
O101   Zn114   1.929   .     S
O102   Zn116   1.945   .     S
O103   Zn115   1.944   .     S
O104   Zn113   1.930   .     S
O105   Zn113   1.928   .     S
O106   Zn116   1.926   .     S
O107   Zn114   1.925   .     S
O108   Zn115   1.940   .     S
O109   Zn116   1.936   .     S
O110   Zn113   1.921   .     S
O111   Zn114   1.933   .     S
O112   Zn115   1.930   .     S
C117   O167    1.271   .     A
C117   C123    1.439   .     S
C117   O165    1.274   .     A
C118   H154    1.077   .     S
C118   C138    1.412   .     A
C118   C132    1.394   .     A
C119   C131    1.386   .     A
C119   H142    1.084   .     S
C119   C132    1.396   .     A
C120   O168    1.279   .     A
C120   C122    1.461   .     S
C120   O166    1.278   .     A
C121   C130    1.475   .     S
C121   C133    1.402   .     A
C121   C137    1.419   .     A
C122   C7      1.344   1_655 S
C122   N41     1.430   1_655 S
C124   C127    1.452   .     S
C124   C299    1.332   .     S
C124   H324    1.088   .     S
C125   C126    1.436   .     S
C125   C472    1.332   1_545 S
C125   H499    1.086   1_545 S
C126   O163    1.281   .     A
C126   O169    1.281   .     A
C127   O164    1.268   .     A
C127   O170    1.268   .     A
C128   C133    1.387   .     A
C128   C657    1.391   .     S
C128   H665    1.083   .     S
C129   C132    1.450   .     S
C129   O161    1.268   .     A
C129   O159    1.277   .     A
C130   O162    1.283   .     A
C130   O160    1.283   .     A
C131   C661    1.400   1_554 S
C131   H675    1.084   1_554 S
C133   H155    1.083   .     S
C134   H146    1.110   .     S
C134   N157    1.446   .     S
C134   H148    1.111   .     S
C135   H156    1.076   .     S
C135   C650    1.391   1_554 S
C135   C658    1.417   1_554 S
C136   C137    1.424   .     A
C136   C657    1.417   .     S
C136   C660    1.426   .     S
C137   C141    1.410   .     A
C138   C658    1.426   1_554 S
C138   C661    1.424   1_554 S
C139   C140    1.391   .     A
C139   C653    1.400   .     S
C139   C660    1.424   .     S
C140   C141    1.382   .     A
C140   H152    1.084   .     S
C141   H144    1.080   .     S
H143   C650    1.083   1_554 S
H145   N157    1.031   .     S
H147   C18     1.111   1_655 S
H149   C7      1.086   1_655 S
H150   C472    1.088   1_545 S
H151   C299    1.086   .     S
H153   C653    1.084   .     S
O158   Zn171   1.962   .     S
O158   Zn174   1.932   .     S
O158   Zn173   1.924   .     S
O158   Zn172   1.953   .     S
O159   Zn172   1.929   .     S
O160   Zn174   1.945   .     S
O161   Zn173   1.944   .     S
O162   Zn171   1.930   .     S
O163   Zn171   1.928   .     S
O164   Zn174   1.926   .     S
O165   Zn172   1.925   .     S
O166   Zn173   1.940   .     S
O167   Zn174   1.936   .     S
O168   Zn171   1.921   .     S
O169   Zn172   1.933   .     S
O170   Zn173   1.930   .     S
C175   O225    1.271   .     A
C175   C181    1.439   .     S
C175   O223    1.274   .     A
C176   H212    1.077   .     S
C176   C196    1.412   .     A
C176   C190    1.394   .     A
C177   C189    1.386   .     A
C177   H200    1.084   .     S
C177   C190    1.396   .     A
C178   O226    1.279   .     A
C178   C180    1.461   .     S
C178   O224    1.278   .     A
C179   C188    1.475   .     S
C179   C191    1.402   .     A
C179   C195    1.419   .     A
C180   C239    1.344   .     S
C180   N273    1.430   .     S
C181   C296    1.344   1_455 S
C181   H323    1.086   1_455 S
C182   C185    1.452   .     S
C182   C357    1.332   .     S
C182   H382    1.088   .     S
C183   C184    1.436   .     S
C184   O221    1.281   .     A
C184   O227    1.281   .     A
C185   O222    1.268   .     A
C185   O228    1.268   .     A
C186   C191    1.387   .     A
C186   C715    1.391   .     S
C186   H723    1.083   .     S
C187   C190    1.450   .     S
C187   O219    1.268   .     A
C187   O217    1.277   .     A
C188   O220    1.283   .     A
C188   O218    1.283   .     A
C189   C719    1.400   1_554 S
C189   H733    1.084   1_554 S
C191   H213    1.083   .     S
C192   H204    1.110   .     S
C192   N215    1.446   .     S
C192   H206    1.111   .     S
C192   H321    1.111   1_455 S
C193   H214    1.076   .     S
C193   C708    1.391   1_554 S
C193   C716    1.417   1_554 S
C194   C195    1.424   .     A
C194   C715    1.417   .     S
C194   C718    1.426   .     S
C195   C199    1.410   .     A
C196   C716    1.426   1_554 S
C196   C719    1.424   1_554 S
C197   C198    1.391   .     A
C197   C711    1.400   .     S
C197   C718    1.424   .     S
C198   C199    1.382   .     A
C198   H210    1.084   .     S
C199   H202    1.080   .     S
H201   C708    1.083   1_554 S
H203   N215    1.031   .     S
H205   C250    1.111   .     S
H207   C239    1.086   .     S
H209   C357    1.086   .     S
H211   C711    1.084   .     S
N215   C296    1.430   1_455 S
O216   Zn229   1.962   .     S
O216   Zn232   1.932   .     S
O216   Zn231   1.924   .     S
O216   Zn230   1.953   .     S
O217   Zn230   1.929   .     S
O218   Zn232   1.945   .     S
O219   Zn231   1.944   .     S
O220   Zn229   1.930   .     S
O221   Zn229   1.928   .     S
O222   Zn232   1.926   .     S
O223   Zn230   1.925   .     S
O224   Zn231   1.940   .     S
O225   Zn232   1.936   .     S
O226   Zn229   1.921   .     S
O227   Zn230   1.933   .     S
O228   Zn231   1.930   .     S
C233   O283    1.271   .     A
C233   C239    1.439   .     S
C233   O281    1.274   .     A
C234   H270    1.077   .     S
C234   C254    1.412   .     A
C234   C248    1.394   .     A
C235   C247    1.386   .     A
C235   H258    1.084   .     S
C235   C248    1.396   .     A
C236   O284    1.279   .     A
C236   C238    1.461   .     S
C236   O282    1.278   .     A
C237   C246    1.475   .     S
C237   C249    1.402   .     A
C237   C253    1.419   .     A
C238   C297    1.344   .     S
C238   N331    1.430   .     S
C240   C243    1.452   .     S
C240   C415    1.332   .     S
C240   H440    1.088   .     S
C241   C242    1.436   .     S
C242   O279    1.281   .     A
C242   O285    1.281   .     A
C243   O280    1.268   .     A
C243   O286    1.268   .     A
C244   C249    1.387   .     A
C244   C773    1.391   .     S
C244   H781    1.083   .     S
C245   C248    1.450   .     S
C245   O277    1.268   .     A
C245   O275    1.277   .     A
C246   O278    1.283   .     A
C246   O276    1.283   .     A
C247   C777    1.400   1_554 S
C247   H791    1.084   1_554 S
C249   H271    1.083   .     S
C250   H262    1.110   .     S
C250   N273    1.446   .     S
C250   H264    1.111   .     S
C251   H272    1.076   .     S
C251   C766    1.391   1_554 S
C251   C774    1.417   1_554 S
C252   C253    1.424   .     A
C252   C773    1.417   .     S
C252   C776    1.426   .     S
C253   C257    1.410   .     A
C254   C774    1.426   1_554 S
C254   C777    1.424   1_554 S
C255   C256    1.391   .     A
C255   C769    1.400   .     S
C255   C776    1.424   .     S
C256   C257    1.382   .     A
C256   H268    1.084   .     S
C257   H260    1.080   .     S
H259   C766    1.083   1_554 S
H261   N273    1.031   .     S
H263   C308    1.111   .     S
H265   C297    1.086   .     S
H267   C415    1.086   .     S
H269   C769    1.084   .     S
O274   Zn287   1.962   .     S
O274   Zn290   1.932   .     S
O274   Zn289   1.924   .     S
O274   Zn288   1.953   .     S
O275   Zn288   1.929   .     S
O276   Zn290   1.945   .     S
O277   Zn289   1.944   .     S
O278   Zn287   1.930   .     S
O279   Zn287   1.928   .     S
O280   Zn290   1.926   .     S
O281   Zn288   1.925   .     S
O282   Zn289   1.940   .     S
O283   Zn290   1.936   .     S
O284   Zn287   1.921   .     S
O285   Zn288   1.933   .     S
O286   Zn289   1.930   .     S
C291   O341    1.271   .     A
C291   C297    1.439   .     S
C291   O339    1.274   .     A
C292   H328    1.077   .     S
C292   C312    1.412   .     A
C292   C306    1.394   .     A
C293   C305    1.386   .     A
C293   H316    1.084   .     S
C293   C306    1.396   .     A
C294   O342    1.279   .     A
C294   C296    1.461   .     S
C294   O340    1.278   .     A
C295   C304    1.475   .     S
C295   C307    1.402   .     A
C295   C311    1.419   .     A
C296   C181    1.344   1_655 S
C296   N215    1.430   1_655 S
C298   C301    1.452   .     S
C298   C473    1.332   .     S
C298   H498    1.088   .     S
C299   C300    1.436   .     S
C300   O337    1.281   .     A
C300   O343    1.281   .     A
C301   O338    1.268   .     A
C301   O344    1.268   .     A
C302   C307    1.387   .     A
C302   C831    1.391   .     S
C302   H839    1.083   .     S
C303   C306    1.450   .     S
C303   O335    1.268   .     A
C303   O333    1.277   .     A
C304   O336    1.283   .     A
C304   O334    1.283   .     A
C305   C835    1.400   1_554 S
C305   H849    1.084   1_554 S
C307   H329    1.083   .     S
C308   H320    1.110   .     S
C308   N331    1.446   .     S
C308   H322    1.111   .     S
C309   H330    1.076   .     S
C309   C824    1.391   1_554 S
C309   C832    1.417   1_554 S
C310   C311    1.424   .     A
C310   C831    1.417   .     S
C310   C834    1.426   .     S
C311   C315    1.410   .     A
C312   C832    1.426   1_554 S
C312   C835    1.424   1_554 S
C313   C314    1.391   .     A
C313   C827    1.400   .     S
C313   C834    1.424   .     S
C314   C315    1.382   .     A
C314   H326    1.084   .     S
C315   H318    1.080   .     S
H317   C824    1.083   1_554 S
H319   N331    1.031   .     S
H321   C192    1.111   1_655 S
H323   C181    1.086   1_655 S
H325   C473    1.086   .     S
H327   C827    1.084   .     S
O332   Zn345   1.962   .     S
O332   Zn348   1.932   .     S
O332   Zn347   1.924   .     S
O332   Zn346   1.953   .     S
O333   Zn346   1.929   .     S
O334   Zn348   1.945   .     S
O335   Zn347   1.944   .     S
O336   Zn345   1.930   .     S
O337   Zn345   1.928   .     S
O338   Zn348   1.926   .     S
O339   Zn346   1.925   .     S
O340   Zn347   1.940   .     S
O341   Zn348   1.936   .     S
O342   Zn345   1.921   .     S
O343   Zn346   1.933   .     S
O344   Zn347   1.930   .     S
C349   O399    1.271   .     A
C349   C355    1.439   .     S
C349   O397    1.274   .     A
C350   H386    1.077   .     S
C350   C370    1.412   .     A
C350   C364    1.394   .     A
C351   C363    1.386   .     A
C351   H374    1.084   .     S
C351   C364    1.396   .     A
C352   O400    1.279   .     A
C352   C354    1.461   .     S
C352   O398    1.278   .     A
C353   C362    1.475   .     S
C353   C365    1.402   .     A
C353   C369    1.419   .     A
C354   C413    1.344   .     S
C354   N447    1.430   .     S
C355   C470    1.344   1_455 S
C355   H497    1.086   1_455 S
C356   C359    1.452   .     S
C356   C9      1.332   1_565 S
C356   H34     1.088   1_565 S
C357   C358    1.436   .     S
C358   O395    1.281   .     A
C358   O401    1.281   .     A
C359   O396    1.268   .     A
C359   O402    1.268   .     A
C360   C365    1.387   .     A
C360   C889    1.391   .     S
C360   H897    1.083   .     S
C361   C364    1.450   .     S
C361   O393    1.268   .     A
C361   O391    1.277   .     A
C362   O394    1.283   .     A
C362   O392    1.283   .     A
C363   C893    1.400   1_554 S
C363   H907    1.084   1_554 S
C365   H387    1.083   .     S
C366   H378    1.110   .     S
C366   N389    1.446   .     S
C366   H380    1.111   .     S
C366   H495    1.111   1_455 S
C367   H388    1.076   .     S
C367   C882    1.391   1_554 S
C367   C890    1.417   1_554 S
C368   C369    1.424   .     A
C368   C889    1.417   .     S
C368   C892    1.426   .     S
C369   C373    1.410   .     A
C370   C890    1.426   1_554 S
C370   C893    1.424   1_554 S
C371   C372    1.391   .     A
C371   C885    1.400   .     S
C371   C892    1.424   .     S
C372   C373    1.382   .     A
C372   H384    1.084   .     S
C373   H376    1.080   .     S
H375   C882    1.083   1_554 S
H377   N389    1.031   .     S
H379   C424    1.111   .     S
H381   C413    1.086   .     S
H383   C9      1.086   1_565 S
H385   C885    1.084   .     S
N389   C470    1.430   1_455 S
O390   Zn403   1.962   .     S
O390   Zn406   1.932   .     S
O390   Zn405   1.924   .     S
O390   Zn404   1.953   .     S
O391   Zn404   1.929   .     S
O392   Zn406   1.945   .     S
O393   Zn405   1.944   .     S
O394   Zn403   1.930   .     S
O395   Zn403   1.928   .     S
O396   Zn406   1.926   .     S
O397   Zn404   1.925   .     S
O398   Zn405   1.940   .     S
O399   Zn406   1.936   .     S
O400   Zn403   1.921   .     S
O401   Zn404   1.933   .     S
O402   Zn405   1.930   .     S
C407   O457    1.271   .     A
C407   C413    1.439   .     S
C407   O455    1.274   .     A
C408   H444    1.077   .     S
C408   C428    1.412   .     A
C408   C422    1.394   .     A
C409   C421    1.386   .     A
C409   H432    1.084   .     S
C409   C422    1.396   .     A
C410   O458    1.279   .     A
C410   C412    1.461   .     S
C410   O456    1.278   .     A
C411   C420    1.475   .     S
C411   C423    1.402   .     A
C411   C427    1.419   .     A
C412   C471    1.344   .     S
C412   N505    1.430   .     S
C414   C417    1.452   .     S
C414   C67     1.332   1_565 S
C414   H92     1.088   1_565 S
C415   C416    1.436   .     S
C416   O453    1.281   .     A
C416   O459    1.281   .     A
C417   O454    1.268   .     A
C417   O460    1.268   .     A
C418   C423    1.387   .     A
C418   C947    1.391   .     S
C418   H955    1.083   .     S
C419   C422    1.450   .     S
C419   O451    1.268   .     A
C419   O449    1.277   .     A
C420   O452    1.283   .     A
C420   O450    1.283   .     A
C421   C951    1.400   1_554 S
C421   H965    1.084   1_554 S
C423   H445    1.083   .     S
C424   H436    1.110   .     S
C424   N447    1.446   .     S
C424   H438    1.111   .     S
C425   H446    1.076   .     S
C425   C940    1.391   1_554 S
C425   C948    1.417   1_554 S
C426   C427    1.424   .     A
C426   C947    1.417   .     S
C426   C950    1.426   .     S
C427   C431    1.410   .     A
C428   C948    1.426   1_554 S
C428   C951    1.424   1_554 S
C429   C430    1.391   .     A
C429   C943    1.400   .     S
C429   C950    1.424   .     S
C430   C431    1.382   .     A
C430   H442    1.084   .     S
C431   H434    1.080   .     S
H433   C940    1.083   1_554 S
H435   N447    1.031   .     S
H437   C482    1.111   .     S
H439   C471    1.086   .     S
H441   C67     1.086   1_565 S
H443   C943    1.084   .     S
O448   Zn461   1.962   .     S
O448   Zn464   1.932   .     S
O448   Zn463   1.924   .     S
O448   Zn462   1.953   .     S
O449   Zn462   1.929   .     S
O450   Zn464   1.945   .     S
O451   Zn463   1.944   .     S
O452   Zn461   1.930   .     S
O453   Zn461   1.928   .     S
O454   Zn464   1.926   .     S
O455   Zn462   1.925   .     S
O456   Zn463   1.940   .     S
O457   Zn464   1.936   .     S
O458   Zn461   1.921   .     S
O459   Zn462   1.933   .     S
O460   Zn463   1.930   .     S
C465   O515    1.271   .     A
C465   C471    1.439   .     S
C465   O513    1.274   .     A
C466   H502    1.077   .     S
C466   C486    1.412   .     A
C466   C480    1.394   .     A
C467   C479    1.386   .     A
C467   H490    1.084   .     S
C467   C480    1.396   .     A
C468   O516    1.279   .     A
C468   C470    1.461   .     S
C468   O514    1.278   .     A
C469   C478    1.475   .     S
C469   C481    1.402   .     A
C469   C485    1.419   .     A
C470   C355    1.344   1_655 S
C470   N389    1.430   1_655 S
C472   C475    1.452   .     S
C472   C125    1.332   1_565 S
C472   H150    1.088   1_565 S
C473   C474    1.436   .     S
C474   O511    1.281   .     A
C474   O517    1.281   .     A
C475   O512    1.268   .     A
C475   O518    1.268   .     A
C476   C481    1.387   .     A
C476   C1005   1.391   .     S
C476   H1013   1.083   .     S
C477   C480    1.450   .     S
C477   O509    1.268   .     A
C477   O507    1.277   .     A
C478   O510    1.283   .     A
C478   O508    1.283   .     A
C479   C1009   1.400   1_554 S
C479   H1023   1.084   1_554 S
C481   H503    1.083   .     S
C482   H494    1.110   .     S
C482   N505    1.446   .     S
C482   H496    1.111   .     S
C483   H504    1.076   .     S
C483   C998    1.391   1_554 S
C483   C1006   1.417   1_554 S
C484   C485    1.424   .     A
C484   C1005   1.417   .     S
C484   C1008   1.426   .     S
C485   C489    1.410   .     A
C486   C1006   1.426   1_554 S
C486   C1009   1.424   1_554 S
C487   C488    1.391   .     A
C487   C1001   1.400   .     S
C487   C1008   1.424   .     S
C488   C489    1.382   .     A
C488   H500    1.084   .     S
C489   H492    1.080   .     S
H491   C998    1.083   1_554 S
H493   N505    1.031   .     S
H495   C366    1.111   1_655 S
H497   C355    1.086   1_655 S
H499   C125    1.086   1_565 S
H501   C1001   1.084   .     S
O506   Zn519   1.962   .     S
O506   Zn522   1.932   .     S
O506   Zn521   1.924   .     S
O506   Zn520   1.953   .     S
O507   Zn520   1.929   .     S
O508   Zn522   1.945   .     S
O509   Zn521   1.944   .     S
O510   Zn519   1.930   .     S
O511   Zn519   1.928   .     S
O512   Zn522   1.926   .     S
O513   Zn520   1.925   .     S
O514   Zn521   1.940   .     S
O515   Zn522   1.936   .     S
O516   Zn519   1.921   .     S
O517   Zn520   1.933   .     S
O518   Zn521   1.930   .     S
C523   O573    1.271   .     A
C523   C529    1.439   .     S
C523   O571    1.274   .     A
C524   H560    1.077   .     S
C524   C544    1.412   .     A
C524   C538    1.394   .     A
C525   C537    1.386   .     A
C525   H548    1.084   .     S
C525   C538    1.396   .     A
C526   O574    1.279   .     A
C526   C528    1.461   .     S
C526   O572    1.278   .     A
C527   C536    1.475   .     S
C527   C539    1.402   .     A
C527   C543    1.419   .     A
C528   C587    1.344   .     S
C528   N621    1.430   .     S
C529   C644    1.344   1_455 S
C529   H671    1.086   1_455 S
C530   C533    1.452   .     S
C530   C705    1.332   .     S
C530   H730    1.088   .     S
C531   C532    1.436   .     S
C531   C878    1.332   1_545 S
C531   H905    1.086   1_545 S
C532   O569    1.281   .     A
C532   O575    1.281   .     A
C533   O570    1.268   .     A
C533   O576    1.268   .     A
C534   C539    1.387   .     A
C534   C19     1.391   1_556 S
C534   H27     1.083   1_556 S
C535   C538    1.450   .     S
C535   O567    1.268   .     A
C535   O565    1.277   .     A
C536   O568    1.283   .     A
C536   O566    1.283   .     A
C539   H561    1.083   .     S
C540   H552    1.110   .     S
C540   N563    1.446   .     S
C540   H554    1.111   .     S
C540   H669    1.111   1_455 S
C541   H562    1.076   .     S
C542   C543    1.424   .     A
C542   C19     1.417   1_556 S
C542   C22     1.426   1_556 S
C543   C547    1.410   .     A
C545   C546    1.391   .     A
C545   C15     1.400   1_556 S
C545   C22     1.424   1_556 S
C546   C547    1.382   .     A
C546   H558    1.084   .     S
C547   H550    1.080   .     S
H551   N563    1.031   .     S
H553   C598    1.111   .     S
H555   C587    1.086   .     S
H556   C878    1.088   1_545 S
H557   C705    1.086   .     S
H559   C15     1.084   1_556 S
N563   C644    1.430   1_455 S
O564   Zn577   1.962   .     S
O564   Zn580   1.932   .     S
O564   Zn579   1.924   .     S
O564   Zn578   1.953   .     S
O565   Zn578   1.929   .     S
O566   Zn580   1.945   .     S
O567   Zn579   1.944   .     S
O568   Zn577   1.930   .     S
O569   Zn577   1.928   .     S
O570   Zn580   1.926   .     S
O571   Zn578   1.925   .     S
O572   Zn579   1.940   .     S
O573   Zn580   1.936   .     S
O574   Zn577   1.921   .     S
O575   Zn578   1.933   .     S
O576   Zn579   1.930   .     S
C581   O631    1.271   .     A
C581   C587    1.439   .     S
C581   O629    1.274   .     A
C582   H618    1.077   .     S
C582   C602    1.412   .     A
C582   C596    1.394   .     A
C583   C595    1.386   .     A
C583   H606    1.084   .     S
C583   C596    1.396   .     A
C584   O632    1.279   .     A
C584   C586    1.461   .     S
C584   O630    1.278   .     A
C585   C594    1.475   .     S
C585   C597    1.402   .     A
C585   C601    1.419   .     A
C586   C645    1.344   .     S
C586   N679    1.430   .     S
C588   C591    1.452   .     S
C588   C763    1.332   .     S
C588   H788    1.088   .     S
C589   C590    1.436   .     S
C589   C936    1.332   1_545 S
C589   H963    1.086   1_545 S
C590   O627    1.281   .     A
C590   O633    1.281   .     A
C591   O628    1.268   .     A
C591   O634    1.268   .     A
C592   C597    1.387   .     A
C592   C77     1.391   1_556 S
C592   H85     1.083   1_556 S
C593   C596    1.450   .     S
C593   O625    1.268   .     A
C593   O623    1.277   .     A
C594   O626    1.283   .     A
C594   O624    1.283   .     A
C597   H619    1.083   .     S
C598   H610    1.110   .     S
C598   N621    1.446   .     S
C598   H612    1.111   .     S
C599   H620    1.076   .     S
C600   C601    1.424   .     A
C600   C77     1.417   1_556 S
C600   C80     1.426   1_556 S
C601   C605    1.410   .     A
C603   C604    1.391   .     A
C603   C73     1.400   1_556 S
C603   C80     1.424   1_556 S
C604   C605    1.382   .     A
C604   H616    1.084   .     S
C605   H608    1.080   .     S
H609   N621    1.031   .     S
H611   C656    1.111   .     S
H613   C645    1.086   .     S
H614   C936    1.088   1_545 S
H615   C763    1.086   .     S
H617   C73     1.084   1_556 S
O622   Zn635   1.962   .     S
O622   Zn638   1.932   .     S
O622   Zn637   1.924   .     S
O622   Zn636   1.953   .     S
O623   Zn636   1.929   .     S
O624   Zn638   1.945   .     S
O625   Zn637   1.944   .     S
O626   Zn635   1.930   .     S
O627   Zn635   1.928   .     S
O628   Zn638   1.926   .     S
O629   Zn636   1.925   .     S
O630   Zn637   1.940   .     S
O631   Zn638   1.936   .     S
O632   Zn635   1.921   .     S
O633   Zn636   1.933   .     S
O634   Zn637   1.930   .     S
C639   O689    1.271   .     A
C639   C645    1.439   .     S
C639   O687    1.274   .     A
C640   H676    1.077   .     S
C640   C660    1.412   .     A
C640   C654    1.394   .     A
C641   C653    1.386   .     A
C641   H664    1.084   .     S
C641   C654    1.396   .     A
C642   O690    1.279   .     A
C642   C644    1.461   .     S
C642   O688    1.278   .     A
C643   C652    1.475   .     S
C643   C655    1.402   .     A
C643   C659    1.419   .     A
C644   C529    1.344   1_655 S
C644   N563    1.430   1_655 S
C646   C649    1.452   .     S
C646   C821    1.332   .     S
C646   H846    1.088   .     S
C647   C648    1.436   .     S
C647   C994    1.332   1_545 S
C647   H1021   1.086   1_545 S
C648   O685    1.281   .     A
C648   O691    1.281   .     A
C649   O686    1.268   .     A
C649   O692    1.268   .     A
C650   C655    1.387   .     A
C650   C135    1.391   1_556 S
C650   H143    1.083   1_556 S
C651   C654    1.450   .     S
C651   O683    1.268   .     A
C651   O681    1.277   .     A
C652   O684    1.283   .     A
C652   O682    1.283   .     A
C655   H677    1.083   .     S
C656   H668    1.110   .     S
C656   N679    1.446   .     S
C656   H670    1.111   .     S
C657   H678    1.076   .     S
C658   C659    1.424   .     A
C658   C135    1.417   1_556 S
C658   C138    1.426   1_556 S
C659   C663    1.410   .     A
C661   C662    1.391   .     A
C661   C131    1.400   1_556 S
C661   C138    1.424   1_556 S
C662   C663    1.382   .     A
C662   H674    1.084   .     S
C663   H666    1.080   .     S
H667   N679    1.031   .     S
H669   C540    1.111   1_655 S
H671   C529    1.086   1_655 S
H672   C994    1.088   1_545 S
H673   C821    1.086   .     S
H675   C131    1.084   1_556 S
O680   Zn693   1.962   .     S
O680   Zn696   1.932   .     S
O680   Zn695   1.924   .     S
O680   Zn694   1.953   .     S
O681   Zn694   1.929   .     S
O682   Zn696   1.945   .     S
O683   Zn695   1.944   .     S
O684   Zn693   1.930   .     S
O685   Zn693   1.928   .     S
O686   Zn696   1.926   .     S
O687   Zn694   1.925   .     S
O688   Zn695   1.940   .     S
O689   Zn696   1.936   .     S
O690   Zn693   1.921   .     S
O691   Zn694   1.933   .     S
O692   Zn695   1.930   .     S
C697   O747    1.271   .     A
C697   C703    1.439   .     S
C697   O745    1.274   .     A
C698   H734    1.077   .     S
C698   C718    1.412   .     A
C698   C712    1.394   .     A
C699   C711    1.386   .     A
C699   H722    1.084   .     S
C699   C712    1.396   .     A
C700   O748    1.279   .     A
C700   C702    1.461   .     S
C700   O746    1.278   .     A
C701   C710    1.475   .     S
C701   C713    1.402   .     A
C701   C717    1.419   .     A
C702   C761    1.344   .     S
C702   N795    1.430   .     S
C703   C818    1.344   1_455 S
C703   H845    1.086   1_455 S
C704   C707    1.452   .     S
C704   C879    1.332   .     S
C704   H904    1.088   .     S
C705   C706    1.436   .     S
C706   O743    1.281   .     A
C706   O749    1.281   .     A
C707   O744    1.268   .     A
C707   O750    1.268   .     A
C708   C713    1.387   .     A
C708   C193    1.391   1_556 S
C708   H201    1.083   1_556 S
C709   C712    1.450   .     S
C709   O741    1.268   .     A
C709   O739    1.277   .     A
C710   O742    1.283   .     A
C710   O740    1.283   .     A
C713   H735    1.083   .     S
C714   H726    1.110   .     S
C714   N737    1.446   .     S
C714   H728    1.111   .     S
C714   H843    1.111   1_455 S
C715   H736    1.076   .     S
C716   C717    1.424   .     A
C716   C193    1.417   1_556 S
C716   C196    1.426   1_556 S
C717   C721    1.410   .     A
C719   C720    1.391   .     A
C719   C189    1.400   1_556 S
C719   C196    1.424   1_556 S
C720   C721    1.382   .     A
C720   H732    1.084   .     S
C721   H724    1.080   .     S
H725   N737    1.031   .     S
H727   C772    1.111   .     S
H729   C761    1.086   .     S
H731   C879    1.086   .     S
H733   C189    1.084   1_556 S
N737   C818    1.430   1_455 S
O738   Zn751   1.962   .     S
O738   Zn754   1.932   .     S
O738   Zn753   1.924   .     S
O738   Zn752   1.953   .     S
O739   Zn752   1.929   .     S
O740   Zn754   1.945   .     S
O741   Zn753   1.944   .     S
O742   Zn751   1.930   .     S
O743   Zn751   1.928   .     S
O744   Zn754   1.926   .     S
O745   Zn752   1.925   .     S
O746   Zn753   1.940   .     S
O747   Zn754   1.936   .     S
O748   Zn751   1.921   .     S
O749   Zn752   1.933   .     S
O750   Zn753   1.930   .     S
C755   O805    1.271   .     A
C755   C761    1.439   .     S
C755   O803    1.274   .     A
C756   H792    1.077   .     S
C756   C776    1.412   .     A
C756   C770    1.394   .     A
C757   C769    1.386   .     A
C757   H780    1.084   .     S
C757   C770    1.396   .     A
C758   O806    1.279   .     A
C758   C760    1.461   .     S
C758   O804    1.278   .     A
C759   C768    1.475   .     S
C759   C771    1.402   .     A
C759   C775    1.419   .     A
C760   C819    1.344   .     S
C760   N853    1.430   .     S
C762   C765    1.452   .     S
C762   C937    1.332   .     S
C762   H962    1.088   .     S
C763   C764    1.436   .     S
C764   O801    1.281   .     A
C764   O807    1.281   .     A
C765   O802    1.268   .     A
C765   O808    1.268   .     A
C766   C771    1.387   .     A
C766   C251    1.391   1_556 S
C766   H259    1.083   1_556 S
C767   C770    1.450   .     S
C767   O799    1.268   .     A
C767   O797    1.277   .     A
C768   O800    1.283   .     A
C768   O798    1.283   .     A
C771   H793    1.083   .     S
C772   H784    1.110   .     S
C772   N795    1.446   .     S
C772   H786    1.111   .     S
C773   H794    1.076   .     S
C774   C775    1.424   .     A
C774   C251    1.417   1_556 S
C774   C254    1.426   1_556 S
C775   C779    1.410   .     A
C777   C778    1.391   .     A
C777   C247    1.400   1_556 S
C777   C254    1.424   1_556 S
C778   C779    1.382   .     A
C778   H790    1.084   .     S
C779   H782    1.080   .     S
H783   N795    1.031   .     S
H785   C830    1.111   .     S
H787   C819    1.086   .     S
H789   C937    1.086   .     S
H791   C247    1.084   1_556 S
O796   Zn809   1.962   .     S
O796   Zn812   1.932   .     S
O796   Zn811   1.924   .     S
O796   Zn810   1.953   .     S
O797   Zn810   1.929   .     S
O798   Zn812   1.945   .     S
O799   Zn811   1.944   .     S
O800   Zn809   1.930   .     S
O801   Zn809   1.928   .     S
O802   Zn812   1.926   .     S
O803   Zn810   1.925   .     S
O804   Zn811   1.940   .     S
O805   Zn812   1.936   .     S
O806   Zn809   1.921   .     S
O807   Zn810   1.933   .     S
O808   Zn811   1.930   .     S
C813   O863    1.271   .     A
C813   C819    1.439   .     S
C813   O861    1.274   .     A
C814   H850    1.077   .     S
C814   C834    1.412   .     A
C814   C828    1.394   .     A
C815   C827    1.386   .     A
C815   H838    1.084   .     S
C815   C828    1.396   .     A
C816   O864    1.279   .     A
C816   C818    1.461   .     S
C816   O862    1.278   .     A
C817   C826    1.475   .     S
C817   C829    1.402   .     A
C817   C833    1.419   .     A
C818   C703    1.344   1_655 S
C818   N737    1.430   1_655 S
C820   C823    1.452   .     S
C820   C995    1.332   .     S
C820   H1020   1.088   .     S
C821   C822    1.436   .     S
C822   O859    1.281   .     A
C822   O865    1.281   .     A
C823   O860    1.268   .     A
C823   O866    1.268   .     A
C824   C829    1.387   .     A
C824   C309    1.391   1_556 S
C824   H317    1.083   1_556 S
C825   C828    1.450   .     S
C825   O857    1.268   .     A
C825   O855    1.277   .     A
C826   O858    1.283   .     A
C826   O856    1.283   .     A
C829   H851    1.083   .     S
C830   H842    1.110   .     S
C830   N853    1.446   .     S
C830   H844    1.111   .     S
C831   H852    1.076   .     S
C832   C833    1.424   .     A
C832   C309    1.417   1_556 S
C832   C312    1.426   1_556 S
C833   C837    1.410   .     A
C835   C836    1.391   .     A
C835   C305    1.400   1_556 S
C835   C312    1.424   1_556 S
C836   C837    1.382   .     A
C836   H848    1.084   .     S
C837   H840    1.080   .     S
H841   N853    1.031   .     S
H843   C714    1.111   1_655 S
H845   C703    1.086   1_655 S
H847   C995    1.086   .     S
H849   C305    1.084   1_556 S
O854   Zn867   1.962   .     S
O854   Zn870   1.932   .     S
O854   Zn869   1.924   .     S
O854   Zn868   1.953   .     S
O855   Zn868   1.929   .     S
O856   Zn870   1.945   .     S
O857   Zn869   1.944   .     S
O858   Zn867   1.930   .     S
O859   Zn867   1.928   .     S
O860   Zn870   1.926   .     S
O861   Zn868   1.925   .     S
O862   Zn869   1.940   .     S
O863   Zn870   1.936   .     S
O864   Zn867   1.921   .     S
O865   Zn868   1.933   .     S
O866   Zn869   1.930   .     S
C871   O921    1.271   .     A
C871   C877    1.439   .     S
C871   O919    1.274   .     A
C872   H908    1.077   .     S
C872   C892    1.412   .     A
C872   C886    1.394   .     A
C873   C885    1.386   .     A
C873   H896    1.084   .     S
C873   C886    1.396   .     A
C874   O922    1.279   .     A
C874   C876    1.461   .     S
C874   O920    1.278   .     A
C875   C884    1.475   .     S
C875   C887    1.402   .     A
C875   C891    1.419   .     A
C876   C935    1.344   .     S
C876   N969    1.430   .     S
C877   C992    1.344   1_455 S
C877   H1019   1.086   1_455 S
C878   C881    1.452   .     S
C878   C531    1.332   1_565 S
C878   H556    1.088   1_565 S
C879   C880    1.436   .     S
C880   O917    1.281   .     A
C880   O923    1.281   .     A
C881   O918    1.268   .     A
C881   O924    1.268   .     A
C882   C887    1.387   .     A
C882   C367    1.391   1_556 S
C882   H375    1.083   1_556 S
C883   C886    1.450   .     S
C883   O915    1.268   .     A
C883   O913    1.277   .     A
C884   O916    1.283   .     A
C884   O914    1.283   .     A
C887   H909    1.083   .     S
C888   H900    1.110   .     S
C888   N911    1.446   .     S
C888   H902    1.111   .     S
C888   H1017   1.111   1_455 S
C889   H910    1.076   .     S
C890   C891    1.424   .     A
C890   C367    1.417   1_556 S
C890   C370    1.426   1_556 S
C891   C895    1.410   .     A
C893   C894    1.391   .     A
C893   C363    1.400   1_556 S
C893   C370    1.424   1_556 S
C894   C895    1.382   .     A
C894   H906    1.084   .     S
C895   H898    1.080   .     S
H899   N911    1.031   .     S
H901   C946    1.111   .     S
H903   C935    1.086   .     S
H905   C531    1.086   1_565 S
H907   C363    1.084   1_556 S
N911   C992    1.430   1_455 S
O912   Zn925   1.962   .     S
O912   Zn928   1.932   .     S
O912   Zn927   1.924   .     S
O912   Zn926   1.953   .     S
O913   Zn926   1.929   .     S
O914   Zn928   1.945   .     S
O915   Zn927   1.944   .     S
O916   Zn925   1.930   .     S
O917   Zn925   1.928   .     S
O918   Zn928   1.926   .     S
O919   Zn926   1.925   .     S
O920   Zn927   1.940   .     S
O921   Zn928   1.936   .     S
O922   Zn925   1.921   .     S
O923   Zn926   1.933   .     S
O924   Zn927   1.930   .     S
C929   O979    1.271   .     A
C929   C935    1.439   .     S
C929   O977    1.274   .     A
C930   H966    1.077   .     S
C930   C950    1.412   .     A
C930   C944    1.394   .     A
C931   C943    1.386   .     A
C931   H954    1.084   .     S
C931   C944    1.396   .     A
C932   O980    1.279   .     A
C932   C934    1.461   .     S
C932   O978    1.278   .     A
C933   C942    1.475   .     S
C933   C945    1.402   .     A
C933   C949    1.419   .     A
C934   C993    1.344   .     S
C934   N1027   1.430   .     S
C936   C939    1.452   .     S
C936   C589    1.332   1_565 S
C936   H614    1.088   1_565 S
C937   C938    1.436   .     S
C938   O975    1.281   .     A
C938   O981    1.281   .     A
C939   O976    1.268   .     A
C939   O982    1.268   .     A
C940   C945    1.387   .     A
C940   C425    1.391   1_556 S
C940   H433    1.083   1_556 S
C941   C944    1.450   .     S
C941   O973    1.268   .     A
C941   O971    1.277   .     A
C942   O974    1.283   .     A
C942   O972    1.283   .     A
C945   H967    1.083   .     S
C946   H958    1.110   .     S
C946   N969    1.446   .     S
C946   H960    1.111   .     S
C947   H968    1.076   .     S
C948   C949    1.424   .     A
C948   C425    1.417   1_556 S
C948   C428    1.426   1_556 S
C949   C953    1.410   .     A
C951   C952    1.391   .     A
C951   C421    1.400   1_556 S
C951   C428    1.424   1_556 S
C952   C953    1.382   .     A
C952   H964    1.084   .     S
C953   H956    1.080   .     S
H957   N969    1.031   .     S
H959   C1004   1.111   .     S
H961   C993    1.086   .     S
H963   C589    1.086   1_565 S
H965   C421    1.084   1_556 S
O970   Zn983   1.962   .     S
O970   Zn986   1.932   .     S
O970   Zn985   1.924   .     S
O970   Zn984   1.953   .     S
O971   Zn984   1.929   .     S
O972   Zn986   1.945   .     S
O973   Zn985   1.944   .     S
O974   Zn983   1.930   .     S
O975   Zn983   1.928   .     S
O976   Zn986   1.926   .     S
O977   Zn984   1.925   .     S
O978   Zn985   1.940   .     S
O979   Zn986   1.936   .     S
O980   Zn983   1.921   .     S
O981   Zn984   1.933   .     S
O982   Zn985   1.930   .     S
C987   O1037   1.271   .     A
C987   C993    1.439   .     S
C987   O1035   1.274   .     A
C988   H1024   1.077   .     S
C988   C1008   1.412   .     A
C988   C1002   1.394   .     A
C989   C1001   1.386   .     A
C989   H1012   1.084   .     S
C989   C1002   1.396   .     A
C990   O1038   1.279   .     A
C990   C992    1.461   .     S
C990   O1036   1.278   .     A
C991   C1000   1.475   .     S
C991   C1003   1.402   .     A
C991   C1007   1.419   .     A
C992   C877    1.344   1_655 S
C992   N911    1.430   1_655 S
C994   C997    1.452   .     S
C994   C647    1.332   1_565 S
C994   H672    1.088   1_565 S
C995   C996    1.436   .     S
C996   O1033   1.281   .     A
C996   O1039   1.281   .     A
C997   O1034   1.268   .     A
C997   O1040   1.268   .     A
C998   C1003   1.387   .     A
C998   C483    1.391   1_556 S
C998   H491    1.083   1_556 S
C999   C1002   1.450   .     S
C999   O1031   1.268   .     A
C999   O1029   1.277   .     A
C1000  O1032   1.283   .     A
C1000  O1030   1.283   .     A
C1003  H1025   1.083   .     S
C1004  H1016   1.110   .     S
C1004  N1027   1.446   .     S
C1004  H1018   1.111   .     S
C1005  H1026   1.076   .     S
C1006  C1007   1.424   .     A
C1006  C483    1.417   1_556 S
C1006  C486    1.426   1_556 S
C1007  C1011   1.410   .     A
C1009  C1010   1.391   .     A
C1009  C479    1.400   1_556 S
C1009  C486    1.424   1_556 S
C1010  C1011   1.382   .     A
C1010  H1022   1.084   .     S
C1011  H1014   1.080   .     S
H1015  N1027   1.031   .     S
H1017  C888    1.111   1_655 S
H1019  C877    1.086   1_655 S
H1021  C647    1.086   1_565 S
H1023  C479    1.084   1_556 S
O1028  Zn1041  1.962   .     S
O1028  Zn1044  1.932   .     S
O1028  Zn1043  1.924   .     S
O1028  Zn1042  1.953   .     S
O1029  Zn1042  1.929   .     S
O1030  Zn1044  1.945   .     S
O1031  Zn1043  1.944   .     S
O1032  Zn1041  1.930   .     S
O1033  Zn1041  1.928   .     S
O1034  Zn1044  1.926   .     S
O1035  Zn1042  1.925   .     S
O1036  Zn1043  1.940   .     S
O1037  Zn1044  1.936   .     S
O1038  Zn1041  1.921   .     S
O1039  Zn1042  1.933   .     S
O1040  Zn1043  1.930   .     S
