data_str_m1_o10_o18_pcu_sym.251
_audit_creation_date              2020-01-03
_audit_creation_method            'Materials Studio'
_symmetry_space_group_name_H-M    'P1'
_symmetry_Int_Tables_number       1
_symmetry_cell_setting            triclinic
loop_
_symmetry_equiv_pos_as_xyz
  x,y,z
_cell_length_a                    32.5441
_cell_length_b                    32.5319
_cell_length_c                    35.3736
_cell_angle_alpha                 98.1135
_cell_angle_beta                  73.1012
_cell_angle_gamma                 98.5920
loop_
_atom_site_label
_atom_site_type_symbol
_atom_site_fract_x
_atom_site_fract_y
_atom_site_fract_z
_atom_site_U_iso_or_equiv
_atom_site_adp_type
_atom_site_occupancy
Zn1    Zn    0.19244   0.14090   0.28278   0.00000  Uiso   1.00
Zn2    Zn    0.13459   0.12378   0.22258   0.00000  Uiso   1.00
Zn3    Zn    0.21166   0.19664   0.21188   0.00000  Uiso   1.00
Zn4    Zn    0.12798   0.20535   0.28277   0.00000  Uiso   1.00
O5     O     0.16667   0.16667   0.25000   0.00000  Uiso   1.00
O6     O     0.06990   0.18960   0.27820   0.00000  Uiso   1.00
O7     O     0.25440   0.15277   0.26768   0.00000  Uiso   1.00
O8     O     0.13800   0.06903   0.23607   0.00000  Uiso   1.00
O9     O     0.20437   0.25527   0.21806   0.00000  Uiso   1.00
O10    O     0.15693   0.12393   0.16625   0.00000  Uiso   1.00
O11    O     0.12687   0.20646   0.33749   0.00000  Uiso   1.00
O12    O     0.21088   0.17493   0.15877   0.00000  Uiso   1.00
O13    O     0.17198   0.16135   0.33749   0.00000  Uiso   1.00
O14    O     0.17849   0.08101   0.27821   0.00000  Uiso   1.00
O15    O     0.14581   0.26136   0.26767   0.00000  Uiso   1.00
O16    O     0.07452   0.13251   0.23607   0.00000  Uiso   1.00
O17    O     0.26785   0.19179   0.21806   0.00000  Uiso   1.00
C18    C     0.05245   0.15982   0.25881   0.00000  Uiso   1.00
C19    C     0.28112   0.17357   0.24121   0.00000  Uiso   1.00
C20    C     0.15595   0.05605   0.25893   0.00000  Uiso   1.00
C21    C     0.17691   0.27772   0.24132   0.00000  Uiso   1.00
C22    C     0.18854   0.14502   0.14373   0.00000  Uiso   1.00
C23    C     0.14438   0.18697   0.35669   0.00000  Uiso   1.00
C24    C     0.12842   0.18884   0.40079   0.00000  Uiso   1.00
C25    C     0.19899   0.13469   0.10045   0.00000  Uiso   1.00
C26    C     0.07336   0.19781   0.46401   0.00000  Uiso   1.00
C27    C     0.08786   0.20249   0.42329   0.00000  Uiso   1.00
C28    C     0.15263   0.17164   0.42038   0.00000  Uiso   1.00
C29    C     0.13578   0.16255   0.46000   0.00000  Uiso   1.00
C30    C     0.09695   0.17851   0.48235   0.00000  Uiso   1.00
C31    C     0.15801   0.14076   0.47887   0.00000  Uiso   1.00
C32    C     0.14727   0.14545   0.02111   0.00000  Uiso   1.00
C33    C     0.10775   0.16106   0.04246   0.00000  Uiso   1.00
C34    C     0.08246   0.17603   0.02314   0.00000  Uiso   1.00
C35    C     0.18882   0.11284   0.45792   0.00000  Uiso   1.00
C36    C     0.21698   0.10205   0.47728   0.00000  Uiso   1.00
C37    C     0.21237   0.11339   0.01811   0.00000  Uiso   1.00
C38    C     0.17591   0.13383   0.04056   0.00000  Uiso   1.00
C39    C     0.24238   0.10333   0.03717   0.00000  Uiso   1.00
C40    C     0.23622   0.11558   0.07863   0.00000  Uiso   1.00
C41    C     0.16995   0.14363   0.08162   0.00000  Uiso   1.00
H42    H     0.05231   0.18754   0.04056   0.00000  Uiso   1.00
H43    H     0.14361   0.16014   0.10004   0.00000  Uiso   1.00
H44    H     0.24215   0.08373   0.45959   0.00000  Uiso   1.00
H45    H     0.04331   0.20937   0.48170   0.00000  Uiso   1.00
H46    H     0.18559   0.16711   0.40473   0.00000  Uiso   1.00
H47    H     0.09464   0.16094   0.07413   0.00000  Uiso   1.00
C48    C     0.32705   0.17631   0.23767   0.00000  Uiso   1.00
H49    H     0.01675   0.19384   0.21498   0.00000  Uiso   1.00
C50    C     0.00709   0.15732   0.26224   0.00000  Uiso   1.00
H51    H     0.31805   0.13965   0.28514   0.00000  Uiso   1.00
C52    C     0.18101   0.32219   0.23800   0.00000  Uiso   1.00
H53    H     0.20811   0.00282   0.21570   0.00000  Uiso   1.00
C54    C     0.15165   0.01205   0.26221   0.00000  Uiso   1.00
H55    H     0.12418   0.33217   0.28459   0.00000  Uiso   1.00
C56    C     0.28059   0.07962   0.01359   0.00000  Uiso   1.00
C57    C     0.31802   0.10905   0.49108   0.00000  Uiso   1.00
H58    H     0.30814   0.12410   0.46934   0.00000  Uiso   1.00
H59    H     0.32898   0.13379   0.01221   0.00000  Uiso   1.00
H60    H     0.01224   0.09121   0.47479   0.00000  Uiso   1.00
H61    H     0.29262   0.06290   0.03263   0.00000  Uiso   1.00
H62    H     0.27081   0.05358   0.49302   0.00000  Uiso   1.00
C63    C     0.26861   0.10834   0.10004   0.00000  Uiso   1.00
C64    C     0.25578   0.06707   0.11866   0.00000  Uiso   1.00
H65    H     0.22417   0.06761   0.14160   0.00000  Uiso   1.00
H66    H     0.25331   0.04047   0.09572   0.00000  Uiso   1.00
H67    H     0.28054   0.06218   0.13304   0.00000  Uiso   1.00
H68    H     0.30201   0.10938   0.08017   0.00000  Uiso   1.00
H69    H     0.27124   0.13410   0.12362   0.00000  Uiso   1.00
C70    C     0.05903   0.22251   0.40608   0.00000  Uiso   1.00
C71    C     0.07541   0.26851   0.40102   0.00000  Uiso   1.00
H72    H     0.10931   0.27239   0.38223   0.00000  Uiso   1.00
H73    H     0.05476   0.28180   0.38688   0.00000  Uiso   1.00
H74    H     0.07382   0.28636   0.43051   0.00000  Uiso   1.00
H75    H     0.05523   0.20484   0.37790   0.00000  Uiso   1.00
H76    H     0.02560   0.22125   0.42624   0.00000  Uiso   1.00
C77    C     0.18773   0.08725   0.41836   0.00000  Uiso   1.00
C78    C     0.14315   0.06339   0.41990   0.00000  Uiso   1.00
H79    H     0.13229   0.04419   0.44536   0.00000  Uiso   1.00
H80    H     0.11892   0.08508   0.42275   0.00000  Uiso   1.00
H81    H     0.14489   0.04227   0.39205   0.00000  Uiso   1.00
H82    H     0.19894   0.10572   0.39269   0.00000  Uiso   1.00
H83    H     0.21065   0.06326   0.41098   0.00000  Uiso   1.00
Zn84   Zn    0.52577   0.14090   0.28278   0.00000  Uiso   1.00
Zn85   Zn    0.46792   0.12378   0.22258   0.00000  Uiso   1.00
Zn86   Zn    0.54500   0.19664   0.21188   0.00000  Uiso   1.00
Zn87   Zn    0.46131   0.20535   0.28277   0.00000  Uiso   1.00
O88    O     0.50000   0.16667   0.25000   0.00000  Uiso   1.00
O89    O     0.40323   0.18960   0.27820   0.00000  Uiso   1.00
O90    O     0.58773   0.15277   0.26768   0.00000  Uiso   1.00
O91    O     0.47133   0.06903   0.23607   0.00000  Uiso   1.00
O92    O     0.53771   0.25527   0.21806   0.00000  Uiso   1.00
O93    O     0.49027   0.12393   0.16625   0.00000  Uiso   1.00
O94    O     0.46020   0.20646   0.33749   0.00000  Uiso   1.00
O95    O     0.54421   0.17493   0.15877   0.00000  Uiso   1.00
O96    O     0.50532   0.16135   0.33749   0.00000  Uiso   1.00
O97    O     0.51182   0.08101   0.27821   0.00000  Uiso   1.00
O98    O     0.47914   0.26136   0.26767   0.00000  Uiso   1.00
O99    O     0.40785   0.13251   0.23607   0.00000  Uiso   1.00
O100   O     0.60119   0.19179   0.21806   0.00000  Uiso   1.00
C101   C     0.38578   0.15982   0.25881   0.00000  Uiso   1.00
C102   C     0.61445   0.17357   0.24121   0.00000  Uiso   1.00
C103   C     0.48929   0.05605   0.25893   0.00000  Uiso   1.00
C104   C     0.51025   0.27772   0.24132   0.00000  Uiso   1.00
C105   C     0.52187   0.14502   0.14373   0.00000  Uiso   1.00
C106   C     0.47772   0.18697   0.35669   0.00000  Uiso   1.00
C107   C     0.46175   0.18884   0.40079   0.00000  Uiso   1.00
C108   C     0.53232   0.13469   0.10045   0.00000  Uiso   1.00
C109   C     0.40669   0.19781   0.46401   0.00000  Uiso   1.00
C110   C     0.42119   0.20249   0.42329   0.00000  Uiso   1.00
C111   C     0.48596   0.17164   0.42038   0.00000  Uiso   1.00
C112   C     0.46911   0.16255   0.46000   0.00000  Uiso   1.00
C113   C     0.43028   0.17851   0.48235   0.00000  Uiso   1.00
C114   C     0.49135   0.14076   0.47887   0.00000  Uiso   1.00
C115   C     0.48061   0.14545   0.02111   0.00000  Uiso   1.00
C116   C     0.44108   0.16106   0.04246   0.00000  Uiso   1.00
C117   C     0.41579   0.17603   0.02314   0.00000  Uiso   1.00
C118   C     0.52216   0.11284   0.45792   0.00000  Uiso   1.00
C119   C     0.55031   0.10205   0.47728   0.00000  Uiso   1.00
C120   C     0.54570   0.11339   0.01811   0.00000  Uiso   1.00
C121   C     0.50925   0.13383   0.04056   0.00000  Uiso   1.00
C122   C     0.57571   0.10333   0.03717   0.00000  Uiso   1.00
C123   C     0.56956   0.11558   0.07863   0.00000  Uiso   1.00
C124   C     0.50328   0.14363   0.08162   0.00000  Uiso   1.00
H125   H     0.38564   0.18754   0.04056   0.00000  Uiso   1.00
H126   H     0.47694   0.16014   0.10004   0.00000  Uiso   1.00
H127   H     0.57548   0.08373   0.45959   0.00000  Uiso   1.00
H128   H     0.37664   0.20937   0.48170   0.00000  Uiso   1.00
H129   H     0.51893   0.16711   0.40473   0.00000  Uiso   1.00
H130   H     0.42798   0.16094   0.07413   0.00000  Uiso   1.00
C131   C     0.66038   0.17631   0.23767   0.00000  Uiso   1.00
H132   H     0.35009   0.19384   0.21498   0.00000  Uiso   1.00
C133   C     0.34042   0.15732   0.26224   0.00000  Uiso   1.00
H134   H     0.65139   0.13965   0.28514   0.00000  Uiso   1.00
C135   C     0.51434   0.32219   0.23800   0.00000  Uiso   1.00
H136   H     0.54144   0.00282   0.21570   0.00000  Uiso   1.00
C137   C     0.48499   0.01205   0.26221   0.00000  Uiso   1.00
H138   H     0.45751   0.33217   0.28459   0.00000  Uiso   1.00
C139   C     0.61393   0.07962   0.01359   0.00000  Uiso   1.00
C140   C     0.65135   0.10905   0.49108   0.00000  Uiso   1.00
H141   H     0.64147   0.12410   0.46934   0.00000  Uiso   1.00
H142   H     0.66231   0.13379   0.01221   0.00000  Uiso   1.00
H143   H     0.34557   0.09121   0.47479   0.00000  Uiso   1.00
H144   H     0.62595   0.06290   0.03263   0.00000  Uiso   1.00
H145   H     0.60414   0.05358   0.49302   0.00000  Uiso   1.00
C146   C     0.60195   0.10834   0.10004   0.00000  Uiso   1.00
C147   C     0.58911   0.06707   0.11866   0.00000  Uiso   1.00
H148   H     0.55750   0.06761   0.14160   0.00000  Uiso   1.00
H149   H     0.58665   0.04047   0.09572   0.00000  Uiso   1.00
H150   H     0.61387   0.06218   0.13304   0.00000  Uiso   1.00
H151   H     0.63534   0.10938   0.08017   0.00000  Uiso   1.00
H152   H     0.60457   0.13410   0.12362   0.00000  Uiso   1.00
C153   C     0.39236   0.22251   0.40608   0.00000  Uiso   1.00
C154   C     0.40875   0.26851   0.40102   0.00000  Uiso   1.00
H155   H     0.44264   0.27239   0.38223   0.00000  Uiso   1.00
H156   H     0.38810   0.28180   0.38688   0.00000  Uiso   1.00
H157   H     0.40715   0.28636   0.43051   0.00000  Uiso   1.00
H158   H     0.38856   0.20484   0.37790   0.00000  Uiso   1.00
H159   H     0.35894   0.22125   0.42624   0.00000  Uiso   1.00
C160   C     0.52107   0.08725   0.41836   0.00000  Uiso   1.00
C161   C     0.47648   0.06339   0.41990   0.00000  Uiso   1.00
H162   H     0.46563   0.04419   0.44536   0.00000  Uiso   1.00
H163   H     0.45226   0.08508   0.42275   0.00000  Uiso   1.00
H164   H     0.47822   0.04227   0.39205   0.00000  Uiso   1.00
H165   H     0.53228   0.10572   0.39269   0.00000  Uiso   1.00
H166   H     0.54398   0.06326   0.41098   0.00000  Uiso   1.00
Zn167  Zn    0.85910   0.14090   0.28278   0.00000  Uiso   1.00
Zn168  Zn    0.80125   0.12378   0.22258   0.00000  Uiso   1.00
Zn169  Zn    0.87833   0.19664   0.21188   0.00000  Uiso   1.00
Zn170  Zn    0.79465   0.20535   0.28277   0.00000  Uiso   1.00
O171   O     0.83333   0.16667   0.25000   0.00000  Uiso   1.00
O172   O     0.73656   0.18960   0.27820   0.00000  Uiso   1.00
O173   O     0.92106   0.15277   0.26768   0.00000  Uiso   1.00
O174   O     0.80467   0.06903   0.23607   0.00000  Uiso   1.00
O175   O     0.87104   0.25527   0.21806   0.00000  Uiso   1.00
O176   O     0.82360   0.12393   0.16625   0.00000  Uiso   1.00
O177   O     0.79354   0.20646   0.33749   0.00000  Uiso   1.00
O178   O     0.87755   0.17493   0.15877   0.00000  Uiso   1.00
O179   O     0.83865   0.16135   0.33749   0.00000  Uiso   1.00
O180   O     0.84515   0.08101   0.27821   0.00000  Uiso   1.00
O181   O     0.81247   0.26136   0.26767   0.00000  Uiso   1.00
O182   O     0.74119   0.13251   0.23607   0.00000  Uiso   1.00
O183   O     0.93452   0.19179   0.21806   0.00000  Uiso   1.00
C184   C     0.71911   0.15982   0.25881   0.00000  Uiso   1.00
C185   C     0.94778   0.17357   0.24121   0.00000  Uiso   1.00
C186   C     0.82262   0.05605   0.25893   0.00000  Uiso   1.00
C187   C     0.84358   0.27772   0.24132   0.00000  Uiso   1.00
C188   C     0.85521   0.14502   0.14373   0.00000  Uiso   1.00
C189   C     0.81105   0.18697   0.35669   0.00000  Uiso   1.00
C190   C     0.79508   0.18884   0.40079   0.00000  Uiso   1.00
C191   C     0.86566   0.13469   0.10045   0.00000  Uiso   1.00
C192   C     0.74003   0.19781   0.46401   0.00000  Uiso   1.00
C193   C     0.75453   0.20249   0.42329   0.00000  Uiso   1.00
C194   C     0.81930   0.17164   0.42038   0.00000  Uiso   1.00
C195   C     0.80245   0.16255   0.46000   0.00000  Uiso   1.00
C196   C     0.76362   0.17851   0.48235   0.00000  Uiso   1.00
C197   C     0.82468   0.14076   0.47887   0.00000  Uiso   1.00
C198   C     0.81394   0.14545   0.02111   0.00000  Uiso   1.00
C199   C     0.77442   0.16106   0.04246   0.00000  Uiso   1.00
C200   C     0.74912   0.17603   0.02314   0.00000  Uiso   1.00
C201   C     0.85549   0.11284   0.45792   0.00000  Uiso   1.00
C202   C     0.88365   0.10205   0.47728   0.00000  Uiso   1.00
C203   C     0.87903   0.11339   0.01811   0.00000  Uiso   1.00
C204   C     0.84258   0.13383   0.04056   0.00000  Uiso   1.00
C205   C     0.90905   0.10333   0.03717   0.00000  Uiso   1.00
C206   C     0.90289   0.11558   0.07863   0.00000  Uiso   1.00
C207   C     0.83661   0.14363   0.08162   0.00000  Uiso   1.00
H208   H     0.71898   0.18754   0.04056   0.00000  Uiso   1.00
H209   H     0.81028   0.16014   0.10004   0.00000  Uiso   1.00
H210   H     0.90882   0.08373   0.45959   0.00000  Uiso   1.00
H211   H     0.70997   0.20937   0.48170   0.00000  Uiso   1.00
H212   H     0.85226   0.16711   0.40473   0.00000  Uiso   1.00
H213   H     0.76131   0.16094   0.07413   0.00000  Uiso   1.00
C214   C     0.99372   0.17631   0.23767   0.00000  Uiso   1.00
H215   H     0.68342   0.19384   0.21498   0.00000  Uiso   1.00
C216   C     0.67376   0.15732   0.26224   0.00000  Uiso   1.00
H217   H     0.98472   0.13965   0.28514   0.00000  Uiso   1.00
C218   C     0.84767   0.32219   0.23800   0.00000  Uiso   1.00
H219   H     0.87478   0.00282   0.21570   0.00000  Uiso   1.00
C220   C     0.81832   0.01205   0.26221   0.00000  Uiso   1.00
H221   H     0.79085   0.33217   0.28459   0.00000  Uiso   1.00
C222   C     0.94726   0.07962   0.01359   0.00000  Uiso   1.00
C223   C     0.98468   0.10905   0.49108   0.00000  Uiso   1.00
H224   H     0.97480   0.12410   0.46934   0.00000  Uiso   1.00
H225   H     0.99564   0.13379   0.01221   0.00000  Uiso   1.00
H226   H     0.67891   0.09121   0.47479   0.00000  Uiso   1.00
H227   H     0.95928   0.06290   0.03263   0.00000  Uiso   1.00
H228   H     0.93748   0.05358   0.49302   0.00000  Uiso   1.00
C229   C     0.93528   0.10834   0.10004   0.00000  Uiso   1.00
C230   C     0.92244   0.06707   0.11866   0.00000  Uiso   1.00
H231   H     0.89084   0.06761   0.14160   0.00000  Uiso   1.00
H232   H     0.91998   0.04047   0.09572   0.00000  Uiso   1.00
H233   H     0.94721   0.06218   0.13304   0.00000  Uiso   1.00
H234   H     0.96867   0.10938   0.08017   0.00000  Uiso   1.00
H235   H     0.93790   0.13410   0.12362   0.00000  Uiso   1.00
C236   C     0.72570   0.22251   0.40608   0.00000  Uiso   1.00
C237   C     0.74208   0.26851   0.40102   0.00000  Uiso   1.00
H238   H     0.77597   0.27239   0.38223   0.00000  Uiso   1.00
H239   H     0.72143   0.28180   0.38688   0.00000  Uiso   1.00
H240   H     0.74049   0.28636   0.43051   0.00000  Uiso   1.00
H241   H     0.72189   0.20484   0.37790   0.00000  Uiso   1.00
H242   H     0.69227   0.22125   0.42624   0.00000  Uiso   1.00
C243   C     0.85440   0.08725   0.41836   0.00000  Uiso   1.00
C244   C     0.80981   0.06339   0.41990   0.00000  Uiso   1.00
H245   H     0.79896   0.04419   0.44536   0.00000  Uiso   1.00
H246   H     0.78559   0.08508   0.42275   0.00000  Uiso   1.00
H247   H     0.81156   0.04227   0.39205   0.00000  Uiso   1.00
H248   H     0.86561   0.10572   0.39269   0.00000  Uiso   1.00
H249   H     0.87732   0.06326   0.41098   0.00000  Uiso   1.00
Zn250  Zn    0.19244   0.47423   0.28278   0.00000  Uiso   1.00
Zn251  Zn    0.13459   0.45711   0.22258   0.00000  Uiso   1.00
Zn252  Zn    0.21166   0.52997   0.21188   0.00000  Uiso   1.00
Zn253  Zn    0.12798   0.53868   0.28277   0.00000  Uiso   1.00
O254   O     0.16667   0.50000   0.25000   0.00000  Uiso   1.00
O255   O     0.06990   0.52293   0.27820   0.00000  Uiso   1.00
O256   O     0.25440   0.48610   0.26768   0.00000  Uiso   1.00
O257   O     0.13800   0.40236   0.23607   0.00000  Uiso   1.00
O258   O     0.20437   0.58860   0.21806   0.00000  Uiso   1.00
O259   O     0.15693   0.45726   0.16625   0.00000  Uiso   1.00
O260   O     0.12687   0.53979   0.33749   0.00000  Uiso   1.00
O261   O     0.21088   0.50826   0.15877   0.00000  Uiso   1.00
O262   O     0.17198   0.49468   0.33749   0.00000  Uiso   1.00
O263   O     0.17849   0.41434   0.27821   0.00000  Uiso   1.00
O264   O     0.14581   0.59469   0.26767   0.00000  Uiso   1.00
O265   O     0.07452   0.46584   0.23607   0.00000  Uiso   1.00
O266   O     0.26785   0.52512   0.21806   0.00000  Uiso   1.00
C267   C     0.05245   0.49315   0.25881   0.00000  Uiso   1.00
C268   C     0.28112   0.50690   0.24121   0.00000  Uiso   1.00
C269   C     0.15595   0.38938   0.25893   0.00000  Uiso   1.00
C270   C     0.17691   0.61105   0.24132   0.00000  Uiso   1.00
C271   C     0.18854   0.47835   0.14373   0.00000  Uiso   1.00
C272   C     0.14438   0.52031   0.35669   0.00000  Uiso   1.00
C273   C     0.12842   0.52218   0.40079   0.00000  Uiso   1.00
C274   C     0.19899   0.46802   0.10045   0.00000  Uiso   1.00
C275   C     0.07336   0.53114   0.46401   0.00000  Uiso   1.00
C276   C     0.08786   0.53582   0.42329   0.00000  Uiso   1.00
C277   C     0.15263   0.50497   0.42038   0.00000  Uiso   1.00
C278   C     0.13578   0.49589   0.46000   0.00000  Uiso   1.00
C279   C     0.09695   0.51185   0.48235   0.00000  Uiso   1.00
C280   C     0.15801   0.47410   0.47887   0.00000  Uiso   1.00
C281   C     0.14727   0.47878   0.02111   0.00000  Uiso   1.00
C282   C     0.10775   0.49439   0.04246   0.00000  Uiso   1.00
C283   C     0.08246   0.50936   0.02314   0.00000  Uiso   1.00
C284   C     0.18882   0.44617   0.45792   0.00000  Uiso   1.00
C285   C     0.21698   0.43538   0.47728   0.00000  Uiso   1.00
C286   C     0.21237   0.44673   0.01811   0.00000  Uiso   1.00
C287   C     0.17591   0.46716   0.04056   0.00000  Uiso   1.00
C288   C     0.24238   0.43666   0.03717   0.00000  Uiso   1.00
C289   C     0.23622   0.44891   0.07863   0.00000  Uiso   1.00
C290   C     0.16995   0.47697   0.08162   0.00000  Uiso   1.00
H291   H     0.05231   0.52087   0.04056   0.00000  Uiso   1.00
H292   H     0.14361   0.49347   0.10004   0.00000  Uiso   1.00
H293   H     0.24215   0.41706   0.45959   0.00000  Uiso   1.00
H294   H     0.04331   0.54270   0.48170   0.00000  Uiso   1.00
H295   H     0.18559   0.50044   0.40473   0.00000  Uiso   1.00
H296   H     0.09464   0.49428   0.07413   0.00000  Uiso   1.00
C297   C     0.32705   0.50965   0.23767   0.00000  Uiso   1.00
H298   H     0.01675   0.52717   0.21498   0.00000  Uiso   1.00
C299   C     0.00709   0.49065   0.26224   0.00000  Uiso   1.00
H300   H     0.31805   0.47298   0.28514   0.00000  Uiso   1.00
C301   C     0.18101   0.65552   0.23800   0.00000  Uiso   1.00
H302   H     0.20811   0.33615   0.21570   0.00000  Uiso   1.00
C303   C     0.15165   0.34539   0.26221   0.00000  Uiso   1.00
H304   H     0.12418   0.66551   0.28459   0.00000  Uiso   1.00
C305   C     0.28059   0.41295   0.01359   0.00000  Uiso   1.00
C306   C     0.31802   0.44239   0.49108   0.00000  Uiso   1.00
H307   H     0.30814   0.45744   0.46934   0.00000  Uiso   1.00
H308   H     0.32898   0.46713   0.01221   0.00000  Uiso   1.00
H309   H     0.01224   0.42455   0.47479   0.00000  Uiso   1.00
H310   H     0.29262   0.39623   0.03263   0.00000  Uiso   1.00
H311   H     0.27081   0.38691   0.49302   0.00000  Uiso   1.00
C312   C     0.26861   0.44168   0.10004   0.00000  Uiso   1.00
C313   C     0.25578   0.40040   0.11866   0.00000  Uiso   1.00
H314   H     0.22417   0.40094   0.14160   0.00000  Uiso   1.00
H315   H     0.25331   0.37381   0.09572   0.00000  Uiso   1.00
H316   H     0.28054   0.39551   0.13304   0.00000  Uiso   1.00
H317   H     0.30201   0.44272   0.08017   0.00000  Uiso   1.00
H318   H     0.27124   0.46743   0.12362   0.00000  Uiso   1.00
C319   C     0.05903   0.55584   0.40608   0.00000  Uiso   1.00
C320   C     0.07541   0.60184   0.40102   0.00000  Uiso   1.00
H321   H     0.10931   0.60572   0.38223   0.00000  Uiso   1.00
H322   H     0.05476   0.61514   0.38688   0.00000  Uiso   1.00
H323   H     0.07382   0.61969   0.43051   0.00000  Uiso   1.00
H324   H     0.05523   0.53817   0.37790   0.00000  Uiso   1.00
H325   H     0.02560   0.55458   0.42624   0.00000  Uiso   1.00
C326   C     0.18773   0.42058   0.41836   0.00000  Uiso   1.00
C327   C     0.14315   0.39673   0.41990   0.00000  Uiso   1.00
H328   H     0.13229   0.37752   0.44536   0.00000  Uiso   1.00
H329   H     0.11892   0.41842   0.42275   0.00000  Uiso   1.00
H330   H     0.14489   0.37560   0.39205   0.00000  Uiso   1.00
H331   H     0.19894   0.43905   0.39269   0.00000  Uiso   1.00
H332   H     0.21065   0.39659   0.41098   0.00000  Uiso   1.00
Zn333  Zn    0.52577   0.47423   0.28278   0.00000  Uiso   1.00
Zn334  Zn    0.46792   0.45711   0.22258   0.00000  Uiso   1.00
Zn335  Zn    0.54500   0.52997   0.21188   0.00000  Uiso   1.00
Zn336  Zn    0.46131   0.53868   0.28277   0.00000  Uiso   1.00
O337   O     0.50000   0.50000   0.25000   0.00000  Uiso   1.00
O338   O     0.40323   0.52293   0.27820   0.00000  Uiso   1.00
O339   O     0.58773   0.48610   0.26768   0.00000  Uiso   1.00
O340   O     0.47133   0.40236   0.23607   0.00000  Uiso   1.00
O341   O     0.53771   0.58860   0.21806   0.00000  Uiso   1.00
O342   O     0.49027   0.45726   0.16625   0.00000  Uiso   1.00
O343   O     0.46020   0.53979   0.33749   0.00000  Uiso   1.00
O344   O     0.54421   0.50826   0.15877   0.00000  Uiso   1.00
O345   O     0.50532   0.49468   0.33749   0.00000  Uiso   1.00
O346   O     0.51182   0.41434   0.27821   0.00000  Uiso   1.00
O347   O     0.47914   0.59469   0.26767   0.00000  Uiso   1.00
O348   O     0.40785   0.46584   0.23607   0.00000  Uiso   1.00
O349   O     0.60119   0.52512   0.21806   0.00000  Uiso   1.00
C350   C     0.38578   0.49315   0.25881   0.00000  Uiso   1.00
C351   C     0.61445   0.50690   0.24121   0.00000  Uiso   1.00
C352   C     0.48929   0.38938   0.25893   0.00000  Uiso   1.00
C353   C     0.51025   0.61105   0.24132   0.00000  Uiso   1.00
C354   C     0.52187   0.47835   0.14373   0.00000  Uiso   1.00
C355   C     0.47772   0.52031   0.35669   0.00000  Uiso   1.00
C356   C     0.46175   0.52218   0.40079   0.00000  Uiso   1.00
C357   C     0.53232   0.46802   0.10045   0.00000  Uiso   1.00
C358   C     0.40669   0.53114   0.46401   0.00000  Uiso   1.00
C359   C     0.42119   0.53582   0.42329   0.00000  Uiso   1.00
C360   C     0.48596   0.50497   0.42038   0.00000  Uiso   1.00
C361   C     0.46911   0.49589   0.46000   0.00000  Uiso   1.00
C362   C     0.43028   0.51185   0.48235   0.00000  Uiso   1.00
C363   C     0.49135   0.47410   0.47887   0.00000  Uiso   1.00
C364   C     0.48061   0.47878   0.02111   0.00000  Uiso   1.00
C365   C     0.44108   0.49439   0.04246   0.00000  Uiso   1.00
C366   C     0.41579   0.50936   0.02314   0.00000  Uiso   1.00
C367   C     0.52216   0.44617   0.45792   0.00000  Uiso   1.00
C368   C     0.55031   0.43538   0.47728   0.00000  Uiso   1.00
C369   C     0.54570   0.44673   0.01811   0.00000  Uiso   1.00
C370   C     0.50925   0.46716   0.04056   0.00000  Uiso   1.00
C371   C     0.57571   0.43666   0.03717   0.00000  Uiso   1.00
C372   C     0.56956   0.44891   0.07863   0.00000  Uiso   1.00
C373   C     0.50328   0.47697   0.08162   0.00000  Uiso   1.00
H374   H     0.38564   0.52087   0.04056   0.00000  Uiso   1.00
H375   H     0.47694   0.49347   0.10004   0.00000  Uiso   1.00
H376   H     0.57548   0.41706   0.45959   0.00000  Uiso   1.00
H377   H     0.37664   0.54270   0.48170   0.00000  Uiso   1.00
H378   H     0.51893   0.50044   0.40473   0.00000  Uiso   1.00
H379   H     0.42798   0.49428   0.07413   0.00000  Uiso   1.00
C380   C     0.66038   0.50965   0.23767   0.00000  Uiso   1.00
H381   H     0.35009   0.52717   0.21498   0.00000  Uiso   1.00
C382   C     0.34042   0.49065   0.26224   0.00000  Uiso   1.00
H383   H     0.65139   0.47298   0.28514   0.00000  Uiso   1.00
C384   C     0.51434   0.65552   0.23800   0.00000  Uiso   1.00
H385   H     0.54144   0.33615   0.21570   0.00000  Uiso   1.00
C386   C     0.48499   0.34539   0.26221   0.00000  Uiso   1.00
H387   H     0.45751   0.66551   0.28459   0.00000  Uiso   1.00
C388   C     0.61393   0.41295   0.01359   0.00000  Uiso   1.00
C389   C     0.65135   0.44239   0.49108   0.00000  Uiso   1.00
H390   H     0.64147   0.45744   0.46934   0.00000  Uiso   1.00
H391   H     0.66231   0.46713   0.01221   0.00000  Uiso   1.00
H392   H     0.34557   0.42455   0.47479   0.00000  Uiso   1.00
H393   H     0.62595   0.39623   0.03263   0.00000  Uiso   1.00
H394   H     0.60414   0.38691   0.49302   0.00000  Uiso   1.00
C395   C     0.60195   0.44168   0.10004   0.00000  Uiso   1.00
C396   C     0.58911   0.40040   0.11866   0.00000  Uiso   1.00
H397   H     0.55750   0.40094   0.14160   0.00000  Uiso   1.00
H398   H     0.58665   0.37381   0.09572   0.00000  Uiso   1.00
H399   H     0.61387   0.39551   0.13304   0.00000  Uiso   1.00
H400   H     0.63534   0.44272   0.08017   0.00000  Uiso   1.00
H401   H     0.60457   0.46743   0.12362   0.00000  Uiso   1.00
C402   C     0.39236   0.55584   0.40608   0.00000  Uiso   1.00
C403   C     0.40875   0.60184   0.40102   0.00000  Uiso   1.00
H404   H     0.44264   0.60572   0.38223   0.00000  Uiso   1.00
H405   H     0.38810   0.61514   0.38688   0.00000  Uiso   1.00
H406   H     0.40715   0.61969   0.43051   0.00000  Uiso   1.00
H407   H     0.38856   0.53817   0.37790   0.00000  Uiso   1.00
H408   H     0.35894   0.55458   0.42624   0.00000  Uiso   1.00
C409   C     0.52107   0.42058   0.41836   0.00000  Uiso   1.00
C410   C     0.47648   0.39673   0.41990   0.00000  Uiso   1.00
H411   H     0.46563   0.37752   0.44536   0.00000  Uiso   1.00
H412   H     0.45226   0.41842   0.42275   0.00000  Uiso   1.00
H413   H     0.47822   0.37560   0.39205   0.00000  Uiso   1.00
H414   H     0.53228   0.43905   0.39269   0.00000  Uiso   1.00
H415   H     0.54398   0.39659   0.41098   0.00000  Uiso   1.00
Zn416  Zn    0.85910   0.47423   0.28278   0.00000  Uiso   1.00
Zn417  Zn    0.80125   0.45711   0.22258   0.00000  Uiso   1.00
Zn418  Zn    0.87833   0.52997   0.21188   0.00000  Uiso   1.00
Zn419  Zn    0.79465   0.53868   0.28277   0.00000  Uiso   1.00
O420   O     0.83333   0.50000   0.25000   0.00000  Uiso   1.00
O421   O     0.73656   0.52293   0.27820   0.00000  Uiso   1.00
O422   O     0.92106   0.48610   0.26768   0.00000  Uiso   1.00
O423   O     0.80467   0.40236   0.23607   0.00000  Uiso   1.00
O424   O     0.87104   0.58860   0.21806   0.00000  Uiso   1.00
O425   O     0.82360   0.45726   0.16625   0.00000  Uiso   1.00
O426   O     0.79354   0.53979   0.33749   0.00000  Uiso   1.00
O427   O     0.87755   0.50826   0.15877   0.00000  Uiso   1.00
O428   O     0.83865   0.49468   0.33749   0.00000  Uiso   1.00
O429   O     0.84515   0.41434   0.27821   0.00000  Uiso   1.00
O430   O     0.81247   0.59469   0.26767   0.00000  Uiso   1.00
O431   O     0.74119   0.46584   0.23607   0.00000  Uiso   1.00
O432   O     0.93452   0.52512   0.21806   0.00000  Uiso   1.00
C433   C     0.71911   0.49315   0.25881   0.00000  Uiso   1.00
C434   C     0.94778   0.50690   0.24121   0.00000  Uiso   1.00
C435   C     0.82262   0.38938   0.25893   0.00000  Uiso   1.00
C436   C     0.84358   0.61105   0.24132   0.00000  Uiso   1.00
C437   C     0.85521   0.47835   0.14373   0.00000  Uiso   1.00
C438   C     0.81105   0.52031   0.35669   0.00000  Uiso   1.00
C439   C     0.79508   0.52218   0.40079   0.00000  Uiso   1.00
C440   C     0.86566   0.46802   0.10045   0.00000  Uiso   1.00
C441   C     0.74003   0.53114   0.46401   0.00000  Uiso   1.00
C442   C     0.75453   0.53582   0.42329   0.00000  Uiso   1.00
C443   C     0.81930   0.50497   0.42038   0.00000  Uiso   1.00
C444   C     0.80245   0.49589   0.46000   0.00000  Uiso   1.00
C445   C     0.76362   0.51185   0.48235   0.00000  Uiso   1.00
C446   C     0.82468   0.47410   0.47887   0.00000  Uiso   1.00
C447   C     0.81394   0.47878   0.02111   0.00000  Uiso   1.00
C448   C     0.77442   0.49439   0.04246   0.00000  Uiso   1.00
C449   C     0.74912   0.50936   0.02314   0.00000  Uiso   1.00
C450   C     0.85549   0.44617   0.45792   0.00000  Uiso   1.00
C451   C     0.88365   0.43538   0.47728   0.00000  Uiso   1.00
C452   C     0.87903   0.44673   0.01811   0.00000  Uiso   1.00
C453   C     0.84258   0.46716   0.04056   0.00000  Uiso   1.00
C454   C     0.90905   0.43666   0.03717   0.00000  Uiso   1.00
C455   C     0.90289   0.44891   0.07863   0.00000  Uiso   1.00
C456   C     0.83661   0.47697   0.08162   0.00000  Uiso   1.00
H457   H     0.71898   0.52087   0.04056   0.00000  Uiso   1.00
H458   H     0.81028   0.49347   0.10004   0.00000  Uiso   1.00
H459   H     0.90882   0.41706   0.45959   0.00000  Uiso   1.00
H460   H     0.70997   0.54270   0.48170   0.00000  Uiso   1.00
H461   H     0.85226   0.50044   0.40473   0.00000  Uiso   1.00
H462   H     0.76131   0.49428   0.07413   0.00000  Uiso   1.00
C463   C     0.99372   0.50965   0.23767   0.00000  Uiso   1.00
H464   H     0.68342   0.52717   0.21498   0.00000  Uiso   1.00
C465   C     0.67376   0.49065   0.26224   0.00000  Uiso   1.00
H466   H     0.98472   0.47298   0.28514   0.00000  Uiso   1.00
C467   C     0.84767   0.65552   0.23800   0.00000  Uiso   1.00
H468   H     0.87478   0.33615   0.21570   0.00000  Uiso   1.00
C469   C     0.81832   0.34539   0.26221   0.00000  Uiso   1.00
H470   H     0.79085   0.66551   0.28459   0.00000  Uiso   1.00
C471   C     0.94726   0.41295   0.01359   0.00000  Uiso   1.00
C472   C     0.98468   0.44239   0.49108   0.00000  Uiso   1.00
H473   H     0.97480   0.45744   0.46934   0.00000  Uiso   1.00
H474   H     0.99564   0.46713   0.01221   0.00000  Uiso   1.00
H475   H     0.67891   0.42455   0.47479   0.00000  Uiso   1.00
H476   H     0.95928   0.39623   0.03263   0.00000  Uiso   1.00
H477   H     0.93748   0.38691   0.49302   0.00000  Uiso   1.00
C478   C     0.93528   0.44168   0.10004   0.00000  Uiso   1.00
C479   C     0.92244   0.40040   0.11866   0.00000  Uiso   1.00
H480   H     0.89084   0.40094   0.14160   0.00000  Uiso   1.00
H481   H     0.91998   0.37381   0.09572   0.00000  Uiso   1.00
H482   H     0.94721   0.39551   0.13304   0.00000  Uiso   1.00
H483   H     0.96867   0.44272   0.08017   0.00000  Uiso   1.00
H484   H     0.93790   0.46743   0.12362   0.00000  Uiso   1.00
C485   C     0.72570   0.55584   0.40608   0.00000  Uiso   1.00
C486   C     0.74208   0.60184   0.40102   0.00000  Uiso   1.00
H487   H     0.77597   0.60572   0.38223   0.00000  Uiso   1.00
H488   H     0.72143   0.61514   0.38688   0.00000  Uiso   1.00
H489   H     0.74049   0.61969   0.43051   0.00000  Uiso   1.00
H490   H     0.72189   0.53817   0.37790   0.00000  Uiso   1.00
H491   H     0.69227   0.55458   0.42624   0.00000  Uiso   1.00
C492   C     0.85440   0.42058   0.41836   0.00000  Uiso   1.00
C493   C     0.80981   0.39673   0.41990   0.00000  Uiso   1.00
H494   H     0.79896   0.37752   0.44536   0.00000  Uiso   1.00
H495   H     0.78559   0.41842   0.42275   0.00000  Uiso   1.00
H496   H     0.81156   0.37560   0.39205   0.00000  Uiso   1.00
H497   H     0.86561   0.43905   0.39269   0.00000  Uiso   1.00
H498   H     0.87732   0.39659   0.41098   0.00000  Uiso   1.00
Zn499  Zn    0.19244   0.80756   0.28278   0.00000  Uiso   1.00
Zn500  Zn    0.13459   0.79044   0.22258   0.00000  Uiso   1.00
Zn501  Zn    0.21166   0.86331   0.21188   0.00000  Uiso   1.00
Zn502  Zn    0.12798   0.87202   0.28277   0.00000  Uiso   1.00
O503   O     0.16667   0.83333   0.25000   0.00000  Uiso   1.00
O504   O     0.06990   0.85627   0.27820   0.00000  Uiso   1.00
O505   O     0.25440   0.81944   0.26768   0.00000  Uiso   1.00
O506   O     0.13800   0.73570   0.23607   0.00000  Uiso   1.00
O507   O     0.20437   0.92193   0.21806   0.00000  Uiso   1.00
O508   O     0.15693   0.79060   0.16625   0.00000  Uiso   1.00
O509   O     0.12687   0.87313   0.33749   0.00000  Uiso   1.00
O510   O     0.21088   0.84159   0.15877   0.00000  Uiso   1.00
O511   O     0.17198   0.82802   0.33749   0.00000  Uiso   1.00
O512   O     0.17849   0.74768   0.27821   0.00000  Uiso   1.00
O513   O     0.14581   0.92803   0.26767   0.00000  Uiso   1.00
O514   O     0.07452   0.79917   0.23607   0.00000  Uiso   1.00
O515   O     0.26785   0.85845   0.21806   0.00000  Uiso   1.00
C516   C     0.05245   0.82649   0.25881   0.00000  Uiso   1.00
C517   C     0.28112   0.84023   0.24121   0.00000  Uiso   1.00
C518   C     0.15595   0.72272   0.25893   0.00000  Uiso   1.00
C519   C     0.17691   0.94438   0.24132   0.00000  Uiso   1.00
C520   C     0.18854   0.81168   0.14373   0.00000  Uiso   1.00
C521   C     0.14438   0.85364   0.35669   0.00000  Uiso   1.00
C522   C     0.12842   0.85551   0.40079   0.00000  Uiso   1.00
C523   C     0.19899   0.80136   0.10045   0.00000  Uiso   1.00
C524   C     0.07336   0.86447   0.46401   0.00000  Uiso   1.00
C525   C     0.08786   0.86916   0.42329   0.00000  Uiso   1.00
C526   C     0.15263   0.83831   0.42038   0.00000  Uiso   1.00
C527   C     0.13578   0.82922   0.46000   0.00000  Uiso   1.00
C528   C     0.09695   0.84518   0.48235   0.00000  Uiso   1.00
C529   C     0.15801   0.80743   0.47887   0.00000  Uiso   1.00
C530   C     0.14727   0.81211   0.02111   0.00000  Uiso   1.00
C531   C     0.10775   0.82773   0.04246   0.00000  Uiso   1.00
C532   C     0.08246   0.84269   0.02314   0.00000  Uiso   1.00
C533   C     0.18882   0.77951   0.45792   0.00000  Uiso   1.00
C534   C     0.21698   0.76872   0.47728   0.00000  Uiso   1.00
C535   C     0.21237   0.78006   0.01811   0.00000  Uiso   1.00
C536   C     0.17591   0.80050   0.04056   0.00000  Uiso   1.00
C537   C     0.24238   0.76999   0.03717   0.00000  Uiso   1.00
C538   C     0.23622   0.78224   0.07863   0.00000  Uiso   1.00
C539   C     0.16995   0.81030   0.08162   0.00000  Uiso   1.00
H540   H     0.05231   0.85420   0.04056   0.00000  Uiso   1.00
H541   H     0.14361   0.82680   0.10004   0.00000  Uiso   1.00
H542   H     0.24215   0.75040   0.45959   0.00000  Uiso   1.00
H543   H     0.04331   0.87603   0.48170   0.00000  Uiso   1.00
H544   H     0.18559   0.83377   0.40473   0.00000  Uiso   1.00
H545   H     0.09464   0.82761   0.07413   0.00000  Uiso   1.00
C546   C     0.32705   0.84298   0.23767   0.00000  Uiso   1.00
H547   H     0.01675   0.86050   0.21498   0.00000  Uiso   1.00
C548   C     0.00709   0.82398   0.26224   0.00000  Uiso   1.00
H549   H     0.31805   0.80632   0.28514   0.00000  Uiso   1.00
C550   C     0.18101   0.98885   0.23800   0.00000  Uiso   1.00
H551   H     0.20811   0.66949   0.21570   0.00000  Uiso   1.00
C552   C     0.15165   0.67872   0.26221   0.00000  Uiso   1.00
H553   H     0.12418   0.99884   0.28459   0.00000  Uiso   1.00
C554   C     0.28059   0.74629   0.01359   0.00000  Uiso   1.00
C555   C     0.31802   0.77572   0.49108   0.00000  Uiso   1.00
H556   H     0.30814   0.79077   0.46934   0.00000  Uiso   1.00
H557   H     0.32898   0.80046   0.01221   0.00000  Uiso   1.00
H558   H     0.01224   0.75788   0.47479   0.00000  Uiso   1.00
H559   H     0.29262   0.72957   0.03263   0.00000  Uiso   1.00
H560   H     0.27081   0.72025   0.49302   0.00000  Uiso   1.00
C561   C     0.26861   0.77501   0.10004   0.00000  Uiso   1.00
C562   C     0.25578   0.73374   0.11866   0.00000  Uiso   1.00
H563   H     0.22417   0.73428   0.14160   0.00000  Uiso   1.00
H564   H     0.25331   0.70714   0.09572   0.00000  Uiso   1.00
H565   H     0.28054   0.72884   0.13304   0.00000  Uiso   1.00
H566   H     0.30201   0.77605   0.08017   0.00000  Uiso   1.00
H567   H     0.27124   0.80076   0.12362   0.00000  Uiso   1.00
C568   C     0.05903   0.88917   0.40608   0.00000  Uiso   1.00
C569   C     0.07541   0.93517   0.40102   0.00000  Uiso   1.00
H570   H     0.10931   0.93906   0.38223   0.00000  Uiso   1.00
H571   H     0.05476   0.94847   0.38688   0.00000  Uiso   1.00
H572   H     0.07382   0.95303   0.43051   0.00000  Uiso   1.00
H573   H     0.05523   0.87151   0.37790   0.00000  Uiso   1.00
H574   H     0.02560   0.88791   0.42624   0.00000  Uiso   1.00
C575   C     0.18773   0.75392   0.41836   0.00000  Uiso   1.00
C576   C     0.14315   0.73006   0.41990   0.00000  Uiso   1.00
H577   H     0.13229   0.71085   0.44536   0.00000  Uiso   1.00
H578   H     0.11892   0.75175   0.42275   0.00000  Uiso   1.00
H579   H     0.14489   0.70894   0.39205   0.00000  Uiso   1.00
H580   H     0.19894   0.77239   0.39269   0.00000  Uiso   1.00
H581   H     0.21065   0.72993   0.41098   0.00000  Uiso   1.00
Zn582  Zn    0.52577   0.80756   0.28278   0.00000  Uiso   1.00
Zn583  Zn    0.46792   0.79044   0.22258   0.00000  Uiso   1.00
Zn584  Zn    0.54500   0.86331   0.21188   0.00000  Uiso   1.00
Zn585  Zn    0.46131   0.87202   0.28277   0.00000  Uiso   1.00
O586   O     0.50000   0.83333   0.25000   0.00000  Uiso   1.00
O587   O     0.40323   0.85627   0.27820   0.00000  Uiso   1.00
O588   O     0.58773   0.81944   0.26768   0.00000  Uiso   1.00
O589   O     0.47133   0.73570   0.23607   0.00000  Uiso   1.00
O590   O     0.53771   0.92193   0.21806   0.00000  Uiso   1.00
O591   O     0.49027   0.79060   0.16625   0.00000  Uiso   1.00
O592   O     0.46020   0.87313   0.33749   0.00000  Uiso   1.00
O593   O     0.54421   0.84159   0.15877   0.00000  Uiso   1.00
O594   O     0.50532   0.82802   0.33749   0.00000  Uiso   1.00
O595   O     0.51182   0.74768   0.27821   0.00000  Uiso   1.00
O596   O     0.47914   0.92803   0.26767   0.00000  Uiso   1.00
O597   O     0.40785   0.79917   0.23607   0.00000  Uiso   1.00
O598   O     0.60119   0.85845   0.21806   0.00000  Uiso   1.00
C599   C     0.38578   0.82649   0.25881   0.00000  Uiso   1.00
C600   C     0.61445   0.84023   0.24121   0.00000  Uiso   1.00
C601   C     0.48929   0.72272   0.25893   0.00000  Uiso   1.00
C602   C     0.51025   0.94438   0.24132   0.00000  Uiso   1.00
C603   C     0.52187   0.81168   0.14373   0.00000  Uiso   1.00
C604   C     0.47772   0.85364   0.35669   0.00000  Uiso   1.00
C605   C     0.46175   0.85551   0.40079   0.00000  Uiso   1.00
C606   C     0.53232   0.80136   0.10045   0.00000  Uiso   1.00
C607   C     0.40669   0.86447   0.46401   0.00000  Uiso   1.00
C608   C     0.42119   0.86916   0.42329   0.00000  Uiso   1.00
C609   C     0.48596   0.83831   0.42038   0.00000  Uiso   1.00
C610   C     0.46911   0.82922   0.46000   0.00000  Uiso   1.00
C611   C     0.43028   0.84518   0.48235   0.00000  Uiso   1.00
C612   C     0.49135   0.80743   0.47887   0.00000  Uiso   1.00
C613   C     0.48061   0.81211   0.02111   0.00000  Uiso   1.00
C614   C     0.44108   0.82773   0.04246   0.00000  Uiso   1.00
C615   C     0.41579   0.84269   0.02314   0.00000  Uiso   1.00
C616   C     0.52216   0.77951   0.45792   0.00000  Uiso   1.00
C617   C     0.55031   0.76872   0.47728   0.00000  Uiso   1.00
C618   C     0.54570   0.78006   0.01811   0.00000  Uiso   1.00
C619   C     0.50925   0.80050   0.04056   0.00000  Uiso   1.00
C620   C     0.57571   0.76999   0.03717   0.00000  Uiso   1.00
C621   C     0.56956   0.78224   0.07863   0.00000  Uiso   1.00
C622   C     0.50328   0.81030   0.08162   0.00000  Uiso   1.00
H623   H     0.38564   0.85420   0.04056   0.00000  Uiso   1.00
H624   H     0.47694   0.82680   0.10004   0.00000  Uiso   1.00
H625   H     0.57548   0.75040   0.45959   0.00000  Uiso   1.00
H626   H     0.37664   0.87603   0.48170   0.00000  Uiso   1.00
H627   H     0.51893   0.83377   0.40473   0.00000  Uiso   1.00
H628   H     0.42798   0.82761   0.07413   0.00000  Uiso   1.00
C629   C     0.66038   0.84298   0.23767   0.00000  Uiso   1.00
H630   H     0.35009   0.86050   0.21498   0.00000  Uiso   1.00
C631   C     0.34042   0.82398   0.26224   0.00000  Uiso   1.00
H632   H     0.65139   0.80632   0.28514   0.00000  Uiso   1.00
C633   C     0.51434   0.98885   0.23800   0.00000  Uiso   1.00
H634   H     0.54144   0.66949   0.21570   0.00000  Uiso   1.00
C635   C     0.48499   0.67872   0.26221   0.00000  Uiso   1.00
H636   H     0.45751   0.99884   0.28459   0.00000  Uiso   1.00
C637   C     0.61393   0.74629   0.01359   0.00000  Uiso   1.00
C638   C     0.65135   0.77572   0.49108   0.00000  Uiso   1.00
H639   H     0.64147   0.79077   0.46934   0.00000  Uiso   1.00
H640   H     0.66231   0.80046   0.01221   0.00000  Uiso   1.00
H641   H     0.34557   0.75788   0.47479   0.00000  Uiso   1.00
H642   H     0.62595   0.72957   0.03263   0.00000  Uiso   1.00
H643   H     0.60414   0.72025   0.49302   0.00000  Uiso   1.00
C644   C     0.60195   0.77501   0.10004   0.00000  Uiso   1.00
C645   C     0.58911   0.73374   0.11866   0.00000  Uiso   1.00
H646   H     0.55750   0.73428   0.14160   0.00000  Uiso   1.00
H647   H     0.58665   0.70714   0.09572   0.00000  Uiso   1.00
H648   H     0.61387   0.72884   0.13304   0.00000  Uiso   1.00
H649   H     0.63534   0.77605   0.08017   0.00000  Uiso   1.00
H650   H     0.60457   0.80076   0.12362   0.00000  Uiso   1.00
C651   C     0.39236   0.88917   0.40608   0.00000  Uiso   1.00
C652   C     0.40875   0.93517   0.40102   0.00000  Uiso   1.00
H653   H     0.44264   0.93906   0.38223   0.00000  Uiso   1.00
H654   H     0.38810   0.94847   0.38688   0.00000  Uiso   1.00
H655   H     0.40715   0.95303   0.43051   0.00000  Uiso   1.00
H656   H     0.38856   0.87151   0.37790   0.00000  Uiso   1.00
H657   H     0.35894   0.88791   0.42624   0.00000  Uiso   1.00
C658   C     0.52107   0.75392   0.41836   0.00000  Uiso   1.00
C659   C     0.47648   0.73006   0.41990   0.00000  Uiso   1.00
H660   H     0.46563   0.71085   0.44536   0.00000  Uiso   1.00
H661   H     0.45226   0.75175   0.42275   0.00000  Uiso   1.00
H662   H     0.47822   0.70894   0.39205   0.00000  Uiso   1.00
H663   H     0.53228   0.77239   0.39269   0.00000  Uiso   1.00
H664   H     0.54398   0.72993   0.41098   0.00000  Uiso   1.00
Zn665  Zn    0.85910   0.80756   0.28278   0.00000  Uiso   1.00
Zn666  Zn    0.80125   0.79044   0.22258   0.00000  Uiso   1.00
Zn667  Zn    0.87833   0.86331   0.21188   0.00000  Uiso   1.00
Zn668  Zn    0.79465   0.87202   0.28277   0.00000  Uiso   1.00
O669   O     0.83333   0.83333   0.25000   0.00000  Uiso   1.00
O670   O     0.73656   0.85627   0.27820   0.00000  Uiso   1.00
O671   O     0.92106   0.81944   0.26768   0.00000  Uiso   1.00
O672   O     0.80467   0.73570   0.23607   0.00000  Uiso   1.00
O673   O     0.87104   0.92193   0.21806   0.00000  Uiso   1.00
O674   O     0.82360   0.79060   0.16625   0.00000  Uiso   1.00
O675   O     0.79354   0.87313   0.33749   0.00000  Uiso   1.00
O676   O     0.87755   0.84159   0.15877   0.00000  Uiso   1.00
O677   O     0.83865   0.82802   0.33749   0.00000  Uiso   1.00
O678   O     0.84515   0.74768   0.27821   0.00000  Uiso   1.00
O679   O     0.81247   0.92803   0.26767   0.00000  Uiso   1.00
O680   O     0.74119   0.79917   0.23607   0.00000  Uiso   1.00
O681   O     0.93452   0.85845   0.21806   0.00000  Uiso   1.00
C682   C     0.71911   0.82649   0.25881   0.00000  Uiso   1.00
C683   C     0.94778   0.84023   0.24121   0.00000  Uiso   1.00
C684   C     0.82262   0.72272   0.25893   0.00000  Uiso   1.00
C685   C     0.84358   0.94438   0.24132   0.00000  Uiso   1.00
C686   C     0.85521   0.81168   0.14373   0.00000  Uiso   1.00
C687   C     0.81105   0.85364   0.35669   0.00000  Uiso   1.00
C688   C     0.79508   0.85551   0.40079   0.00000  Uiso   1.00
C689   C     0.86566   0.80136   0.10045   0.00000  Uiso   1.00
C690   C     0.74003   0.86447   0.46401   0.00000  Uiso   1.00
C691   C     0.75453   0.86916   0.42329   0.00000  Uiso   1.00
C692   C     0.81930   0.83831   0.42038   0.00000  Uiso   1.00
C693   C     0.80245   0.82922   0.46000   0.00000  Uiso   1.00
C694   C     0.76362   0.84518   0.48235   0.00000  Uiso   1.00
C695   C     0.82468   0.80743   0.47887   0.00000  Uiso   1.00
C696   C     0.81394   0.81211   0.02111   0.00000  Uiso   1.00
C697   C     0.77442   0.82773   0.04246   0.00000  Uiso   1.00
C698   C     0.74912   0.84269   0.02314   0.00000  Uiso   1.00
C699   C     0.85549   0.77951   0.45792   0.00000  Uiso   1.00
C700   C     0.88365   0.76872   0.47728   0.00000  Uiso   1.00
C701   C     0.87903   0.78006   0.01811   0.00000  Uiso   1.00
C702   C     0.84258   0.80050   0.04056   0.00000  Uiso   1.00
C703   C     0.90905   0.76999   0.03717   0.00000  Uiso   1.00
C704   C     0.90289   0.78224   0.07863   0.00000  Uiso   1.00
C705   C     0.83661   0.81030   0.08162   0.00000  Uiso   1.00
H706   H     0.71898   0.85420   0.04056   0.00000  Uiso   1.00
H707   H     0.81028   0.82680   0.10004   0.00000  Uiso   1.00
H708   H     0.90882   0.75040   0.45959   0.00000  Uiso   1.00
H709   H     0.70997   0.87603   0.48170   0.00000  Uiso   1.00
H710   H     0.85226   0.83377   0.40473   0.00000  Uiso   1.00
H711   H     0.76131   0.82761   0.07413   0.00000  Uiso   1.00
C712   C     0.99372   0.84298   0.23767   0.00000  Uiso   1.00
H713   H     0.68342   0.86050   0.21498   0.00000  Uiso   1.00
C714   C     0.67376   0.82398   0.26224   0.00000  Uiso   1.00
H715   H     0.98472   0.80632   0.28514   0.00000  Uiso   1.00
C716   C     0.84767   0.98885   0.23800   0.00000  Uiso   1.00
H717   H     0.87478   0.66949   0.21570   0.00000  Uiso   1.00
C718   C     0.81832   0.67872   0.26221   0.00000  Uiso   1.00
H719   H     0.79085   0.99884   0.28459   0.00000  Uiso   1.00
C720   C     0.94726   0.74629   0.01359   0.00000  Uiso   1.00
C721   C     0.98468   0.77572   0.49108   0.00000  Uiso   1.00
H722   H     0.97480   0.79077   0.46934   0.00000  Uiso   1.00
H723   H     0.99564   0.80046   0.01221   0.00000  Uiso   1.00
H724   H     0.67891   0.75788   0.47479   0.00000  Uiso   1.00
H725   H     0.95928   0.72957   0.03263   0.00000  Uiso   1.00
H726   H     0.93748   0.72025   0.49302   0.00000  Uiso   1.00
C727   C     0.93528   0.77501   0.10004   0.00000  Uiso   1.00
C728   C     0.92244   0.73374   0.11866   0.00000  Uiso   1.00
H729   H     0.89084   0.73428   0.14160   0.00000  Uiso   1.00
H730   H     0.91998   0.70714   0.09572   0.00000  Uiso   1.00
H731   H     0.94721   0.72884   0.13304   0.00000  Uiso   1.00
H732   H     0.96867   0.77605   0.08017   0.00000  Uiso   1.00
H733   H     0.93790   0.80076   0.12362   0.00000  Uiso   1.00
C734   C     0.72570   0.88917   0.40608   0.00000  Uiso   1.00
C735   C     0.74208   0.93517   0.40102   0.00000  Uiso   1.00
H736   H     0.77597   0.93906   0.38223   0.00000  Uiso   1.00
H737   H     0.72143   0.94847   0.38688   0.00000  Uiso   1.00
H738   H     0.74049   0.95303   0.43051   0.00000  Uiso   1.00
H739   H     0.72189   0.87151   0.37790   0.00000  Uiso   1.00
H740   H     0.69227   0.88791   0.42624   0.00000  Uiso   1.00
C741   C     0.85440   0.75392   0.41836   0.00000  Uiso   1.00
C742   C     0.80981   0.73006   0.41990   0.00000  Uiso   1.00
H743   H     0.79896   0.71085   0.44536   0.00000  Uiso   1.00
H744   H     0.78559   0.75175   0.42275   0.00000  Uiso   1.00
H745   H     0.81156   0.70894   0.39205   0.00000  Uiso   1.00
H746   H     0.86561   0.77239   0.39269   0.00000  Uiso   1.00
H747   H     0.87732   0.72993   0.41098   0.00000  Uiso   1.00
Zn748  Zn    0.19244   0.14090   0.78278   0.00000  Uiso   1.00
Zn749  Zn    0.13459   0.12378   0.72258   0.00000  Uiso   1.00
Zn750  Zn    0.21166   0.19664   0.71188   0.00000  Uiso   1.00
Zn751  Zn    0.12798   0.20535   0.78277   0.00000  Uiso   1.00
O752   O     0.16667   0.16667   0.75000   0.00000  Uiso   1.00
O753   O     0.06990   0.18960   0.77820   0.00000  Uiso   1.00
O754   O     0.25440   0.15277   0.76768   0.00000  Uiso   1.00
O755   O     0.13800   0.06903   0.73607   0.00000  Uiso   1.00
O756   O     0.20437   0.25527   0.71806   0.00000  Uiso   1.00
O757   O     0.15693   0.12393   0.66625   0.00000  Uiso   1.00
O758   O     0.12687   0.20646   0.83749   0.00000  Uiso   1.00
O759   O     0.21088   0.17493   0.65877   0.00000  Uiso   1.00
O760   O     0.17198   0.16135   0.83749   0.00000  Uiso   1.00
O761   O     0.17849   0.08101   0.77821   0.00000  Uiso   1.00
O762   O     0.14581   0.26136   0.76767   0.00000  Uiso   1.00
O763   O     0.07452   0.13251   0.73607   0.00000  Uiso   1.00
O764   O     0.26785   0.19179   0.71806   0.00000  Uiso   1.00
C765   C     0.05245   0.15982   0.75881   0.00000  Uiso   1.00
C766   C     0.28112   0.17357   0.74121   0.00000  Uiso   1.00
C767   C     0.15595   0.05605   0.75893   0.00000  Uiso   1.00
C768   C     0.17691   0.27772   0.74132   0.00000  Uiso   1.00
C769   C     0.18854   0.14502   0.64373   0.00000  Uiso   1.00
C770   C     0.14438   0.18697   0.85669   0.00000  Uiso   1.00
C771   C     0.12842   0.18884   0.90079   0.00000  Uiso   1.00
C772   C     0.19899   0.13469   0.60045   0.00000  Uiso   1.00
C773   C     0.07336   0.19781   0.96401   0.00000  Uiso   1.00
C774   C     0.08786   0.20249   0.92329   0.00000  Uiso   1.00
C775   C     0.15263   0.17164   0.92038   0.00000  Uiso   1.00
C776   C     0.13578   0.16255   0.96000   0.00000  Uiso   1.00
C777   C     0.09695   0.17851   0.98235   0.00000  Uiso   1.00
C778   C     0.15801   0.14076   0.97887   0.00000  Uiso   1.00
C779   C     0.14727   0.14545   0.52111   0.00000  Uiso   1.00
C780   C     0.10775   0.16106   0.54246   0.00000  Uiso   1.00
C781   C     0.08246   0.17603   0.52314   0.00000  Uiso   1.00
C782   C     0.18882   0.11284   0.95792   0.00000  Uiso   1.00
C783   C     0.21698   0.10205   0.97728   0.00000  Uiso   1.00
C784   C     0.21237   0.11339   0.51811   0.00000  Uiso   1.00
C785   C     0.17591   0.13383   0.54056   0.00000  Uiso   1.00
C786   C     0.24238   0.10333   0.53717   0.00000  Uiso   1.00
C787   C     0.23622   0.11558   0.57863   0.00000  Uiso   1.00
C788   C     0.16995   0.14363   0.58162   0.00000  Uiso   1.00
H789   H     0.05231   0.18754   0.54056   0.00000  Uiso   1.00
H790   H     0.14361   0.16014   0.60004   0.00000  Uiso   1.00
H791   H     0.24215   0.08373   0.95959   0.00000  Uiso   1.00
H792   H     0.04331   0.20937   0.98170   0.00000  Uiso   1.00
H793   H     0.18559   0.16711   0.90473   0.00000  Uiso   1.00
H794   H     0.09464   0.16094   0.57413   0.00000  Uiso   1.00
C795   C     0.32705   0.17631   0.73767   0.00000  Uiso   1.00
H796   H     0.01675   0.19384   0.71498   0.00000  Uiso   1.00
C797   C     0.00709   0.15732   0.76224   0.00000  Uiso   1.00
H798   H     0.31805   0.13965   0.78514   0.00000  Uiso   1.00
C799   C     0.18101   0.32219   0.73800   0.00000  Uiso   1.00
H800   H     0.20811   0.00282   0.71570   0.00000  Uiso   1.00
C801   C     0.15165   0.01205   0.76221   0.00000  Uiso   1.00
H802   H     0.12418   0.33217   0.78459   0.00000  Uiso   1.00
C803   C     0.28059   0.07962   0.51359   0.00000  Uiso   1.00
C804   C     0.31802   0.10905   0.99108   0.00000  Uiso   1.00
H805   H     0.30814   0.12410   0.96934   0.00000  Uiso   1.00
H806   H     0.32898   0.13379   0.51221   0.00000  Uiso   1.00
H807   H     0.01224   0.09121   0.97479   0.00000  Uiso   1.00
H808   H     0.29262   0.06290   0.53263   0.00000  Uiso   1.00
H809   H     0.27081   0.05358   0.99302   0.00000  Uiso   1.00
C810   C     0.26861   0.10834   0.60004   0.00000  Uiso   1.00
C811   C     0.25578   0.06707   0.61866   0.00000  Uiso   1.00
H812   H     0.22417   0.06761   0.64160   0.00000  Uiso   1.00
H813   H     0.25331   0.04047   0.59572   0.00000  Uiso   1.00
H814   H     0.28054   0.06218   0.63304   0.00000  Uiso   1.00
H815   H     0.30201   0.10938   0.58017   0.00000  Uiso   1.00
H816   H     0.27124   0.13410   0.62362   0.00000  Uiso   1.00
C817   C     0.05903   0.22251   0.90608   0.00000  Uiso   1.00
C818   C     0.07541   0.26851   0.90102   0.00000  Uiso   1.00
H819   H     0.10931   0.27239   0.88223   0.00000  Uiso   1.00
H820   H     0.05476   0.28180   0.88688   0.00000  Uiso   1.00
H821   H     0.07382   0.28636   0.93051   0.00000  Uiso   1.00
H822   H     0.05523   0.20484   0.87790   0.00000  Uiso   1.00
H823   H     0.02560   0.22125   0.92624   0.00000  Uiso   1.00
C824   C     0.18773   0.08725   0.91836   0.00000  Uiso   1.00
C825   C     0.14315   0.06339   0.91990   0.00000  Uiso   1.00
H826   H     0.13229   0.04419   0.94536   0.00000  Uiso   1.00
H827   H     0.11892   0.08508   0.92275   0.00000  Uiso   1.00
H828   H     0.14489   0.04227   0.89205   0.00000  Uiso   1.00
H829   H     0.19894   0.10572   0.89269   0.00000  Uiso   1.00
H830   H     0.21065   0.06326   0.91098   0.00000  Uiso   1.00
Zn831  Zn    0.52577   0.14090   0.78278   0.00000  Uiso   1.00
Zn832  Zn    0.46792   0.12378   0.72258   0.00000  Uiso   1.00
Zn833  Zn    0.54500   0.19664   0.71188   0.00000  Uiso   1.00
Zn834  Zn    0.46131   0.20535   0.78277   0.00000  Uiso   1.00
O835   O     0.50000   0.16667   0.75000   0.00000  Uiso   1.00
O836   O     0.40323   0.18960   0.77820   0.00000  Uiso   1.00
O837   O     0.58773   0.15277   0.76768   0.00000  Uiso   1.00
O838   O     0.47133   0.06903   0.73607   0.00000  Uiso   1.00
O839   O     0.53771   0.25527   0.71806   0.00000  Uiso   1.00
O840   O     0.49027   0.12393   0.66625   0.00000  Uiso   1.00
O841   O     0.46020   0.20646   0.83749   0.00000  Uiso   1.00
O842   O     0.54421   0.17493   0.65877   0.00000  Uiso   1.00
O843   O     0.50532   0.16135   0.83749   0.00000  Uiso   1.00
O844   O     0.51182   0.08101   0.77821   0.00000  Uiso   1.00
O845   O     0.47914   0.26136   0.76767   0.00000  Uiso   1.00
O846   O     0.40785   0.13251   0.73607   0.00000  Uiso   1.00
O847   O     0.60119   0.19179   0.71806   0.00000  Uiso   1.00
C848   C     0.38578   0.15982   0.75881   0.00000  Uiso   1.00
C849   C     0.61445   0.17357   0.74121   0.00000  Uiso   1.00
C850   C     0.48929   0.05605   0.75893   0.00000  Uiso   1.00
C851   C     0.51025   0.27772   0.74132   0.00000  Uiso   1.00
C852   C     0.52187   0.14502   0.64373   0.00000  Uiso   1.00
C853   C     0.47772   0.18697   0.85669   0.00000  Uiso   1.00
C854   C     0.46175   0.18884   0.90079   0.00000  Uiso   1.00
C855   C     0.53232   0.13469   0.60045   0.00000  Uiso   1.00
C856   C     0.40669   0.19781   0.96401   0.00000  Uiso   1.00
C857   C     0.42119   0.20249   0.92329   0.00000  Uiso   1.00
C858   C     0.48596   0.17164   0.92038   0.00000  Uiso   1.00
C859   C     0.46911   0.16255   0.96000   0.00000  Uiso   1.00
C860   C     0.43028   0.17851   0.98235   0.00000  Uiso   1.00
C861   C     0.49135   0.14076   0.97887   0.00000  Uiso   1.00
C862   C     0.48061   0.14545   0.52111   0.00000  Uiso   1.00
C863   C     0.44108   0.16106   0.54246   0.00000  Uiso   1.00
C864   C     0.41579   0.17603   0.52314   0.00000  Uiso   1.00
C865   C     0.52216   0.11284   0.95792   0.00000  Uiso   1.00
C866   C     0.55031   0.10205   0.97728   0.00000  Uiso   1.00
C867   C     0.54570   0.11339   0.51811   0.00000  Uiso   1.00
C868   C     0.50925   0.13383   0.54056   0.00000  Uiso   1.00
C869   C     0.57571   0.10333   0.53717   0.00000  Uiso   1.00
C870   C     0.56956   0.11558   0.57863   0.00000  Uiso   1.00
C871   C     0.50328   0.14363   0.58162   0.00000  Uiso   1.00
H872   H     0.38564   0.18754   0.54056   0.00000  Uiso   1.00
H873   H     0.47694   0.16014   0.60004   0.00000  Uiso   1.00
H874   H     0.57548   0.08373   0.95959   0.00000  Uiso   1.00
H875   H     0.37664   0.20937   0.98170   0.00000  Uiso   1.00
H876   H     0.51893   0.16711   0.90473   0.00000  Uiso   1.00
H877   H     0.42798   0.16094   0.57413   0.00000  Uiso   1.00
C878   C     0.66038   0.17631   0.73767   0.00000  Uiso   1.00
H879   H     0.35009   0.19384   0.71498   0.00000  Uiso   1.00
C880   C     0.34042   0.15732   0.76224   0.00000  Uiso   1.00
H881   H     0.65139   0.13965   0.78514   0.00000  Uiso   1.00
C882   C     0.51434   0.32219   0.73800   0.00000  Uiso   1.00
H883   H     0.54144   0.00282   0.71570   0.00000  Uiso   1.00
C884   C     0.48499   0.01205   0.76221   0.00000  Uiso   1.00
H885   H     0.45751   0.33217   0.78459   0.00000  Uiso   1.00
C886   C     0.61393   0.07962   0.51359   0.00000  Uiso   1.00
C887   C     0.65135   0.10905   0.99108   0.00000  Uiso   1.00
H888   H     0.64147   0.12410   0.96934   0.00000  Uiso   1.00
H889   H     0.66231   0.13379   0.51221   0.00000  Uiso   1.00
H890   H     0.34557   0.09121   0.97479   0.00000  Uiso   1.00
H891   H     0.62595   0.06290   0.53263   0.00000  Uiso   1.00
H892   H     0.60414   0.05358   0.99302   0.00000  Uiso   1.00
C893   C     0.60195   0.10834   0.60004   0.00000  Uiso   1.00
C894   C     0.58911   0.06707   0.61866   0.00000  Uiso   1.00
H895   H     0.55750   0.06761   0.64160   0.00000  Uiso   1.00
H896   H     0.58665   0.04047   0.59572   0.00000  Uiso   1.00
H897   H     0.61387   0.06218   0.63304   0.00000  Uiso   1.00
H898   H     0.63534   0.10938   0.58017   0.00000  Uiso   1.00
H899   H     0.60457   0.13410   0.62362   0.00000  Uiso   1.00
C900   C     0.39236   0.22251   0.90608   0.00000  Uiso   1.00
C901   C     0.40875   0.26851   0.90102   0.00000  Uiso   1.00
H902   H     0.44264   0.27239   0.88223   0.00000  Uiso   1.00
H903   H     0.38810   0.28180   0.88688   0.00000  Uiso   1.00
H904   H     0.40715   0.28636   0.93051   0.00000  Uiso   1.00
H905   H     0.38856   0.20484   0.87790   0.00000  Uiso   1.00
H906   H     0.35894   0.22125   0.92624   0.00000  Uiso   1.00
C907   C     0.52107   0.08725   0.91836   0.00000  Uiso   1.00
C908   C     0.47648   0.06339   0.91990   0.00000  Uiso   1.00
H909   H     0.46563   0.04419   0.94536   0.00000  Uiso   1.00
H910   H     0.45226   0.08508   0.92275   0.00000  Uiso   1.00
H911   H     0.47822   0.04227   0.89205   0.00000  Uiso   1.00
H912   H     0.53228   0.10572   0.89269   0.00000  Uiso   1.00
H913   H     0.54398   0.06326   0.91098   0.00000  Uiso   1.00
Zn914  Zn    0.85910   0.14090   0.78278   0.00000  Uiso   1.00
Zn915  Zn    0.80125   0.12378   0.72258   0.00000  Uiso   1.00
Zn916  Zn    0.87833   0.19664   0.71188   0.00000  Uiso   1.00
Zn917  Zn    0.79465   0.20535   0.78277   0.00000  Uiso   1.00
O918   O     0.83333   0.16667   0.75000   0.00000  Uiso   1.00
O919   O     0.73656   0.18960   0.77820   0.00000  Uiso   1.00
O920   O     0.92106   0.15277   0.76768   0.00000  Uiso   1.00
O921   O     0.80467   0.06903   0.73607   0.00000  Uiso   1.00
O922   O     0.87104   0.25527   0.71806   0.00000  Uiso   1.00
O923   O     0.82360   0.12393   0.66625   0.00000  Uiso   1.00
O924   O     0.79354   0.20646   0.83749   0.00000  Uiso   1.00
O925   O     0.87755   0.17493   0.65877   0.00000  Uiso   1.00
O926   O     0.83865   0.16135   0.83749   0.00000  Uiso   1.00
O927   O     0.84515   0.08101   0.77821   0.00000  Uiso   1.00
O928   O     0.81247   0.26136   0.76767   0.00000  Uiso   1.00
O929   O     0.74119   0.13251   0.73607   0.00000  Uiso   1.00
O930   O     0.93452   0.19179   0.71806   0.00000  Uiso   1.00
C931   C     0.71911   0.15982   0.75881   0.00000  Uiso   1.00
C932   C     0.94778   0.17357   0.74121   0.00000  Uiso   1.00
C933   C     0.82262   0.05605   0.75893   0.00000  Uiso   1.00
C934   C     0.84358   0.27772   0.74132   0.00000  Uiso   1.00
C935   C     0.85521   0.14502   0.64373   0.00000  Uiso   1.00
C936   C     0.81105   0.18697   0.85669   0.00000  Uiso   1.00
C937   C     0.79508   0.18884   0.90079   0.00000  Uiso   1.00
C938   C     0.86566   0.13469   0.60045   0.00000  Uiso   1.00
C939   C     0.74003   0.19781   0.96401   0.00000  Uiso   1.00
C940   C     0.75453   0.20249   0.92329   0.00000  Uiso   1.00
C941   C     0.81930   0.17164   0.92038   0.00000  Uiso   1.00
C942   C     0.80245   0.16255   0.96000   0.00000  Uiso   1.00
C943   C     0.76362   0.17851   0.98235   0.00000  Uiso   1.00
C944   C     0.82468   0.14076   0.97887   0.00000  Uiso   1.00
C945   C     0.81394   0.14545   0.52111   0.00000  Uiso   1.00
C946   C     0.77442   0.16106   0.54246   0.00000  Uiso   1.00
C947   C     0.74912   0.17603   0.52314   0.00000  Uiso   1.00
C948   C     0.85549   0.11284   0.95792   0.00000  Uiso   1.00
C949   C     0.88365   0.10205   0.97728   0.00000  Uiso   1.00
C950   C     0.87903   0.11339   0.51811   0.00000  Uiso   1.00
C951   C     0.84258   0.13383   0.54056   0.00000  Uiso   1.00
C952   C     0.90905   0.10333   0.53717   0.00000  Uiso   1.00
C953   C     0.90289   0.11558   0.57863   0.00000  Uiso   1.00
C954   C     0.83661   0.14363   0.58162   0.00000  Uiso   1.00
H955   H     0.71898   0.18754   0.54056   0.00000  Uiso   1.00
H956   H     0.81028   0.16014   0.60004   0.00000  Uiso   1.00
H957   H     0.90882   0.08373   0.95959   0.00000  Uiso   1.00
H958   H     0.70997   0.20937   0.98170   0.00000  Uiso   1.00
H959   H     0.85226   0.16711   0.90473   0.00000  Uiso   1.00
H960   H     0.76131   0.16094   0.57413   0.00000  Uiso   1.00
C961   C     0.99372   0.17631   0.73767   0.00000  Uiso   1.00
H962   H     0.68342   0.19384   0.71498   0.00000  Uiso   1.00
C963   C     0.67376   0.15732   0.76224   0.00000  Uiso   1.00
H964   H     0.98472   0.13965   0.78514   0.00000  Uiso   1.00
C965   C     0.84767   0.32219   0.73800   0.00000  Uiso   1.00
H966   H     0.87478   0.00282   0.71570   0.00000  Uiso   1.00
C967   C     0.81832   0.01205   0.76221   0.00000  Uiso   1.00
H968   H     0.79085   0.33217   0.78459   0.00000  Uiso   1.00
C969   C     0.94726   0.07962   0.51359   0.00000  Uiso   1.00
C970   C     0.98468   0.10905   0.99108   0.00000  Uiso   1.00
H971   H     0.97480   0.12410   0.96934   0.00000  Uiso   1.00
H972   H     0.99564   0.13379   0.51221   0.00000  Uiso   1.00
H973   H     0.67891   0.09121   0.97479   0.00000  Uiso   1.00
H974   H     0.95928   0.06290   0.53263   0.00000  Uiso   1.00
H975   H     0.93748   0.05358   0.99302   0.00000  Uiso   1.00
C976   C     0.93528   0.10834   0.60004   0.00000  Uiso   1.00
C977   C     0.92244   0.06707   0.61866   0.00000  Uiso   1.00
H978   H     0.89084   0.06761   0.64160   0.00000  Uiso   1.00
H979   H     0.91998   0.04047   0.59572   0.00000  Uiso   1.00
H980   H     0.94721   0.06218   0.63304   0.00000  Uiso   1.00
H981   H     0.96867   0.10938   0.58017   0.00000  Uiso   1.00
H982   H     0.93790   0.13410   0.62362   0.00000  Uiso   1.00
C983   C     0.72570   0.22251   0.90608   0.00000  Uiso   1.00
C984   C     0.74208   0.26851   0.90102   0.00000  Uiso   1.00
H985   H     0.77597   0.27239   0.88223   0.00000  Uiso   1.00
H986   H     0.72143   0.28180   0.88688   0.00000  Uiso   1.00
H987   H     0.74049   0.28636   0.93051   0.00000  Uiso   1.00
H988   H     0.72189   0.20484   0.87790   0.00000  Uiso   1.00
H989   H     0.69227   0.22125   0.92624   0.00000  Uiso   1.00
C990   C     0.85440   0.08725   0.91836   0.00000  Uiso   1.00
C991   C     0.80981   0.06339   0.91990   0.00000  Uiso   1.00
H992   H     0.79896   0.04419   0.94536   0.00000  Uiso   1.00
H993   H     0.78559   0.08508   0.92275   0.00000  Uiso   1.00
H994   H     0.81156   0.04227   0.89205   0.00000  Uiso   1.00
H995   H     0.86561   0.10572   0.89269   0.00000  Uiso   1.00
H996   H     0.87732   0.06326   0.91098   0.00000  Uiso   1.00
Zn997  Zn    0.19244   0.47423   0.78278   0.00000  Uiso   1.00
Zn998  Zn    0.13459   0.45711   0.72258   0.00000  Uiso   1.00
Zn999  Zn    0.21166   0.52997   0.71188   0.00000  Uiso   1.00
Zn1000 Zn    0.12798   0.53868   0.78277   0.00000  Uiso   1.00
O1001  O     0.16667   0.50000   0.75000   0.00000  Uiso   1.00
O1002  O     0.06990   0.52293   0.77820   0.00000  Uiso   1.00
O1003  O     0.25440   0.48610   0.76768   0.00000  Uiso   1.00
O1004  O     0.13800   0.40236   0.73607   0.00000  Uiso   1.00
O1005  O     0.20437   0.58860   0.71806   0.00000  Uiso   1.00
O1006  O     0.15693   0.45726   0.66625   0.00000  Uiso   1.00
O1007  O     0.12687   0.53979   0.83749   0.00000  Uiso   1.00
O1008  O     0.21088   0.50826   0.65877   0.00000  Uiso   1.00
O1009  O     0.17198   0.49468   0.83749   0.00000  Uiso   1.00
O1010  O     0.17849   0.41434   0.77821   0.00000  Uiso   1.00
O1011  O     0.14581   0.59469   0.76767   0.00000  Uiso   1.00
O1012  O     0.07452   0.46584   0.73607   0.00000  Uiso   1.00
O1013  O     0.26785   0.52512   0.71806   0.00000  Uiso   1.00
C1014  C     0.05245   0.49315   0.75881   0.00000  Uiso   1.00
C1015  C     0.28112   0.50690   0.74121   0.00000  Uiso   1.00
C1016  C     0.15595   0.38938   0.75893   0.00000  Uiso   1.00
C1017  C     0.17691   0.61105   0.74132   0.00000  Uiso   1.00
C1018  C     0.18854   0.47835   0.64373   0.00000  Uiso   1.00
C1019  C     0.14438   0.52031   0.85669   0.00000  Uiso   1.00
C1020  C     0.12842   0.52218   0.90079   0.00000  Uiso   1.00
C1021  C     0.19899   0.46802   0.60045   0.00000  Uiso   1.00
C1022  C     0.07336   0.53114   0.96401   0.00000  Uiso   1.00
C1023  C     0.08786   0.53582   0.92329   0.00000  Uiso   1.00
C1024  C     0.15263   0.50497   0.92038   0.00000  Uiso   1.00
C1025  C     0.13578   0.49589   0.96000   0.00000  Uiso   1.00
C1026  C     0.09695   0.51185   0.98235   0.00000  Uiso   1.00
C1027  C     0.15801   0.47410   0.97887   0.00000  Uiso   1.00
C1028  C     0.14727   0.47878   0.52111   0.00000  Uiso   1.00
C1029  C     0.10775   0.49439   0.54246   0.00000  Uiso   1.00
C1030  C     0.08246   0.50936   0.52314   0.00000  Uiso   1.00
C1031  C     0.18882   0.44617   0.95792   0.00000  Uiso   1.00
C1032  C     0.21698   0.43538   0.97728   0.00000  Uiso   1.00
C1033  C     0.21237   0.44673   0.51811   0.00000  Uiso   1.00
C1034  C     0.17591   0.46716   0.54056   0.00000  Uiso   1.00
C1035  C     0.24238   0.43666   0.53717   0.00000  Uiso   1.00
C1036  C     0.23622   0.44891   0.57863   0.00000  Uiso   1.00
C1037  C     0.16995   0.47697   0.58162   0.00000  Uiso   1.00
H1038  H     0.05231   0.52087   0.54056   0.00000  Uiso   1.00
H1039  H     0.14361   0.49347   0.60004   0.00000  Uiso   1.00
H1040  H     0.24215   0.41706   0.95959   0.00000  Uiso   1.00
H1041  H     0.04331   0.54270   0.98170   0.00000  Uiso   1.00
H1042  H     0.18559   0.50044   0.90473   0.00000  Uiso   1.00
H1043  H     0.09464   0.49428   0.57413   0.00000  Uiso   1.00
C1044  C     0.32705   0.50965   0.73767   0.00000  Uiso   1.00
H1045  H     0.01675   0.52717   0.71498   0.00000  Uiso   1.00
C1046  C     0.00709   0.49065   0.76224   0.00000  Uiso   1.00
H1047  H     0.31805   0.47298   0.78514   0.00000  Uiso   1.00
C1048  C     0.18101   0.65552   0.73800   0.00000  Uiso   1.00
H1049  H     0.20811   0.33615   0.71570   0.00000  Uiso   1.00
C1050  C     0.15165   0.34539   0.76221   0.00000  Uiso   1.00
H1051  H     0.12418   0.66551   0.78459   0.00000  Uiso   1.00
C1052  C     0.28059   0.41295   0.51359   0.00000  Uiso   1.00
C1053  C     0.31802   0.44239   0.99108   0.00000  Uiso   1.00
H1054  H     0.30814   0.45744   0.96934   0.00000  Uiso   1.00
H1055  H     0.32898   0.46713   0.51221   0.00000  Uiso   1.00
H1056  H     0.01224   0.42455   0.97479   0.00000  Uiso   1.00
H1057  H     0.29262   0.39623   0.53263   0.00000  Uiso   1.00
H1058  H     0.27081   0.38691   0.99302   0.00000  Uiso   1.00
C1059  C     0.26861   0.44168   0.60004   0.00000  Uiso   1.00
C1060  C     0.25578   0.40040   0.61866   0.00000  Uiso   1.00
H1061  H     0.22417   0.40094   0.64160   0.00000  Uiso   1.00
H1062  H     0.25331   0.37381   0.59572   0.00000  Uiso   1.00
H1063  H     0.28054   0.39551   0.63304   0.00000  Uiso   1.00
H1064  H     0.30201   0.44272   0.58017   0.00000  Uiso   1.00
H1065  H     0.27124   0.46743   0.62362   0.00000  Uiso   1.00
C1066  C     0.05903   0.55584   0.90608   0.00000  Uiso   1.00
C1067  C     0.07541   0.60184   0.90102   0.00000  Uiso   1.00
H1068  H     0.10931   0.60572   0.88223   0.00000  Uiso   1.00
H1069  H     0.05476   0.61514   0.88688   0.00000  Uiso   1.00
H1070  H     0.07382   0.61969   0.93051   0.00000  Uiso   1.00
H1071  H     0.05523   0.53817   0.87790   0.00000  Uiso   1.00
H1072  H     0.02560   0.55458   0.92624   0.00000  Uiso   1.00
C1073  C     0.18773   0.42058   0.91836   0.00000  Uiso   1.00
C1074  C     0.14315   0.39673   0.91990   0.00000  Uiso   1.00
H1075  H     0.13229   0.37752   0.94536   0.00000  Uiso   1.00
H1076  H     0.11892   0.41842   0.92275   0.00000  Uiso   1.00
H1077  H     0.14489   0.37560   0.89205   0.00000  Uiso   1.00
H1078  H     0.19894   0.43905   0.89269   0.00000  Uiso   1.00
H1079  H     0.21065   0.39659   0.91098   0.00000  Uiso   1.00
Zn1080 Zn    0.52577   0.47423   0.78278   0.00000  Uiso   1.00
Zn1081 Zn    0.46792   0.45711   0.72258   0.00000  Uiso   1.00
Zn1082 Zn    0.54500   0.52997   0.71188   0.00000  Uiso   1.00
Zn1083 Zn    0.46131   0.53868   0.78277   0.00000  Uiso   1.00
O1084  O     0.50000   0.50000   0.75000   0.00000  Uiso   1.00
O1085  O     0.40323   0.52293   0.77820   0.00000  Uiso   1.00
O1086  O     0.58773   0.48610   0.76768   0.00000  Uiso   1.00
O1087  O     0.47133   0.40236   0.73607   0.00000  Uiso   1.00
O1088  O     0.53771   0.58860   0.71806   0.00000  Uiso   1.00
O1089  O     0.49027   0.45726   0.66625   0.00000  Uiso   1.00
O1090  O     0.46020   0.53979   0.83749   0.00000  Uiso   1.00
O1091  O     0.54421   0.50826   0.65877   0.00000  Uiso   1.00
O1092  O     0.50532   0.49468   0.83749   0.00000  Uiso   1.00
O1093  O     0.51182   0.41434   0.77821   0.00000  Uiso   1.00
O1094  O     0.47914   0.59469   0.76767   0.00000  Uiso   1.00
O1095  O     0.40785   0.46584   0.73607   0.00000  Uiso   1.00
O1096  O     0.60119   0.52512   0.71806   0.00000  Uiso   1.00
C1097  C     0.38578   0.49315   0.75881   0.00000  Uiso   1.00
C1098  C     0.61445   0.50690   0.74121   0.00000  Uiso   1.00
C1099  C     0.48929   0.38938   0.75893   0.00000  Uiso   1.00
C1100  C     0.51025   0.61105   0.74132   0.00000  Uiso   1.00
C1101  C     0.52187   0.47835   0.64373   0.00000  Uiso   1.00
C1102  C     0.47772   0.52031   0.85669   0.00000  Uiso   1.00
C1103  C     0.46175   0.52218   0.90079   0.00000  Uiso   1.00
C1104  C     0.53232   0.46802   0.60045   0.00000  Uiso   1.00
C1105  C     0.40669   0.53114   0.96401   0.00000  Uiso   1.00
C1106  C     0.42119   0.53582   0.92329   0.00000  Uiso   1.00
C1107  C     0.48596   0.50497   0.92038   0.00000  Uiso   1.00
C1108  C     0.46911   0.49589   0.96000   0.00000  Uiso   1.00
C1109  C     0.43028   0.51185   0.98235   0.00000  Uiso   1.00
C1110  C     0.49135   0.47410   0.97887   0.00000  Uiso   1.00
C1111  C     0.48061   0.47878   0.52111   0.00000  Uiso   1.00
C1112  C     0.44108   0.49439   0.54246   0.00000  Uiso   1.00
C1113  C     0.41579   0.50936   0.52314   0.00000  Uiso   1.00
C1114  C     0.52216   0.44617   0.95792   0.00000  Uiso   1.00
C1115  C     0.55031   0.43538   0.97728   0.00000  Uiso   1.00
C1116  C     0.54570   0.44673   0.51811   0.00000  Uiso   1.00
C1117  C     0.50925   0.46716   0.54056   0.00000  Uiso   1.00
C1118  C     0.57571   0.43666   0.53717   0.00000  Uiso   1.00
C1119  C     0.56956   0.44891   0.57863   0.00000  Uiso   1.00
C1120  C     0.50328   0.47697   0.58162   0.00000  Uiso   1.00
H1121  H     0.38564   0.52087   0.54056   0.00000  Uiso   1.00
H1122  H     0.47694   0.49347   0.60004   0.00000  Uiso   1.00
H1123  H     0.57548   0.41706   0.95959   0.00000  Uiso   1.00
H1124  H     0.37664   0.54270   0.98170   0.00000  Uiso   1.00
H1125  H     0.51893   0.50044   0.90473   0.00000  Uiso   1.00
H1126  H     0.42798   0.49428   0.57413   0.00000  Uiso   1.00
C1127  C     0.66038   0.50965   0.73767   0.00000  Uiso   1.00
H1128  H     0.35009   0.52717   0.71498   0.00000  Uiso   1.00
C1129  C     0.34042   0.49065   0.76224   0.00000  Uiso   1.00
H1130  H     0.65139   0.47298   0.78514   0.00000  Uiso   1.00
C1131  C     0.51434   0.65552   0.73800   0.00000  Uiso   1.00
H1132  H     0.54144   0.33615   0.71570   0.00000  Uiso   1.00
C1133  C     0.48499   0.34539   0.76221   0.00000  Uiso   1.00
H1134  H     0.45751   0.66551   0.78459   0.00000  Uiso   1.00
C1135  C     0.61393   0.41295   0.51359   0.00000  Uiso   1.00
C1136  C     0.65135   0.44239   0.99108   0.00000  Uiso   1.00
H1137  H     0.64147   0.45744   0.96934   0.00000  Uiso   1.00
H1138  H     0.66231   0.46713   0.51221   0.00000  Uiso   1.00
H1139  H     0.34557   0.42455   0.97479   0.00000  Uiso   1.00
H1140  H     0.62595   0.39623   0.53263   0.00000  Uiso   1.00
H1141  H     0.60414   0.38691   0.99302   0.00000  Uiso   1.00
C1142  C     0.60195   0.44168   0.60004   0.00000  Uiso   1.00
C1143  C     0.58911   0.40040   0.61866   0.00000  Uiso   1.00
H1144  H     0.55750   0.40094   0.64160   0.00000  Uiso   1.00
H1145  H     0.58665   0.37381   0.59572   0.00000  Uiso   1.00
H1146  H     0.61387   0.39551   0.63304   0.00000  Uiso   1.00
H1147  H     0.63534   0.44272   0.58017   0.00000  Uiso   1.00
H1148  H     0.60457   0.46743   0.62362   0.00000  Uiso   1.00
C1149  C     0.39236   0.55584   0.90608   0.00000  Uiso   1.00
C1150  C     0.40875   0.60184   0.90102   0.00000  Uiso   1.00
H1151  H     0.44264   0.60572   0.88223   0.00000  Uiso   1.00
H1152  H     0.38810   0.61514   0.88688   0.00000  Uiso   1.00
H1153  H     0.40715   0.61969   0.93051   0.00000  Uiso   1.00
H1154  H     0.38856   0.53817   0.87790   0.00000  Uiso   1.00
H1155  H     0.35894   0.55458   0.92624   0.00000  Uiso   1.00
C1156  C     0.52107   0.42058   0.91836   0.00000  Uiso   1.00
C1157  C     0.47648   0.39673   0.91990   0.00000  Uiso   1.00
H1158  H     0.46563   0.37752   0.94536   0.00000  Uiso   1.00
H1159  H     0.45226   0.41842   0.92275   0.00000  Uiso   1.00
H1160  H     0.47822   0.37560   0.89205   0.00000  Uiso   1.00
H1161  H     0.53228   0.43905   0.89269   0.00000  Uiso   1.00
H1162  H     0.54398   0.39659   0.91098   0.00000  Uiso   1.00
Zn1163 Zn    0.85910   0.47423   0.78278   0.00000  Uiso   1.00
Zn1164 Zn    0.80125   0.45711   0.72258   0.00000  Uiso   1.00
Zn1165 Zn    0.87833   0.52997   0.71188   0.00000  Uiso   1.00
Zn1166 Zn    0.79465   0.53868   0.78277   0.00000  Uiso   1.00
O1167  O     0.83333   0.50000   0.75000   0.00000  Uiso   1.00
O1168  O     0.73656   0.52293   0.77820   0.00000  Uiso   1.00
O1169  O     0.92106   0.48610   0.76768   0.00000  Uiso   1.00
O1170  O     0.80467   0.40236   0.73607   0.00000  Uiso   1.00
O1171  O     0.87104   0.58860   0.71806   0.00000  Uiso   1.00
O1172  O     0.82360   0.45726   0.66625   0.00000  Uiso   1.00
O1173  O     0.79354   0.53979   0.83749   0.00000  Uiso   1.00
O1174  O     0.87755   0.50826   0.65877   0.00000  Uiso   1.00
O1175  O     0.83865   0.49468   0.83749   0.00000  Uiso   1.00
O1176  O     0.84515   0.41434   0.77821   0.00000  Uiso   1.00
O1177  O     0.81247   0.59469   0.76767   0.00000  Uiso   1.00
O1178  O     0.74119   0.46584   0.73607   0.00000  Uiso   1.00
O1179  O     0.93452   0.52512   0.71806   0.00000  Uiso   1.00
C1180  C     0.71911   0.49315   0.75881   0.00000  Uiso   1.00
C1181  C     0.94778   0.50690   0.74121   0.00000  Uiso   1.00
C1182  C     0.82262   0.38938   0.75893   0.00000  Uiso   1.00
C1183  C     0.84358   0.61105   0.74132   0.00000  Uiso   1.00
C1184  C     0.85521   0.47835   0.64373   0.00000  Uiso   1.00
C1185  C     0.81105   0.52031   0.85669   0.00000  Uiso   1.00
C1186  C     0.79508   0.52218   0.90079   0.00000  Uiso   1.00
C1187  C     0.86566   0.46802   0.60045   0.00000  Uiso   1.00
C1188  C     0.74003   0.53114   0.96401   0.00000  Uiso   1.00
C1189  C     0.75453   0.53582   0.92329   0.00000  Uiso   1.00
C1190  C     0.81930   0.50497   0.92038   0.00000  Uiso   1.00
C1191  C     0.80245   0.49589   0.96000   0.00000  Uiso   1.00
C1192  C     0.76362   0.51185   0.98235   0.00000  Uiso   1.00
C1193  C     0.82468   0.47410   0.97887   0.00000  Uiso   1.00
C1194  C     0.81394   0.47878   0.52111   0.00000  Uiso   1.00
C1195  C     0.77442   0.49439   0.54246   0.00000  Uiso   1.00
C1196  C     0.74912   0.50936   0.52314   0.00000  Uiso   1.00
C1197  C     0.85549   0.44617   0.95792   0.00000  Uiso   1.00
C1198  C     0.88365   0.43538   0.97728   0.00000  Uiso   1.00
C1199  C     0.87903   0.44673   0.51811   0.00000  Uiso   1.00
C1200  C     0.84258   0.46716   0.54056   0.00000  Uiso   1.00
C1201  C     0.90905   0.43666   0.53717   0.00000  Uiso   1.00
C1202  C     0.90289   0.44891   0.57863   0.00000  Uiso   1.00
C1203  C     0.83661   0.47697   0.58162   0.00000  Uiso   1.00
H1204  H     0.71898   0.52087   0.54056   0.00000  Uiso   1.00
H1205  H     0.81028   0.49347   0.60004   0.00000  Uiso   1.00
H1206  H     0.90882   0.41706   0.95959   0.00000  Uiso   1.00
H1207  H     0.70997   0.54270   0.98170   0.00000  Uiso   1.00
H1208  H     0.85226   0.50044   0.90473   0.00000  Uiso   1.00
H1209  H     0.76131   0.49428   0.57413   0.00000  Uiso   1.00
C1210  C     0.99372   0.50965   0.73767   0.00000  Uiso   1.00
H1211  H     0.68342   0.52717   0.71498   0.00000  Uiso   1.00
C1212  C     0.67376   0.49065   0.76224   0.00000  Uiso   1.00
H1213  H     0.98472   0.47298   0.78514   0.00000  Uiso   1.00
C1214  C     0.84767   0.65552   0.73800   0.00000  Uiso   1.00
H1215  H     0.87478   0.33615   0.71570   0.00000  Uiso   1.00
C1216  C     0.81832   0.34539   0.76221   0.00000  Uiso   1.00
H1217  H     0.79085   0.66551   0.78459   0.00000  Uiso   1.00
C1218  C     0.94726   0.41295   0.51359   0.00000  Uiso   1.00
C1219  C     0.98468   0.44239   0.99108   0.00000  Uiso   1.00
H1220  H     0.97480   0.45744   0.96934   0.00000  Uiso   1.00
H1221  H     0.99564   0.46713   0.51221   0.00000  Uiso   1.00
H1222  H     0.67891   0.42455   0.97479   0.00000  Uiso   1.00
H1223  H     0.95928   0.39623   0.53263   0.00000  Uiso   1.00
H1224  H     0.93748   0.38691   0.99302   0.00000  Uiso   1.00
C1225  C     0.93528   0.44168   0.60004   0.00000  Uiso   1.00
C1226  C     0.92244   0.40040   0.61866   0.00000  Uiso   1.00
H1227  H     0.89084   0.40094   0.64160   0.00000  Uiso   1.00
H1228  H     0.91998   0.37381   0.59572   0.00000  Uiso   1.00
H1229  H     0.94721   0.39551   0.63304   0.00000  Uiso   1.00
H1230  H     0.96867   0.44272   0.58017   0.00000  Uiso   1.00
H1231  H     0.93790   0.46743   0.62362   0.00000  Uiso   1.00
C1232  C     0.72570   0.55584   0.90608   0.00000  Uiso   1.00
C1233  C     0.74208   0.60184   0.90102   0.00000  Uiso   1.00
H1234  H     0.77597   0.60572   0.88223   0.00000  Uiso   1.00
H1235  H     0.72143   0.61514   0.88688   0.00000  Uiso   1.00
H1236  H     0.74049   0.61969   0.93051   0.00000  Uiso   1.00
H1237  H     0.72189   0.53817   0.87790   0.00000  Uiso   1.00
H1238  H     0.69227   0.55458   0.92624   0.00000  Uiso   1.00
C1239  C     0.85440   0.42058   0.91836   0.00000  Uiso   1.00
C1240  C     0.80981   0.39673   0.91990   0.00000  Uiso   1.00
H1241  H     0.79896   0.37752   0.94536   0.00000  Uiso   1.00
H1242  H     0.78559   0.41842   0.92275   0.00000  Uiso   1.00
H1243  H     0.81156   0.37560   0.89205   0.00000  Uiso   1.00
H1244  H     0.86561   0.43905   0.89269   0.00000  Uiso   1.00
H1245  H     0.87732   0.39659   0.91098   0.00000  Uiso   1.00
Zn1246 Zn    0.19244   0.80756   0.78278   0.00000  Uiso   1.00
Zn1247 Zn    0.13459   0.79044   0.72258   0.00000  Uiso   1.00
Zn1248 Zn    0.21166   0.86331   0.71188   0.00000  Uiso   1.00
Zn1249 Zn    0.12798   0.87202   0.78277   0.00000  Uiso   1.00
O1250  O     0.16667   0.83333   0.75000   0.00000  Uiso   1.00
O1251  O     0.06990   0.85627   0.77820   0.00000  Uiso   1.00
O1252  O     0.25440   0.81944   0.76768   0.00000  Uiso   1.00
O1253  O     0.13800   0.73570   0.73607   0.00000  Uiso   1.00
O1254  O     0.20437   0.92193   0.71806   0.00000  Uiso   1.00
O1255  O     0.15693   0.79060   0.66625   0.00000  Uiso   1.00
O1256  O     0.12687   0.87313   0.83749   0.00000  Uiso   1.00
O1257  O     0.21088   0.84159   0.65877   0.00000  Uiso   1.00
O1258  O     0.17198   0.82802   0.83749   0.00000  Uiso   1.00
O1259  O     0.17849   0.74768   0.77821   0.00000  Uiso   1.00
O1260  O     0.14581   0.92803   0.76767   0.00000  Uiso   1.00
O1261  O     0.07452   0.79917   0.73607   0.00000  Uiso   1.00
O1262  O     0.26785   0.85845   0.71806   0.00000  Uiso   1.00
C1263  C     0.05245   0.82649   0.75881   0.00000  Uiso   1.00
C1264  C     0.28112   0.84023   0.74121   0.00000  Uiso   1.00
C1265  C     0.15595   0.72272   0.75893   0.00000  Uiso   1.00
C1266  C     0.17691   0.94438   0.74132   0.00000  Uiso   1.00
C1267  C     0.18854   0.81168   0.64373   0.00000  Uiso   1.00
C1268  C     0.14438   0.85364   0.85669   0.00000  Uiso   1.00
C1269  C     0.12842   0.85551   0.90079   0.00000  Uiso   1.00
C1270  C     0.19899   0.80136   0.60045   0.00000  Uiso   1.00
C1271  C     0.07336   0.86447   0.96401   0.00000  Uiso   1.00
C1272  C     0.08786   0.86916   0.92329   0.00000  Uiso   1.00
C1273  C     0.15263   0.83831   0.92038   0.00000  Uiso   1.00
C1274  C     0.13578   0.82922   0.96000   0.00000  Uiso   1.00
C1275  C     0.09695   0.84518   0.98235   0.00000  Uiso   1.00
C1276  C     0.15801   0.80743   0.97887   0.00000  Uiso   1.00
C1277  C     0.14727   0.81211   0.52111   0.00000  Uiso   1.00
C1278  C     0.10775   0.82773   0.54246   0.00000  Uiso   1.00
C1279  C     0.08246   0.84269   0.52314   0.00000  Uiso   1.00
C1280  C     0.18882   0.77951   0.95792   0.00000  Uiso   1.00
C1281  C     0.21698   0.76872   0.97728   0.00000  Uiso   1.00
C1282  C     0.21237   0.78006   0.51811   0.00000  Uiso   1.00
C1283  C     0.17591   0.80050   0.54056   0.00000  Uiso   1.00
C1284  C     0.24238   0.76999   0.53717   0.00000  Uiso   1.00
C1285  C     0.23622   0.78224   0.57863   0.00000  Uiso   1.00
C1286  C     0.16995   0.81030   0.58162   0.00000  Uiso   1.00
H1287  H     0.05231   0.85420   0.54056   0.00000  Uiso   1.00
H1288  H     0.14361   0.82680   0.60004   0.00000  Uiso   1.00
H1289  H     0.24215   0.75040   0.95959   0.00000  Uiso   1.00
H1290  H     0.04331   0.87603   0.98170   0.00000  Uiso   1.00
H1291  H     0.18559   0.83377   0.90473   0.00000  Uiso   1.00
H1292  H     0.09464   0.82761   0.57413   0.00000  Uiso   1.00
C1293  C     0.32705   0.84298   0.73767   0.00000  Uiso   1.00
H1294  H     0.01675   0.86050   0.71498   0.00000  Uiso   1.00
C1295  C     0.00709   0.82398   0.76224   0.00000  Uiso   1.00
H1296  H     0.31805   0.80632   0.78514   0.00000  Uiso   1.00
C1297  C     0.18101   0.98885   0.73800   0.00000  Uiso   1.00
H1298  H     0.20811   0.66949   0.71570   0.00000  Uiso   1.00
C1299  C     0.15165   0.67872   0.76221   0.00000  Uiso   1.00
H1300  H     0.12418   0.99884   0.78459   0.00000  Uiso   1.00
C1301  C     0.28059   0.74629   0.51359   0.00000  Uiso   1.00
C1302  C     0.31802   0.77572   0.99108   0.00000  Uiso   1.00
H1303  H     0.30814   0.79077   0.96934   0.00000  Uiso   1.00
H1304  H     0.32898   0.80046   0.51221   0.00000  Uiso   1.00
H1305  H     0.01224   0.75788   0.97479   0.00000  Uiso   1.00
H1306  H     0.29262   0.72957   0.53263   0.00000  Uiso   1.00
H1307  H     0.27081   0.72025   0.99302   0.00000  Uiso   1.00
C1308  C     0.26861   0.77501   0.60004   0.00000  Uiso   1.00
C1309  C     0.25578   0.73374   0.61866   0.00000  Uiso   1.00
H1310  H     0.22417   0.73428   0.64160   0.00000  Uiso   1.00
H1311  H     0.25331   0.70714   0.59572   0.00000  Uiso   1.00
H1312  H     0.28054   0.72884   0.63304   0.00000  Uiso   1.00
H1313  H     0.30201   0.77605   0.58017   0.00000  Uiso   1.00
H1314  H     0.27124   0.80076   0.62362   0.00000  Uiso   1.00
C1315  C     0.05903   0.88917   0.90608   0.00000  Uiso   1.00
C1316  C     0.07541   0.93517   0.90102   0.00000  Uiso   1.00
H1317  H     0.10931   0.93906   0.88223   0.00000  Uiso   1.00
H1318  H     0.05476   0.94847   0.88688   0.00000  Uiso   1.00
H1319  H     0.07382   0.95303   0.93051   0.00000  Uiso   1.00
H1320  H     0.05523   0.87151   0.87790   0.00000  Uiso   1.00
H1321  H     0.02560   0.88791   0.92624   0.00000  Uiso   1.00
C1322  C     0.18773   0.75392   0.91836   0.00000  Uiso   1.00
C1323  C     0.14315   0.73006   0.91990   0.00000  Uiso   1.00
H1324  H     0.13229   0.71085   0.94536   0.00000  Uiso   1.00
H1325  H     0.11892   0.75175   0.92275   0.00000  Uiso   1.00
H1326  H     0.14489   0.70894   0.89205   0.00000  Uiso   1.00
H1327  H     0.19894   0.77239   0.89269   0.00000  Uiso   1.00
H1328  H     0.21065   0.72993   0.91098   0.00000  Uiso   1.00
Zn1329 Zn    0.52577   0.80756   0.78278   0.00000  Uiso   1.00
Zn1330 Zn    0.46792   0.79044   0.72258   0.00000  Uiso   1.00
Zn1331 Zn    0.54500   0.86331   0.71188   0.00000  Uiso   1.00
Zn1332 Zn    0.46131   0.87202   0.78277   0.00000  Uiso   1.00
O1333  O     0.50000   0.83333   0.75000   0.00000  Uiso   1.00
O1334  O     0.40323   0.85627   0.77820   0.00000  Uiso   1.00
O1335  O     0.58773   0.81944   0.76768   0.00000  Uiso   1.00
O1336  O     0.47133   0.73570   0.73607   0.00000  Uiso   1.00
O1337  O     0.53771   0.92193   0.71806   0.00000  Uiso   1.00
O1338  O     0.49027   0.79060   0.66625   0.00000  Uiso   1.00
O1339  O     0.46020   0.87313   0.83749   0.00000  Uiso   1.00
O1340  O     0.54421   0.84159   0.65877   0.00000  Uiso   1.00
O1341  O     0.50532   0.82802   0.83749   0.00000  Uiso   1.00
O1342  O     0.51182   0.74768   0.77821   0.00000  Uiso   1.00
O1343  O     0.47914   0.92803   0.76767   0.00000  Uiso   1.00
O1344  O     0.40785   0.79917   0.73607   0.00000  Uiso   1.00
O1345  O     0.60119   0.85845   0.71806   0.00000  Uiso   1.00
C1346  C     0.38578   0.82649   0.75881   0.00000  Uiso   1.00
C1347  C     0.61445   0.84023   0.74121   0.00000  Uiso   1.00
C1348  C     0.48929   0.72272   0.75893   0.00000  Uiso   1.00
C1349  C     0.51025   0.94438   0.74132   0.00000  Uiso   1.00
C1350  C     0.52187   0.81168   0.64373   0.00000  Uiso   1.00
C1351  C     0.47772   0.85364   0.85669   0.00000  Uiso   1.00
C1352  C     0.46175   0.85551   0.90079   0.00000  Uiso   1.00
C1353  C     0.53232   0.80136   0.60045   0.00000  Uiso   1.00
C1354  C     0.40669   0.86447   0.96401   0.00000  Uiso   1.00
C1355  C     0.42119   0.86916   0.92329   0.00000  Uiso   1.00
C1356  C     0.48596   0.83831   0.92038   0.00000  Uiso   1.00
C1357  C     0.46911   0.82922   0.96000   0.00000  Uiso   1.00
C1358  C     0.43028   0.84518   0.98235   0.00000  Uiso   1.00
C1359  C     0.49135   0.80743   0.97887   0.00000  Uiso   1.00
C1360  C     0.48061   0.81211   0.52111   0.00000  Uiso   1.00
C1361  C     0.44108   0.82773   0.54246   0.00000  Uiso   1.00
C1362  C     0.41579   0.84269   0.52314   0.00000  Uiso   1.00
C1363  C     0.52216   0.77951   0.95792   0.00000  Uiso   1.00
C1364  C     0.55031   0.76872   0.97728   0.00000  Uiso   1.00
C1365  C     0.54570   0.78006   0.51811   0.00000  Uiso   1.00
C1366  C     0.50925   0.80050   0.54056   0.00000  Uiso   1.00
C1367  C     0.57571   0.76999   0.53717   0.00000  Uiso   1.00
C1368  C     0.56956   0.78224   0.57863   0.00000  Uiso   1.00
C1369  C     0.50328   0.81030   0.58162   0.00000  Uiso   1.00
H1370  H     0.38564   0.85420   0.54056   0.00000  Uiso   1.00
H1371  H     0.47694   0.82680   0.60004   0.00000  Uiso   1.00
H1372  H     0.57548   0.75040   0.95959   0.00000  Uiso   1.00
H1373  H     0.37664   0.87603   0.98170   0.00000  Uiso   1.00
H1374  H     0.51893   0.83377   0.90473   0.00000  Uiso   1.00
H1375  H     0.42798   0.82761   0.57413   0.00000  Uiso   1.00
C1376  C     0.66038   0.84298   0.73767   0.00000  Uiso   1.00
H1377  H     0.35009   0.86050   0.71498   0.00000  Uiso   1.00
C1378  C     0.34042   0.82398   0.76224   0.00000  Uiso   1.00
H1379  H     0.65139   0.80632   0.78514   0.00000  Uiso   1.00
C1380  C     0.51434   0.98885   0.73800   0.00000  Uiso   1.00
H1381  H     0.54144   0.66949   0.71570   0.00000  Uiso   1.00
C1382  C     0.48499   0.67872   0.76221   0.00000  Uiso   1.00
H1383  H     0.45751   0.99884   0.78459   0.00000  Uiso   1.00
C1384  C     0.61393   0.74629   0.51359   0.00000  Uiso   1.00
C1385  C     0.65135   0.77572   0.99108   0.00000  Uiso   1.00
H1386  H     0.64147   0.79077   0.96934   0.00000  Uiso   1.00
H1387  H     0.66231   0.80046   0.51221   0.00000  Uiso   1.00
H1388  H     0.34557   0.75788   0.97479   0.00000  Uiso   1.00
H1389  H     0.62595   0.72957   0.53263   0.00000  Uiso   1.00
H1390  H     0.60414   0.72025   0.99302   0.00000  Uiso   1.00
C1391  C     0.60195   0.77501   0.60004   0.00000  Uiso   1.00
C1392  C     0.58911   0.73374   0.61866   0.00000  Uiso   1.00
H1393  H     0.55750   0.73428   0.64160   0.00000  Uiso   1.00
H1394  H     0.58665   0.70714   0.59572   0.00000  Uiso   1.00
H1395  H     0.61387   0.72884   0.63304   0.00000  Uiso   1.00
H1396  H     0.63534   0.77605   0.58017   0.00000  Uiso   1.00
H1397  H     0.60457   0.80076   0.62362   0.00000  Uiso   1.00
C1398  C     0.39236   0.88917   0.90608   0.00000  Uiso   1.00
C1399  C     0.40875   0.93517   0.90102   0.00000  Uiso   1.00
H1400  H     0.44264   0.93906   0.88223   0.00000  Uiso   1.00
H1401  H     0.38810   0.94847   0.88688   0.00000  Uiso   1.00
H1402  H     0.40715   0.95303   0.93051   0.00000  Uiso   1.00
H1403  H     0.38856   0.87151   0.87790   0.00000  Uiso   1.00
H1404  H     0.35894   0.88791   0.92624   0.00000  Uiso   1.00
C1405  C     0.52107   0.75392   0.91836   0.00000  Uiso   1.00
C1406  C     0.47648   0.73006   0.91990   0.00000  Uiso   1.00
H1407  H     0.46563   0.71085   0.94536   0.00000  Uiso   1.00
H1408  H     0.45226   0.75175   0.92275   0.00000  Uiso   1.00
H1409  H     0.47822   0.70894   0.89205   0.00000  Uiso   1.00
H1410  H     0.53228   0.77239   0.89269   0.00000  Uiso   1.00
H1411  H     0.54398   0.72993   0.91098   0.00000  Uiso   1.00
Zn1412 Zn    0.85910   0.80756   0.78278   0.00000  Uiso   1.00
Zn1413 Zn    0.80125   0.79044   0.72258   0.00000  Uiso   1.00
Zn1414 Zn    0.87833   0.86331   0.71188   0.00000  Uiso   1.00
Zn1415 Zn    0.79465   0.87202   0.78277   0.00000  Uiso   1.00
O1416  O     0.83333   0.83333   0.75000   0.00000  Uiso   1.00
O1417  O     0.73656   0.85627   0.77820   0.00000  Uiso   1.00
O1418  O     0.92106   0.81944   0.76768   0.00000  Uiso   1.00
O1419  O     0.80467   0.73570   0.73607   0.00000  Uiso   1.00
O1420  O     0.87104   0.92193   0.71806   0.00000  Uiso   1.00
O1421  O     0.82360   0.79060   0.66625   0.00000  Uiso   1.00
O1422  O     0.79354   0.87313   0.83749   0.00000  Uiso   1.00
O1423  O     0.87755   0.84159   0.65877   0.00000  Uiso   1.00
O1424  O     0.83865   0.82802   0.83749   0.00000  Uiso   1.00
O1425  O     0.84515   0.74768   0.77821   0.00000  Uiso   1.00
O1426  O     0.81247   0.92803   0.76767   0.00000  Uiso   1.00
O1427  O     0.74119   0.79917   0.73607   0.00000  Uiso   1.00
O1428  O     0.93452   0.85845   0.71806   0.00000  Uiso   1.00
C1429  C     0.71911   0.82649   0.75881   0.00000  Uiso   1.00
C1430  C     0.94778   0.84023   0.74121   0.00000  Uiso   1.00
C1431  C     0.82262   0.72272   0.75893   0.00000  Uiso   1.00
C1432  C     0.84358   0.94438   0.74132   0.00000  Uiso   1.00
C1433  C     0.85521   0.81168   0.64373   0.00000  Uiso   1.00
C1434  C     0.81105   0.85364   0.85669   0.00000  Uiso   1.00
C1435  C     0.79508   0.85551   0.90079   0.00000  Uiso   1.00
C1436  C     0.86566   0.80136   0.60045   0.00000  Uiso   1.00
C1437  C     0.74003   0.86447   0.96401   0.00000  Uiso   1.00
C1438  C     0.75453   0.86916   0.92329   0.00000  Uiso   1.00
C1439  C     0.81930   0.83831   0.92038   0.00000  Uiso   1.00
C1440  C     0.80245   0.82922   0.96000   0.00000  Uiso   1.00
C1441  C     0.76362   0.84518   0.98235   0.00000  Uiso   1.00
C1442  C     0.82468   0.80743   0.97887   0.00000  Uiso   1.00
C1443  C     0.81394   0.81211   0.52111   0.00000  Uiso   1.00
C1444  C     0.77442   0.82773   0.54246   0.00000  Uiso   1.00
C1445  C     0.74912   0.84269   0.52314   0.00000  Uiso   1.00
C1446  C     0.85549   0.77951   0.95792   0.00000  Uiso   1.00
C1447  C     0.88365   0.76872   0.97728   0.00000  Uiso   1.00
C1448  C     0.87903   0.78006   0.51811   0.00000  Uiso   1.00
C1449  C     0.84258   0.80050   0.54056   0.00000  Uiso   1.00
C1450  C     0.90905   0.76999   0.53717   0.00000  Uiso   1.00
C1451  C     0.90289   0.78224   0.57863   0.00000  Uiso   1.00
C1452  C     0.83661   0.81030   0.58162   0.00000  Uiso   1.00
H1453  H     0.71898   0.85420   0.54056   0.00000  Uiso   1.00
H1454  H     0.81028   0.82680   0.60004   0.00000  Uiso   1.00
H1455  H     0.90882   0.75040   0.95959   0.00000  Uiso   1.00
H1456  H     0.70997   0.87603   0.98170   0.00000  Uiso   1.00
H1457  H     0.85226   0.83377   0.90473   0.00000  Uiso   1.00
H1458  H     0.76131   0.82761   0.57413   0.00000  Uiso   1.00
C1459  C     0.99372   0.84298   0.73767   0.00000  Uiso   1.00
H1460  H     0.68342   0.86050   0.71498   0.00000  Uiso   1.00
C1461  C     0.67376   0.82398   0.76224   0.00000  Uiso   1.00
H1462  H     0.98472   0.80632   0.78514   0.00000  Uiso   1.00
C1463  C     0.84767   0.98885   0.73800   0.00000  Uiso   1.00
H1464  H     0.87478   0.66949   0.71570   0.00000  Uiso   1.00
C1465  C     0.81832   0.67872   0.76221   0.00000  Uiso   1.00
H1466  H     0.79085   0.99884   0.78459   0.00000  Uiso   1.00
C1467  C     0.94726   0.74629   0.51359   0.00000  Uiso   1.00
C1468  C     0.98468   0.77572   0.99108   0.00000  Uiso   1.00
H1469  H     0.97480   0.79077   0.96934   0.00000  Uiso   1.00
H1470  H     0.99564   0.80046   0.51221   0.00000  Uiso   1.00
H1471  H     0.67891   0.75788   0.97479   0.00000  Uiso   1.00
H1472  H     0.95928   0.72957   0.53263   0.00000  Uiso   1.00
H1473  H     0.93748   0.72025   0.99302   0.00000  Uiso   1.00
C1474  C     0.93528   0.77501   0.60004   0.00000  Uiso   1.00
C1475  C     0.92244   0.73374   0.61866   0.00000  Uiso   1.00
H1476  H     0.89084   0.73428   0.64160   0.00000  Uiso   1.00
H1477  H     0.91998   0.70714   0.59572   0.00000  Uiso   1.00
H1478  H     0.94721   0.72884   0.63304   0.00000  Uiso   1.00
H1479  H     0.96867   0.77605   0.58017   0.00000  Uiso   1.00
H1480  H     0.93790   0.80076   0.62362   0.00000  Uiso   1.00
C1481  C     0.72570   0.88917   0.90608   0.00000  Uiso   1.00
C1482  C     0.74208   0.93517   0.90102   0.00000  Uiso   1.00
H1483  H     0.77597   0.93906   0.88223   0.00000  Uiso   1.00
H1484  H     0.72143   0.94847   0.88688   0.00000  Uiso   1.00
H1485  H     0.74049   0.95303   0.93051   0.00000  Uiso   1.00
H1486  H     0.72189   0.87151   0.87790   0.00000  Uiso   1.00
H1487  H     0.69227   0.88791   0.92624   0.00000  Uiso   1.00
C1488  C     0.85440   0.75392   0.91836   0.00000  Uiso   1.00
C1489  C     0.80981   0.73006   0.91990   0.00000  Uiso   1.00
H1490  H     0.79896   0.71085   0.94536   0.00000  Uiso   1.00
H1491  H     0.78559   0.75175   0.92275   0.00000  Uiso   1.00
H1492  H     0.81156   0.70894   0.89205   0.00000  Uiso   1.00
H1493  H     0.86561   0.77239   0.89269   0.00000  Uiso   1.00
H1494  H     0.87732   0.72993   0.91098   0.00000  Uiso   1.00
loop_
_geom_bond_atom_site_label_1
_geom_bond_atom_site_label_2
_geom_bond_distance
_geom_bond_site_symmetry_2
_ccdc_geom_bond_type
Zn1    O5      1.949   .     S
Zn1    O13     1.911   .     S
Zn1    O7      1.924   .     S
Zn1    O14     1.928   .     S
Zn2    O16     1.927   .     S
Zn2    O5      1.936   .     S
Zn2    O10     1.913   .     S
Zn2    O8      1.934   .     S
Zn3    O12     1.918   .     S
Zn3    O9      1.931   .     S
Zn3    O5      1.926   .     S
Zn3    O17     1.935   .     S
Zn4    O6      1.930   .     S
Zn4    O11     1.921   .     S
Zn4    O5      1.930   .     S
Zn4    O15     1.929   .     S
O6     C18     1.267   .     A
O7     C19     1.273   .     A
O8     C20     1.272   .     A
O9     C21     1.268   .     A
O10    C22     1.277   .     A
O11    C23     1.282   .     A
O12    C22     1.275   .     A
O13    C23     1.293   .     A
O14    C20     1.272   .     A
O15    C21     1.268   .     A
O16    C18     1.267   .     A
O17    C19     1.276   .     A
C18    C50     1.436   .     S
C19    C48     1.453   .     S
C20    C54     1.435   .     S
C21    C52     1.451   .     S
C22    C25     1.469   .     S
C23    C24     1.490   .     S
C24    C27     1.427   .     A
C24    C28     1.405   .     A
C25    C40     1.413   .     A
C25    C41     1.387   .     A
C26    C27     1.402   .     A
C26    H45     1.085   .     S
C26    C30     1.397   .     A
C27    C70     1.517   .     S
C28    H46     1.076   .     S
C28    C29     1.405   .     A
C29    C30     1.411   .     A
C29    C31     1.428   .     A
C30    C781    1.392   .     S
C31    C35     1.425   .     A
C31    C779    1.423   .     S
C32    C38     1.427   .     A
C32    C33     1.416   .     A
C32    C778    1.423   1_554 S
C33    C34     1.387   .     A
C33    H47     1.077   .     S
C34    H42     1.084   .     S
C34    C777    1.392   1_554 S
C35    C36     1.400   .     A
C35    C77     1.531   .     S
C36    H44     1.077   .     S
C36    C784    1.409   .     S
C37    C38     1.421   .     A
C37    C39     1.434   .     A
C37    C783    1.409   1_554 S
C38    C41     1.405   .     A
C39    C40     1.427   .     A
C39    C56     1.530   .     S
C40    C63     1.526   .     S
C41    H43     1.078   .     S
C48    H132    1.088   .     S
C48    C133    1.334   .     S
H49    C214    1.088   1_455 S
C50    C214    1.334   1_455 S
C50    H217    1.086   1_455 S
H51    C133    1.086   .     S
C52    H302    1.088   .     S
C52    C303    1.332   .     S
H53    C550    1.088   1_545 S
C54    C550    1.332   1_545 S
C54    H553    1.086   1_545 S
H55    C303    1.086   .     S
C56    H61     1.106   .     S
C56    C804    1.529   1_554 S
C56    H809    1.108   1_554 S
C57    H58     1.110   .     S
C57    C803    1.529   .     S
C57    H806    1.110   .     S
C57    H143    1.111   .     S
H59    C804    1.110   1_554 S
H60    C223    1.111   1_455 S
H62    C803    1.108   .     S
C63    H69     1.108   .     S
C63    H68     1.108   .     S
C63    C64     1.528   .     S
C64    H67     1.110   .     S
C64    H66     1.110   .     S
C64    H65     1.110   .     S
C70    C71     1.529   .     S
C70    H76     1.112   .     S
C70    H75     1.108   .     S
C71    H73     1.110   .     S
C71    H74     1.111   .     S
C71    H72     1.109   .     S
C77    C78     1.530   .     S
C77    H83     1.112   .     S
C77    H82     1.102   .     S
C78    H80     1.109   .     S
C78    H79     1.111   .     S
C78    H81     1.111   .     S
Zn84   O88     1.949   .     S
Zn84   O96     1.911   .     S
Zn84   O90     1.924   .     S
Zn84   O97     1.928   .     S
Zn85   O99     1.927   .     S
Zn85   O88     1.936   .     S
Zn85   O93     1.913   .     S
Zn85   O91     1.934   .     S
Zn86   O95     1.918   .     S
Zn86   O92     1.931   .     S
Zn86   O88     1.926   .     S
Zn86   O100    1.935   .     S
Zn87   O89     1.930   .     S
Zn87   O94     1.921   .     S
Zn87   O88     1.930   .     S
Zn87   O98     1.929   .     S
O89    C101    1.267   .     A
O90    C102    1.273   .     A
O91    C103    1.272   .     A
O92    C104    1.268   .     A
O93    C105    1.277   .     A
O94    C106    1.282   .     A
O95    C105    1.275   .     A
O96    C106    1.293   .     A
O97    C103    1.272   .     A
O98    C104    1.268   .     A
O99    C101    1.267   .     A
O100   C102    1.276   .     A
C101   C133    1.436   .     S
C102   C131    1.453   .     S
C103   C137    1.435   .     S
C104   C135    1.451   .     S
C105   C108    1.469   .     S
C106   C107    1.490   .     S
C107   C110    1.427   .     A
C107   C111    1.405   .     A
C108   C123    1.413   .     A
C108   C124    1.387   .     A
C109   C110    1.402   .     A
C109   H128    1.085   .     S
C109   C113    1.397   .     A
C110   C153    1.517   .     S
C111   H129    1.076   .     S
C111   C112    1.405   .     A
C112   C113    1.411   .     A
C112   C114    1.428   .     A
C113   C864    1.392   .     S
C114   C118    1.425   .     A
C114   C862    1.423   .     S
C115   C121    1.427   .     A
C115   C116    1.416   .     A
C115   C861    1.423   1_554 S
C116   C117    1.387   .     A
C116   H130    1.077   .     S
C117   H125    1.084   .     S
C117   C860    1.392   1_554 S
C118   C119    1.400   .     A
C118   C160    1.531   .     S
C119   H127    1.077   .     S
C119   C867    1.409   .     S
C120   C121    1.421   .     A
C120   C122    1.434   .     A
C120   C866    1.409   1_554 S
C121   C124    1.405   .     A
C122   C123    1.427   .     A
C122   C139    1.530   .     S
C123   C146    1.526   .     S
C124   H126    1.078   .     S
C131   H215    1.088   .     S
C131   C216    1.334   .     S
H134   C216    1.086   .     S
C135   H385    1.088   .     S
C135   C386    1.332   .     S
H136   C633    1.088   1_545 S
C137   C633    1.332   1_545 S
C137   H636    1.086   1_545 S
H138   C386    1.086   .     S
C139   H144    1.106   .     S
C139   C887    1.529   1_554 S
C139   H892    1.108   1_554 S
C140   H141    1.110   .     S
C140   C886    1.529   .     S
C140   H889    1.110   .     S
C140   H226    1.111   .     S
H142   C887    1.110   1_554 S
H145   C886    1.108   .     S
C146   H152    1.108   .     S
C146   H151    1.108   .     S
C146   C147    1.528   .     S
C147   H150    1.110   .     S
C147   H149    1.110   .     S
C147   H148    1.110   .     S
C153   C154    1.529   .     S
C153   H159    1.112   .     S
C153   H158    1.108   .     S
C154   H156    1.110   .     S
C154   H157    1.111   .     S
C154   H155    1.109   .     S
C160   C161    1.530   .     S
C160   H166    1.112   .     S
C160   H165    1.102   .     S
C161   H163    1.109   .     S
C161   H162    1.111   .     S
C161   H164    1.111   .     S
Zn167  O171    1.949   .     S
Zn167  O179    1.911   .     S
Zn167  O173    1.924   .     S
Zn167  O180    1.928   .     S
Zn168  O182    1.927   .     S
Zn168  O171    1.936   .     S
Zn168  O176    1.913   .     S
Zn168  O174    1.934   .     S
Zn169  O178    1.918   .     S
Zn169  O175    1.931   .     S
Zn169  O171    1.926   .     S
Zn169  O183    1.935   .     S
Zn170  O172    1.930   .     S
Zn170  O177    1.921   .     S
Zn170  O171    1.930   .     S
Zn170  O181    1.929   .     S
O172   C184    1.267   .     A
O173   C185    1.273   .     A
O174   C186    1.272   .     A
O175   C187    1.268   .     A
O176   C188    1.277   .     A
O177   C189    1.282   .     A
O178   C188    1.275   .     A
O179   C189    1.293   .     A
O180   C186    1.272   .     A
O181   C187    1.268   .     A
O182   C184    1.267   .     A
O183   C185    1.276   .     A
C184   C216    1.436   .     S
C185   C214    1.453   .     S
C186   C220    1.435   .     S
C187   C218    1.451   .     S
C188   C191    1.469   .     S
C189   C190    1.490   .     S
C190   C193    1.427   .     A
C190   C194    1.405   .     A
C191   C206    1.413   .     A
C191   C207    1.387   .     A
C192   C193    1.402   .     A
C192   H211    1.085   .     S
C192   C196    1.397   .     A
C193   C236    1.517   .     S
C194   H212    1.076   .     S
C194   C195    1.405   .     A
C195   C196    1.411   .     A
C195   C197    1.428   .     A
C196   C947    1.392   .     S
C197   C201    1.425   .     A
C197   C945    1.423   .     S
C198   C204    1.427   .     A
C198   C199    1.416   .     A
C198   C944    1.423   1_554 S
C199   C200    1.387   .     A
C199   H213    1.077   .     S
C200   H208    1.084   .     S
C200   C943    1.392   1_554 S
C201   C202    1.400   .     A
C201   C243    1.531   .     S
C202   H210    1.077   .     S
C202   C950    1.409   .     S
C203   C204    1.421   .     A
C203   C205    1.434   .     A
C203   C949    1.409   1_554 S
C204   C207    1.405   .     A
C205   C206    1.427   .     A
C205   C222    1.530   .     S
C206   C229    1.526   .     S
C207   H209    1.078   .     S
C214   H49     1.088   1_655 S
C214   C50     1.334   1_655 S
H217   C50     1.086   1_655 S
C218   H468    1.088   .     S
C218   C469    1.332   .     S
H219   C716    1.088   1_545 S
C220   C716    1.332   1_545 S
C220   H719    1.086   1_545 S
H221   C469    1.086   .     S
C222   H227    1.106   .     S
C222   C970    1.529   1_554 S
C222   H975    1.108   1_554 S
C223   H224    1.110   .     S
C223   C969    1.529   .     S
C223   H972    1.110   .     S
C223   H60     1.111   1_655 S
H225   C970    1.110   1_554 S
H228   C969    1.108   .     S
C229   H235    1.108   .     S
C229   H234    1.108   .     S
C229   C230    1.528   .     S
C230   H233    1.110   .     S
C230   H232    1.110   .     S
C230   H231    1.110   .     S
C236   C237    1.529   .     S
C236   H242    1.112   .     S
C236   H241    1.108   .     S
C237   H239    1.110   .     S
C237   H240    1.111   .     S
C237   H238    1.109   .     S
C243   C244    1.530   .     S
C243   H249    1.112   .     S
C243   H248    1.102   .     S
C244   H246    1.109   .     S
C244   H245    1.111   .     S
C244   H247    1.111   .     S
Zn250  O254    1.949   .     S
Zn250  O262    1.911   .     S
Zn250  O256    1.924   .     S
Zn250  O263    1.928   .     S
Zn251  O265    1.927   .     S
Zn251  O254    1.936   .     S
Zn251  O259    1.913   .     S
Zn251  O257    1.934   .     S
Zn252  O261    1.918   .     S
Zn252  O258    1.931   .     S
Zn252  O254    1.926   .     S
Zn252  O266    1.935   .     S
Zn253  O255    1.930   .     S
Zn253  O260    1.921   .     S
Zn253  O254    1.930   .     S
Zn253  O264    1.929   .     S
O255   C267    1.267   .     A
O256   C268    1.273   .     A
O257   C269    1.272   .     A
O258   C270    1.268   .     A
O259   C271    1.277   .     A
O260   C272    1.282   .     A
O261   C271    1.275   .     A
O262   C272    1.293   .     A
O263   C269    1.272   .     A
O264   C270    1.268   .     A
O265   C267    1.267   .     A
O266   C268    1.276   .     A
C267   C299    1.436   .     S
C268   C297    1.453   .     S
C269   C303    1.435   .     S
C270   C301    1.451   .     S
C271   C274    1.469   .     S
C272   C273    1.490   .     S
C273   C276    1.427   .     A
C273   C277    1.405   .     A
C274   C289    1.413   .     A
C274   C290    1.387   .     A
C275   C276    1.402   .     A
C275   H294    1.085   .     S
C275   C279    1.397   .     A
C276   C319    1.517   .     S
C277   H295    1.076   .     S
C277   C278    1.405   .     A
C278   C279    1.411   .     A
C278   C280    1.428   .     A
C279   C1030   1.392   .     S
C280   C284    1.425   .     A
C280   C1028   1.423   .     S
C281   C287    1.427   .     A
C281   C282    1.416   .     A
C281   C1027   1.423   1_554 S
C282   C283    1.387   .     A
C282   H296    1.077   .     S
C283   H291    1.084   .     S
C283   C1026   1.392   1_554 S
C284   C285    1.400   .     A
C284   C326    1.531   .     S
C285   H293    1.077   .     S
C285   C1033   1.409   .     S
C286   C287    1.421   .     A
C286   C288    1.434   .     A
C286   C1032   1.409   1_554 S
C287   C290    1.405   .     A
C288   C289    1.427   .     A
C288   C305    1.530   .     S
C289   C312    1.526   .     S
C290   H292    1.078   .     S
C297   H381    1.088   .     S
C297   C382    1.334   .     S
H298   C463    1.088   1_455 S
C299   C463    1.334   1_455 S
C299   H466    1.086   1_455 S
H300   C382    1.086   .     S
C301   H551    1.088   .     S
C301   C552    1.332   .     S
H304   C552    1.086   .     S
C305   H310    1.106   .     S
C305   C1053   1.529   1_554 S
C305   H1058   1.108   1_554 S
C306   H307    1.110   .     S
C306   C1052   1.529   .     S
C306   H1055   1.110   .     S
C306   H392    1.111   .     S
H308   C1053   1.110   1_554 S
H309   C472    1.111   1_455 S
H311   C1052   1.108   .     S
C312   H318    1.108   .     S
C312   H317    1.108   .     S
C312   C313    1.528   .     S
C313   H316    1.110   .     S
C313   H315    1.110   .     S
C313   H314    1.110   .     S
C319   C320    1.529   .     S
C319   H325    1.112   .     S
C319   H324    1.108   .     S
C320   H322    1.110   .     S
C320   H323    1.111   .     S
C320   H321    1.109   .     S
C326   C327    1.530   .     S
C326   H332    1.112   .     S
C326   H331    1.102   .     S
C327   H329    1.109   .     S
C327   H328    1.111   .     S
C327   H330    1.111   .     S
Zn333  O337    1.949   .     S
Zn333  O345    1.911   .     S
Zn333  O339    1.924   .     S
Zn333  O346    1.928   .     S
Zn334  O348    1.927   .     S
Zn334  O337    1.936   .     S
Zn334  O342    1.913   .     S
Zn334  O340    1.934   .     S
Zn335  O344    1.918   .     S
Zn335  O341    1.931   .     S
Zn335  O337    1.926   .     S
Zn335  O349    1.935   .     S
Zn336  O338    1.930   .     S
Zn336  O343    1.921   .     S
Zn336  O337    1.930   .     S
Zn336  O347    1.929   .     S
O338   C350    1.267   .     A
O339   C351    1.273   .     A
O340   C352    1.272   .     A
O341   C353    1.268   .     A
O342   C354    1.277   .     A
O343   C355    1.282   .     A
O344   C354    1.275   .     A
O345   C355    1.293   .     A
O346   C352    1.272   .     A
O347   C353    1.268   .     A
O348   C350    1.267   .     A
O349   C351    1.276   .     A
C350   C382    1.436   .     S
C351   C380    1.453   .     S
C352   C386    1.435   .     S
C353   C384    1.451   .     S
C354   C357    1.469   .     S
C355   C356    1.490   .     S
C356   C359    1.427   .     A
C356   C360    1.405   .     A
C357   C372    1.413   .     A
C357   C373    1.387   .     A
C358   C359    1.402   .     A
C358   H377    1.085   .     S
C358   C362    1.397   .     A
C359   C402    1.517   .     S
C360   H378    1.076   .     S
C360   C361    1.405   .     A
C361   C362    1.411   .     A
C361   C363    1.428   .     A
C362   C1113   1.392   .     S
C363   C367    1.425   .     A
C363   C1111   1.423   .     S
C364   C370    1.427   .     A
C364   C365    1.416   .     A
C364   C1110   1.423   1_554 S
C365   C366    1.387   .     A
C365   H379    1.077   .     S
C366   H374    1.084   .     S
C366   C1109   1.392   1_554 S
C367   C368    1.400   .     A
C367   C409    1.531   .     S
C368   H376    1.077   .     S
C368   C1116   1.409   .     S
C369   C370    1.421   .     A
C369   C371    1.434   .     A
C369   C1115   1.409   1_554 S
C370   C373    1.405   .     A
C371   C372    1.427   .     A
C371   C388    1.530   .     S
C372   C395    1.526   .     S
C373   H375    1.078   .     S
C380   H464    1.088   .     S
C380   C465    1.334   .     S
H383   C465    1.086   .     S
C384   H634    1.088   .     S
C384   C635    1.332   .     S
H387   C635    1.086   .     S
C388   H393    1.106   .     S
C388   C1136   1.529   1_554 S
C388   H1141   1.108   1_554 S
C389   H390    1.110   .     S
C389   C1135   1.529   .     S
C389   H1138   1.110   .     S
C389   H475    1.111   .     S
H391   C1136   1.110   1_554 S
H394   C1135   1.108   .     S
C395   H401    1.108   .     S
C395   H400    1.108   .     S
C395   C396    1.528   .     S
C396   H399    1.110   .     S
C396   H398    1.110   .     S
C396   H397    1.110   .     S
C402   C403    1.529   .     S
C402   H408    1.112   .     S
C402   H407    1.108   .     S
C403   H405    1.110   .     S
C403   H406    1.111   .     S
C403   H404    1.109   .     S
C409   C410    1.530   .     S
C409   H415    1.112   .     S
C409   H414    1.102   .     S
C410   H412    1.109   .     S
C410   H411    1.111   .     S
C410   H413    1.111   .     S
Zn416  O420    1.949   .     S
Zn416  O428    1.911   .     S
Zn416  O422    1.924   .     S
Zn416  O429    1.928   .     S
Zn417  O431    1.927   .     S
Zn417  O420    1.936   .     S
Zn417  O425    1.913   .     S
Zn417  O423    1.934   .     S
Zn418  O427    1.918   .     S
Zn418  O424    1.931   .     S
Zn418  O420    1.926   .     S
Zn418  O432    1.935   .     S
Zn419  O421    1.930   .     S
Zn419  O426    1.921   .     S
Zn419  O420    1.930   .     S
Zn419  O430    1.929   .     S
O421   C433    1.267   .     A
O422   C434    1.273   .     A
O423   C435    1.272   .     A
O424   C436    1.268   .     A
O425   C437    1.277   .     A
O426   C438    1.282   .     A
O427   C437    1.275   .     A
O428   C438    1.293   .     A
O429   C435    1.272   .     A
O430   C436    1.268   .     A
O431   C433    1.267   .     A
O432   C434    1.276   .     A
C433   C465    1.436   .     S
C434   C463    1.453   .     S
C435   C469    1.435   .     S
C436   C467    1.451   .     S
C437   C440    1.469   .     S
C438   C439    1.490   .     S
C439   C442    1.427   .     A
C439   C443    1.405   .     A
C440   C455    1.413   .     A
C440   C456    1.387   .     A
C441   C442    1.402   .     A
C441   H460    1.085   .     S
C441   C445    1.397   .     A
C442   C485    1.517   .     S
C443   H461    1.076   .     S
C443   C444    1.405   .     A
C444   C445    1.411   .     A
C444   C446    1.428   .     A
C445   C1196   1.392   .     S
C446   C450    1.425   .     A
C446   C1194   1.423   .     S
C447   C453    1.427   .     A
C447   C448    1.416   .     A
C447   C1193   1.423   1_554 S
C448   C449    1.387   .     A
C448   H462    1.077   .     S
C449   H457    1.084   .     S
C449   C1192   1.392   1_554 S
C450   C451    1.400   .     A
C450   C492    1.531   .     S
C451   H459    1.077   .     S
C451   C1199   1.409   .     S
C452   C453    1.421   .     A
C452   C454    1.434   .     A
C452   C1198   1.409   1_554 S
C453   C456    1.405   .     A
C454   C455    1.427   .     A
C454   C471    1.530   .     S
C455   C478    1.526   .     S
C456   H458    1.078   .     S
C463   H298    1.088   1_655 S
C463   C299    1.334   1_655 S
H466   C299    1.086   1_655 S
C467   H717    1.088   .     S
C467   C718    1.332   .     S
H470   C718    1.086   .     S
C471   H476    1.106   .     S
C471   C1219   1.529   1_554 S
C471   H1224   1.108   1_554 S
C472   H473    1.110   .     S
C472   C1218   1.529   .     S
C472   H1221   1.110   .     S
C472   H309    1.111   1_655 S
H474   C1219   1.110   1_554 S
H477   C1218   1.108   .     S
C478   H484    1.108   .     S
C478   H483    1.108   .     S
C478   C479    1.528   .     S
C479   H482    1.110   .     S
C479   H481    1.110   .     S
C479   H480    1.110   .     S
C485   C486    1.529   .     S
C485   H491    1.112   .     S
C485   H490    1.108   .     S
C486   H488    1.110   .     S
C486   H489    1.111   .     S
C486   H487    1.109   .     S
C492   C493    1.530   .     S
C492   H498    1.112   .     S
C492   H497    1.102   .     S
C493   H495    1.109   .     S
C493   H494    1.111   .     S
C493   H496    1.111   .     S
Zn499  O503    1.949   .     S
Zn499  O511    1.911   .     S
Zn499  O505    1.924   .     S
Zn499  O512    1.928   .     S
Zn500  O514    1.927   .     S
Zn500  O503    1.936   .     S
Zn500  O508    1.913   .     S
Zn500  O506    1.934   .     S
Zn501  O510    1.918   .     S
Zn501  O507    1.931   .     S
Zn501  O503    1.926   .     S
Zn501  O515    1.935   .     S
Zn502  O504    1.930   .     S
Zn502  O509    1.921   .     S
Zn502  O503    1.930   .     S
Zn502  O513    1.929   .     S
O504   C516    1.267   .     A
O505   C517    1.273   .     A
O506   C518    1.272   .     A
O507   C519    1.268   .     A
O508   C520    1.277   .     A
O509   C521    1.282   .     A
O510   C520    1.275   .     A
O511   C521    1.293   .     A
O512   C518    1.272   .     A
O513   C519    1.268   .     A
O514   C516    1.267   .     A
O515   C517    1.276   .     A
C516   C548    1.436   .     S
C517   C546    1.453   .     S
C518   C552    1.435   .     S
C519   C550    1.451   .     S
C520   C523    1.469   .     S
C521   C522    1.490   .     S
C522   C525    1.427   .     A
C522   C526    1.405   .     A
C523   C538    1.413   .     A
C523   C539    1.387   .     A
C524   C525    1.402   .     A
C524   H543    1.085   .     S
C524   C528    1.397   .     A
C525   C568    1.517   .     S
C526   H544    1.076   .     S
C526   C527    1.405   .     A
C527   C528    1.411   .     A
C527   C529    1.428   .     A
C528   C1279   1.392   .     S
C529   C533    1.425   .     A
C529   C1277   1.423   .     S
C530   C536    1.427   .     A
C530   C531    1.416   .     A
C530   C1276   1.423   1_554 S
C531   C532    1.387   .     A
C531   H545    1.077   .     S
C532   H540    1.084   .     S
C532   C1275   1.392   1_554 S
C533   C534    1.400   .     A
C533   C575    1.531   .     S
C534   H542    1.077   .     S
C534   C1282   1.409   .     S
C535   C536    1.421   .     A
C535   C537    1.434   .     A
C535   C1281   1.409   1_554 S
C536   C539    1.405   .     A
C537   C538    1.427   .     A
C537   C554    1.530   .     S
C538   C561    1.526   .     S
C539   H541    1.078   .     S
C546   H630    1.088   .     S
C546   C631    1.334   .     S
H547   C712    1.088   1_455 S
C548   C712    1.334   1_455 S
C548   H715    1.086   1_455 S
H549   C631    1.086   .     S
C550   H53     1.088   1_565 S
C550   C54     1.332   1_565 S
H553   C54     1.086   1_565 S
C554   H559    1.106   .     S
C554   C1302   1.529   1_554 S
C554   H1307   1.108   1_554 S
C555   H556    1.110   .     S
C555   C1301   1.529   .     S
C555   H1304   1.110   .     S
C555   H641    1.111   .     S
H557   C1302   1.110   1_554 S
H558   C721    1.111   1_455 S
H560   C1301   1.108   .     S
C561   H567    1.108   .     S
C561   H566    1.108   .     S
C561   C562    1.528   .     S
C562   H565    1.110   .     S
C562   H564    1.110   .     S
C562   H563    1.110   .     S
C568   C569    1.529   .     S
C568   H574    1.112   .     S
C568   H573    1.108   .     S
C569   H571    1.110   .     S
C569   H572    1.111   .     S
C569   H570    1.109   .     S
C575   C576    1.530   .     S
C575   H581    1.112   .     S
C575   H580    1.102   .     S
C576   H578    1.109   .     S
C576   H577    1.111   .     S
C576   H579    1.111   .     S
Zn582  O586    1.949   .     S
Zn582  O594    1.911   .     S
Zn582  O588    1.924   .     S
Zn582  O595    1.928   .     S
Zn583  O597    1.927   .     S
Zn583  O586    1.936   .     S
Zn583  O591    1.913   .     S
Zn583  O589    1.934   .     S
Zn584  O593    1.918   .     S
Zn584  O590    1.931   .     S
Zn584  O586    1.926   .     S
Zn584  O598    1.935   .     S
Zn585  O587    1.930   .     S
Zn585  O592    1.921   .     S
Zn585  O586    1.930   .     S
Zn585  O596    1.929   .     S
O587   C599    1.267   .     A
O588   C600    1.273   .     A
O589   C601    1.272   .     A
O590   C602    1.268   .     A
O591   C603    1.277   .     A
O592   C604    1.282   .     A
O593   C603    1.275   .     A
O594   C604    1.293   .     A
O595   C601    1.272   .     A
O596   C602    1.268   .     A
O597   C599    1.267   .     A
O598   C600    1.276   .     A
C599   C631    1.436   .     S
C600   C629    1.453   .     S
C601   C635    1.435   .     S
C602   C633    1.451   .     S
C603   C606    1.469   .     S
C604   C605    1.490   .     S
C605   C608    1.427   .     A
C605   C609    1.405   .     A
C606   C621    1.413   .     A
C606   C622    1.387   .     A
C607   C608    1.402   .     A
C607   H626    1.085   .     S
C607   C611    1.397   .     A
C608   C651    1.517   .     S
C609   H627    1.076   .     S
C609   C610    1.405   .     A
C610   C611    1.411   .     A
C610   C612    1.428   .     A
C611   C1362   1.392   .     S
C612   C616    1.425   .     A
C612   C1360   1.423   .     S
C613   C619    1.427   .     A
C613   C614    1.416   .     A
C613   C1359   1.423   1_554 S
C614   C615    1.387   .     A
C614   H628    1.077   .     S
C615   H623    1.084   .     S
C615   C1358   1.392   1_554 S
C616   C617    1.400   .     A
C616   C658    1.531   .     S
C617   H625    1.077   .     S
C617   C1365   1.409   .     S
C618   C619    1.421   .     A
C618   C620    1.434   .     A
C618   C1364   1.409   1_554 S
C619   C622    1.405   .     A
C620   C621    1.427   .     A
C620   C637    1.530   .     S
C621   C644    1.526   .     S
C622   H624    1.078   .     S
C629   H713    1.088   .     S
C629   C714    1.334   .     S
H632   C714    1.086   .     S
C633   H136    1.088   1_565 S
C633   C137    1.332   1_565 S
H636   C137    1.086   1_565 S
C637   H642    1.106   .     S
C637   C1385   1.529   1_554 S
C637   H1390   1.108   1_554 S
C638   H639    1.110   .     S
C638   C1384   1.529   .     S
C638   H1387   1.110   .     S
C638   H724    1.111   .     S
H640   C1385   1.110   1_554 S
H643   C1384   1.108   .     S
C644   H650    1.108   .     S
C644   H649    1.108   .     S
C644   C645    1.528   .     S
C645   H648    1.110   .     S
C645   H647    1.110   .     S
C645   H646    1.110   .     S
C651   C652    1.529   .     S
C651   H657    1.112   .     S
C651   H656    1.108   .     S
C652   H654    1.110   .     S
C652   H655    1.111   .     S
C652   H653    1.109   .     S
C658   C659    1.530   .     S
C658   H664    1.112   .     S
C658   H663    1.102   .     S
C659   H661    1.109   .     S
C659   H660    1.111   .     S
C659   H662    1.111   .     S
Zn665  O669    1.949   .     S
Zn665  O677    1.911   .     S
Zn665  O671    1.924   .     S
Zn665  O678    1.928   .     S
Zn666  O680    1.927   .     S
Zn666  O669    1.936   .     S
Zn666  O674    1.913   .     S
Zn666  O672    1.934   .     S
Zn667  O676    1.918   .     S
Zn667  O673    1.931   .     S
Zn667  O669    1.926   .     S
Zn667  O681    1.935   .     S
Zn668  O670    1.930   .     S
Zn668  O675    1.921   .     S
Zn668  O669    1.930   .     S
Zn668  O679    1.929   .     S
O670   C682    1.267   .     A
O671   C683    1.273   .     A
O672   C684    1.272   .     A
O673   C685    1.268   .     A
O674   C686    1.277   .     A
O675   C687    1.282   .     A
O676   C686    1.275   .     A
O677   C687    1.293   .     A
O678   C684    1.272   .     A
O679   C685    1.268   .     A
O680   C682    1.267   .     A
O681   C683    1.276   .     A
C682   C714    1.436   .     S
C683   C712    1.453   .     S
C684   C718    1.435   .     S
C685   C716    1.451   .     S
C686   C689    1.469   .     S
C687   C688    1.490   .     S
C688   C691    1.427   .     A
C688   C692    1.405   .     A
C689   C704    1.413   .     A
C689   C705    1.387   .     A
C690   C691    1.402   .     A
C690   H709    1.085   .     S
C690   C694    1.397   .     A
C691   C734    1.517   .     S
C692   H710    1.076   .     S
C692   C693    1.405   .     A
C693   C694    1.411   .     A
C693   C695    1.428   .     A
C694   C1445   1.392   .     S
C695   C699    1.425   .     A
C695   C1443   1.423   .     S
C696   C702    1.427   .     A
C696   C697    1.416   .     A
C696   C1442   1.423   1_554 S
C697   C698    1.387   .     A
C697   H711    1.077   .     S
C698   H706    1.084   .     S
C698   C1441   1.392   1_554 S
C699   C700    1.400   .     A
C699   C741    1.531   .     S
C700   H708    1.077   .     S
C700   C1448   1.409   .     S
C701   C702    1.421   .     A
C701   C703    1.434   .     A
C701   C1447   1.409   1_554 S
C702   C705    1.405   .     A
C703   C704    1.427   .     A
C703   C720    1.530   .     S
C704   C727    1.526   .     S
C705   H707    1.078   .     S
C712   H547    1.088   1_655 S
C712   C548    1.334   1_655 S
H715   C548    1.086   1_655 S
C716   H219    1.088   1_565 S
C716   C220    1.332   1_565 S
H719   C220    1.086   1_565 S
C720   H725    1.106   .     S
C720   C1468   1.529   1_554 S
C720   H1473   1.108   1_554 S
C721   H722    1.110   .     S
C721   C1467   1.529   .     S
C721   H1470   1.110   .     S
C721   H558    1.111   1_655 S
H723   C1468   1.110   1_554 S
H726   C1467   1.108   .     S
C727   H733    1.108   .     S
C727   H732    1.108   .     S
C727   C728    1.528   .     S
C728   H731    1.110   .     S
C728   H730    1.110   .     S
C728   H729    1.110   .     S
C734   C735    1.529   .     S
C734   H740    1.112   .     S
C734   H739    1.108   .     S
C735   H737    1.110   .     S
C735   H738    1.111   .     S
C735   H736    1.109   .     S
C741   C742    1.530   .     S
C741   H747    1.112   .     S
C741   H746    1.102   .     S
C742   H744    1.109   .     S
C742   H743    1.111   .     S
C742   H745    1.111   .     S
Zn748  O752    1.949   .     S
Zn748  O760    1.911   .     S
Zn748  O754    1.924   .     S
Zn748  O761    1.928   .     S
Zn749  O763    1.927   .     S
Zn749  O752    1.936   .     S
Zn749  O757    1.913   .     S
Zn749  O755    1.934   .     S
Zn750  O759    1.918   .     S
Zn750  O756    1.931   .     S
Zn750  O752    1.926   .     S
Zn750  O764    1.935   .     S
Zn751  O753    1.930   .     S
Zn751  O758    1.921   .     S
Zn751  O752    1.930   .     S
Zn751  O762    1.929   .     S
O753   C765    1.267   .     A
O754   C766    1.273   .     A
O755   C767    1.272   .     A
O756   C768    1.268   .     A
O757   C769    1.277   .     A
O758   C770    1.282   .     A
O759   C769    1.275   .     A
O760   C770    1.293   .     A
O761   C767    1.272   .     A
O762   C768    1.268   .     A
O763   C765    1.267   .     A
O764   C766    1.276   .     A
C765   C797    1.436   .     S
C766   C795    1.453   .     S
C767   C801    1.435   .     S
C768   C799    1.451   .     S
C769   C772    1.469   .     S
C770   C771    1.490   .     S
C771   C774    1.427   .     A
C771   C775    1.405   .     A
C772   C787    1.413   .     A
C772   C788    1.387   .     A
C773   C774    1.402   .     A
C773   H792    1.085   .     S
C773   C777    1.397   .     A
C774   C817    1.517   .     S
C775   H793    1.076   .     S
C775   C776    1.405   .     A
C776   C777    1.411   .     A
C776   C778    1.428   .     A
C777   C34     1.392   1_556 S
C778   C782    1.425   .     A
C778   C32     1.423   1_556 S
C779   C785    1.427   .     A
C779   C780    1.416   .     A
C780   C781    1.387   .     A
C780   H794    1.077   .     S
C781   H789    1.084   .     S
C782   C783    1.400   .     A
C782   C824    1.531   .     S
C783   H791    1.077   .     S
C783   C37     1.409   1_556 S
C784   C785    1.421   .     A
C784   C786    1.434   .     A
C785   C788    1.405   .     A
C786   C787    1.427   .     A
C786   C803    1.530   .     S
C787   C810    1.526   .     S
C788   H790    1.078   .     S
C795   H879    1.088   .     S
C795   C880    1.334   .     S
H796   C961    1.088   1_455 S
C797   C961    1.334   1_455 S
C797   H964    1.086   1_455 S
H798   C880    1.086   .     S
C799   H1049   1.088   .     S
C799   C1050   1.332   .     S
H800   C1297   1.088   1_545 S
C801   C1297   1.332   1_545 S
C801   H1300   1.086   1_545 S
H802   C1050   1.086   .     S
C803   H808    1.106   .     S
C804   H805    1.110   .     S
C804   C56     1.529   1_556 S
C804   H59     1.110   1_556 S
C804   H890    1.111   .     S
H807   C970    1.111   1_455 S
H809   C56     1.108   1_556 S
C810   H816    1.108   .     S
C810   H815    1.108   .     S
C810   C811    1.528   .     S
C811   H814    1.110   .     S
C811   H813    1.110   .     S
C811   H812    1.110   .     S
C817   C818    1.529   .     S
C817   H823    1.112   .     S
C817   H822    1.108   .     S
C818   H820    1.110   .     S
C818   H821    1.111   .     S
C818   H819    1.109   .     S
C824   C825    1.530   .     S
C824   H830    1.112   .     S
C824   H829    1.102   .     S
C825   H827    1.109   .     S
C825   H826    1.111   .     S
C825   H828    1.111   .     S
Zn831  O835    1.949   .     S
Zn831  O843    1.911   .     S
Zn831  O837    1.924   .     S
Zn831  O844    1.928   .     S
Zn832  O846    1.927   .     S
Zn832  O835    1.936   .     S
Zn832  O840    1.913   .     S
Zn832  O838    1.934   .     S
Zn833  O842    1.918   .     S
Zn833  O839    1.931   .     S
Zn833  O835    1.926   .     S
Zn833  O847    1.935   .     S
Zn834  O836    1.930   .     S
Zn834  O841    1.921   .     S
Zn834  O835    1.930   .     S
Zn834  O845    1.929   .     S
O836   C848    1.267   .     A
O837   C849    1.273   .     A
O838   C850    1.272   .     A
O839   C851    1.268   .     A
O840   C852    1.277   .     A
O841   C853    1.282   .     A
O842   C852    1.275   .     A
O843   C853    1.293   .     A
O844   C850    1.272   .     A
O845   C851    1.268   .     A
O846   C848    1.267   .     A
O847   C849    1.276   .     A
C848   C880    1.436   .     S
C849   C878    1.453   .     S
C850   C884    1.435   .     S
C851   C882    1.451   .     S
C852   C855    1.469   .     S
C853   C854    1.490   .     S
C854   C857    1.427   .     A
C854   C858    1.405   .     A
C855   C870    1.413   .     A
C855   C871    1.387   .     A
C856   C857    1.402   .     A
C856   H875    1.085   .     S
C856   C860    1.397   .     A
C857   C900    1.517   .     S
C858   H876    1.076   .     S
C858   C859    1.405   .     A
C859   C860    1.411   .     A
C859   C861    1.428   .     A
C860   C117    1.392   1_556 S
C861   C865    1.425   .     A
C861   C115    1.423   1_556 S
C862   C868    1.427   .     A
C862   C863    1.416   .     A
C863   C864    1.387   .     A
C863   H877    1.077   .     S
C864   H872    1.084   .     S
C865   C866    1.400   .     A
C865   C907    1.531   .     S
C866   H874    1.077   .     S
C866   C120    1.409   1_556 S
C867   C868    1.421   .     A
C867   C869    1.434   .     A
C868   C871    1.405   .     A
C869   C870    1.427   .     A
C869   C886    1.530   .     S
C870   C893    1.526   .     S
C871   H873    1.078   .     S
C878   H962    1.088   .     S
C878   C963    1.334   .     S
H881   C963    1.086   .     S
C882   H1132   1.088   .     S
C882   C1133   1.332   .     S
H883   C1380   1.088   1_545 S
C884   C1380   1.332   1_545 S
C884   H1383   1.086   1_545 S
H885   C1133   1.086   .     S
C886   H891    1.106   .     S
C887   H888    1.110   .     S
C887   C139    1.529   1_556 S
C887   H142    1.110   1_556 S
C887   H973    1.111   .     S
H892   C139    1.108   1_556 S
C893   H899    1.108   .     S
C893   H898    1.108   .     S
C893   C894    1.528   .     S
C894   H897    1.110   .     S
C894   H896    1.110   .     S
C894   H895    1.110   .     S
C900   C901    1.529   .     S
C900   H906    1.112   .     S
C900   H905    1.108   .     S
C901   H903    1.110   .     S
C901   H904    1.111   .     S
C901   H902    1.109   .     S
C907   C908    1.530   .     S
C907   H913    1.112   .     S
C907   H912    1.102   .     S
C908   H910    1.109   .     S
C908   H909    1.111   .     S
C908   H911    1.111   .     S
Zn914  O918    1.949   .     S
Zn914  O926    1.911   .     S
Zn914  O920    1.924   .     S
Zn914  O927    1.928   .     S
Zn915  O929    1.927   .     S
Zn915  O918    1.936   .     S
Zn915  O923    1.913   .     S
Zn915  O921    1.934   .     S
Zn916  O925    1.918   .     S
Zn916  O922    1.931   .     S
Zn916  O918    1.926   .     S
Zn916  O930    1.935   .     S
Zn917  O919    1.930   .     S
Zn917  O924    1.921   .     S
Zn917  O918    1.930   .     S
Zn917  O928    1.929   .     S
O919   C931    1.267   .     A
O920   C932    1.273   .     A
O921   C933    1.272   .     A
O922   C934    1.268   .     A
O923   C935    1.277   .     A
O924   C936    1.282   .     A
O925   C935    1.275   .     A
O926   C936    1.293   .     A
O927   C933    1.272   .     A
O928   C934    1.268   .     A
O929   C931    1.267   .     A
O930   C932    1.276   .     A
C931   C963    1.436   .     S
C932   C961    1.453   .     S
C933   C967    1.435   .     S
C934   C965    1.451   .     S
C935   C938    1.469   .     S
C936   C937    1.490   .     S
C937   C940    1.427   .     A
C937   C941    1.405   .     A
C938   C953    1.413   .     A
C938   C954    1.387   .     A
C939   C940    1.402   .     A
C939   H958    1.085   .     S
C939   C943    1.397   .     A
C940   C983    1.517   .     S
C941   H959    1.076   .     S
C941   C942    1.405   .     A
C942   C943    1.411   .     A
C942   C944    1.428   .     A
C943   C200    1.392   1_556 S
C944   C948    1.425   .     A
C944   C198    1.423   1_556 S
C945   C951    1.427   .     A
C945   C946    1.416   .     A
C946   C947    1.387   .     A
C946   H960    1.077   .     S
C947   H955    1.084   .     S
C948   C949    1.400   .     A
C948   C990    1.531   .     S
C949   H957    1.077   .     S
C949   C203    1.409   1_556 S
C950   C951    1.421   .     A
C950   C952    1.434   .     A
C951   C954    1.405   .     A
C952   C953    1.427   .     A
C952   C969    1.530   .     S
C953   C976    1.526   .     S
C954   H956    1.078   .     S
C961   H796    1.088   1_655 S
C961   C797    1.334   1_655 S
H964   C797    1.086   1_655 S
C965   H1215   1.088   .     S
C965   C1216   1.332   .     S
H966   C1463   1.088   1_545 S
C967   C1463   1.332   1_545 S
C967   H1466   1.086   1_545 S
H968   C1216   1.086   .     S
C969   H974    1.106   .     S
C970   H971    1.110   .     S
C970   C222    1.529   1_556 S
C970   H225    1.110   1_556 S
C970   H807    1.111   1_655 S
H975   C222    1.108   1_556 S
C976   H982    1.108   .     S
C976   H981    1.108   .     S
C976   C977    1.528   .     S
C977   H980    1.110   .     S
C977   H979    1.110   .     S
C977   H978    1.110   .     S
C983   C984    1.529   .     S
C983   H989    1.112   .     S
C983   H988    1.108   .     S
C984   H986    1.110   .     S
C984   H987    1.111   .     S
C984   H985    1.109   .     S
C990   C991    1.530   .     S
C990   H996    1.112   .     S
C990   H995    1.102   .     S
C991   H993    1.109   .     S
C991   H992    1.111   .     S
C991   H994    1.111   .     S
Zn997  O1001   1.949   .     S
Zn997  O1009   1.911   .     S
Zn997  O1003   1.924   .     S
Zn997  O1010   1.928   .     S
Zn998  O1012   1.927   .     S
Zn998  O1001   1.936   .     S
Zn998  O1006   1.913   .     S
Zn998  O1004   1.934   .     S
Zn999  O1008   1.918   .     S
Zn999  O1005   1.931   .     S
Zn999  O1001   1.926   .     S
Zn999  O1013   1.935   .     S
Zn1000 O1002   1.930   .     S
Zn1000 O1007   1.921   .     S
Zn1000 O1001   1.930   .     S
Zn1000 O1011   1.929   .     S
O1002  C1014   1.267   .     A
O1003  C1015   1.273   .     A
O1004  C1016   1.272   .     A
O1005  C1017   1.268   .     A
O1006  C1018   1.277   .     A
O1007  C1019   1.282   .     A
O1008  C1018   1.275   .     A
O1009  C1019   1.293   .     A
O1010  C1016   1.272   .     A
O1011  C1017   1.268   .     A
O1012  C1014   1.267   .     A
O1013  C1015   1.276   .     A
C1014  C1046   1.436   .     S
C1015  C1044   1.453   .     S
C1016  C1050   1.435   .     S
C1017  C1048   1.451   .     S
C1018  C1021   1.469   .     S
C1019  C1020   1.490   .     S
C1020  C1023   1.427   .     A
C1020  C1024   1.405   .     A
C1021  C1036   1.413   .     A
C1021  C1037   1.387   .     A
C1022  C1023   1.402   .     A
C1022  H1041   1.085   .     S
C1022  C1026   1.397   .     A
C1023  C1066   1.517   .     S
C1024  H1042   1.076   .     S
C1024  C1025   1.405   .     A
C1025  C1026   1.411   .     A
C1025  C1027   1.428   .     A
C1026  C283    1.392   1_556 S
C1027  C1031   1.425   .     A
C1027  C281    1.423   1_556 S
C1028  C1034   1.427   .     A
C1028  C1029   1.416   .     A
C1029  C1030   1.387   .     A
C1029  H1043   1.077   .     S
C1030  H1038   1.084   .     S
C1031  C1032   1.400   .     A
C1031  C1073   1.531   .     S
C1032  H1040   1.077   .     S
C1032  C286    1.409   1_556 S
C1033  C1034   1.421   .     A
C1033  C1035   1.434   .     A
C1034  C1037   1.405   .     A
C1035  C1036   1.427   .     A
C1035  C1052   1.530   .     S
C1036  C1059   1.526   .     S
C1037  H1039   1.078   .     S
C1044  H1128   1.088   .     S
C1044  C1129   1.334   .     S
H1045  C1210   1.088   1_455 S
C1046  C1210   1.334   1_455 S
C1046  H1213   1.086   1_455 S
H1047  C1129   1.086   .     S
C1048  H1298   1.088   .     S
C1048  C1299   1.332   .     S
H1051  C1299   1.086   .     S
C1052  H1057   1.106   .     S
C1053  H1054   1.110   .     S
C1053  C305    1.529   1_556 S
C1053  H308    1.110   1_556 S
C1053  H1139   1.111   .     S
H1056  C1219   1.111   1_455 S
H1058  C305    1.108   1_556 S
C1059  H1065   1.108   .     S
C1059  H1064   1.108   .     S
C1059  C1060   1.528   .     S
C1060  H1063   1.110   .     S
C1060  H1062   1.110   .     S
C1060  H1061   1.110   .     S
C1066  C1067   1.529   .     S
C1066  H1072   1.112   .     S
C1066  H1071   1.108   .     S
C1067  H1069   1.110   .     S
C1067  H1070   1.111   .     S
C1067  H1068   1.109   .     S
C1073  C1074   1.530   .     S
C1073  H1079   1.112   .     S
C1073  H1078   1.102   .     S
C1074  H1076   1.109   .     S
C1074  H1075   1.111   .     S
C1074  H1077   1.111   .     S
Zn1080 O1084   1.949   .     S
Zn1080 O1092   1.911   .     S
Zn1080 O1086   1.924   .     S
Zn1080 O1093   1.928   .     S
Zn1081 O1095   1.927   .     S
Zn1081 O1084   1.936   .     S
Zn1081 O1089   1.913   .     S
Zn1081 O1087   1.934   .     S
Zn1082 O1091   1.918   .     S
Zn1082 O1088   1.931   .     S
Zn1082 O1084   1.926   .     S
Zn1082 O1096   1.935   .     S
Zn1083 O1085   1.930   .     S
Zn1083 O1090   1.921   .     S
Zn1083 O1084   1.930   .     S
Zn1083 O1094   1.929   .     S
O1085  C1097   1.267   .     A
O1086  C1098   1.273   .     A
O1087  C1099   1.272   .     A
O1088  C1100   1.268   .     A
O1089  C1101   1.277   .     A
O1090  C1102   1.282   .     A
O1091  C1101   1.275   .     A
O1092  C1102   1.293   .     A
O1093  C1099   1.272   .     A
O1094  C1100   1.268   .     A
O1095  C1097   1.267   .     A
O1096  C1098   1.276   .     A
C1097  C1129   1.436   .     S
C1098  C1127   1.453   .     S
C1099  C1133   1.435   .     S
C1100  C1131   1.451   .     S
C1101  C1104   1.469   .     S
C1102  C1103   1.490   .     S
C1103  C1106   1.427   .     A
C1103  C1107   1.405   .     A
C1104  C1119   1.413   .     A
C1104  C1120   1.387   .     A
C1105  C1106   1.402   .     A
C1105  H1124   1.085   .     S
C1105  C1109   1.397   .     A
C1106  C1149   1.517   .     S
C1107  H1125   1.076   .     S
C1107  C1108   1.405   .     A
C1108  C1109   1.411   .     A
C1108  C1110   1.428   .     A
C1109  C366    1.392   1_556 S
C1110  C1114   1.425   .     A
C1110  C364    1.423   1_556 S
C1111  C1117   1.427   .     A
C1111  C1112   1.416   .     A
C1112  C1113   1.387   .     A
C1112  H1126   1.077   .     S
C1113  H1121   1.084   .     S
C1114  C1115   1.400   .     A
C1114  C1156   1.531   .     S
C1115  H1123   1.077   .     S
C1115  C369    1.409   1_556 S
C1116  C1117   1.421   .     A
C1116  C1118   1.434   .     A
C1117  C1120   1.405   .     A
C1118  C1119   1.427   .     A
C1118  C1135   1.530   .     S
C1119  C1142   1.526   .     S
C1120  H1122   1.078   .     S
C1127  H1211   1.088   .     S
C1127  C1212   1.334   .     S
H1130  C1212   1.086   .     S
C1131  H1381   1.088   .     S
C1131  C1382   1.332   .     S
H1134  C1382   1.086   .     S
C1135  H1140   1.106   .     S
C1136  H1137   1.110   .     S
C1136  C388    1.529   1_556 S
C1136  H391    1.110   1_556 S
C1136  H1222   1.111   .     S
H1141  C388    1.108   1_556 S
C1142  H1148   1.108   .     S
C1142  H1147   1.108   .     S
C1142  C1143   1.528   .     S
C1143  H1146   1.110   .     S
C1143  H1145   1.110   .     S
C1143  H1144   1.110   .     S
C1149  C1150   1.529   .     S
C1149  H1155   1.112   .     S
C1149  H1154   1.108   .     S
C1150  H1152   1.110   .     S
C1150  H1153   1.111   .     S
C1150  H1151   1.109   .     S
C1156  C1157   1.530   .     S
C1156  H1162   1.112   .     S
C1156  H1161   1.102   .     S
C1157  H1159   1.109   .     S
C1157  H1158   1.111   .     S
C1157  H1160   1.111   .     S
Zn1163 O1167   1.949   .     S
Zn1163 O1175   1.911   .     S
Zn1163 O1169   1.924   .     S
Zn1163 O1176   1.928   .     S
Zn1164 O1178   1.927   .     S
Zn1164 O1167   1.936   .     S
Zn1164 O1172   1.913   .     S
Zn1164 O1170   1.934   .     S
Zn1165 O1174   1.918   .     S
Zn1165 O1171   1.931   .     S
Zn1165 O1167   1.926   .     S
Zn1165 O1179   1.935   .     S
Zn1166 O1168   1.930   .     S
Zn1166 O1173   1.921   .     S
Zn1166 O1167   1.930   .     S
Zn1166 O1177   1.929   .     S
O1168  C1180   1.267   .     A
O1169  C1181   1.273   .     A
O1170  C1182   1.272   .     A
O1171  C1183   1.268   .     A
O1172  C1184   1.277   .     A
O1173  C1185   1.282   .     A
O1174  C1184   1.275   .     A
O1175  C1185   1.293   .     A
O1176  C1182   1.272   .     A
O1177  C1183   1.268   .     A
O1178  C1180   1.267   .     A
O1179  C1181   1.276   .     A
C1180  C1212   1.436   .     S
C1181  C1210   1.453   .     S
C1182  C1216   1.435   .     S
C1183  C1214   1.451   .     S
C1184  C1187   1.469   .     S
C1185  C1186   1.490   .     S
C1186  C1189   1.427   .     A
C1186  C1190   1.405   .     A
C1187  C1202   1.413   .     A
C1187  C1203   1.387   .     A
C1188  C1189   1.402   .     A
C1188  H1207   1.085   .     S
C1188  C1192   1.397   .     A
C1189  C1232   1.517   .     S
C1190  H1208   1.076   .     S
C1190  C1191   1.405   .     A
C1191  C1192   1.411   .     A
C1191  C1193   1.428   .     A
C1192  C449    1.392   1_556 S
C1193  C1197   1.425   .     A
C1193  C447    1.423   1_556 S
C1194  C1200   1.427   .     A
C1194  C1195   1.416   .     A
C1195  C1196   1.387   .     A
C1195  H1209   1.077   .     S
C1196  H1204   1.084   .     S
C1197  C1198   1.400   .     A
C1197  C1239   1.531   .     S
C1198  H1206   1.077   .     S
C1198  C452    1.409   1_556 S
C1199  C1200   1.421   .     A
C1199  C1201   1.434   .     A
C1200  C1203   1.405   .     A
C1201  C1202   1.427   .     A
C1201  C1218   1.530   .     S
C1202  C1225   1.526   .     S
C1203  H1205   1.078   .     S
C1210  H1045   1.088   1_655 S
C1210  C1046   1.334   1_655 S
H1213  C1046   1.086   1_655 S
C1214  H1464   1.088   .     S
C1214  C1465   1.332   .     S
H1217  C1465   1.086   .     S
C1218  H1223   1.106   .     S
C1219  H1220   1.110   .     S
C1219  C471    1.529   1_556 S
C1219  H474    1.110   1_556 S
C1219  H1056   1.111   1_655 S
H1224  C471    1.108   1_556 S
C1225  H1231   1.108   .     S
C1225  H1230   1.108   .     S
C1225  C1226   1.528   .     S
C1226  H1229   1.110   .     S
C1226  H1228   1.110   .     S
C1226  H1227   1.110   .     S
C1232  C1233   1.529   .     S
C1232  H1238   1.112   .     S
C1232  H1237   1.108   .     S
C1233  H1235   1.110   .     S
C1233  H1236   1.111   .     S
C1233  H1234   1.109   .     S
C1239  C1240   1.530   .     S
C1239  H1245   1.112   .     S
C1239  H1244   1.102   .     S
C1240  H1242   1.109   .     S
C1240  H1241   1.111   .     S
C1240  H1243   1.111   .     S
Zn1246 O1250   1.949   .     S
Zn1246 O1258   1.911   .     S
Zn1246 O1252   1.924   .     S
Zn1246 O1259   1.928   .     S
Zn1247 O1261   1.927   .     S
Zn1247 O1250   1.936   .     S
Zn1247 O1255   1.913   .     S
Zn1247 O1253   1.934   .     S
Zn1248 O1257   1.918   .     S
Zn1248 O1254   1.931   .     S
Zn1248 O1250   1.926   .     S
Zn1248 O1262   1.935   .     S
Zn1249 O1251   1.930   .     S
Zn1249 O1256   1.921   .     S
Zn1249 O1250   1.930   .     S
Zn1249 O1260   1.929   .     S
O1251  C1263   1.267   .     A
O1252  C1264   1.273   .     A
O1253  C1265   1.272   .     A
O1254  C1266   1.268   .     A
O1255  C1267   1.277   .     A
O1256  C1268   1.282   .     A
O1257  C1267   1.275   .     A
O1258  C1268   1.293   .     A
O1259  C1265   1.272   .     A
O1260  C1266   1.268   .     A
O1261  C1263   1.267   .     A
O1262  C1264   1.276   .     A
C1263  C1295   1.436   .     S
C1264  C1293   1.453   .     S
C1265  C1299   1.435   .     S
C1266  C1297   1.451   .     S
C1267  C1270   1.469   .     S
C1268  C1269   1.490   .     S
C1269  C1272   1.427   .     A
C1269  C1273   1.405   .     A
C1270  C1285   1.413   .     A
C1270  C1286   1.387   .     A
C1271  C1272   1.402   .     A
C1271  H1290   1.085   .     S
C1271  C1275   1.397   .     A
C1272  C1315   1.517   .     S
C1273  H1291   1.076   .     S
C1273  C1274   1.405   .     A
C1274  C1275   1.411   .     A
C1274  C1276   1.428   .     A
C1275  C532    1.392   1_556 S
C1276  C1280   1.425   .     A
C1276  C530    1.423   1_556 S
C1277  C1283   1.427   .     A
C1277  C1278   1.416   .     A
C1278  C1279   1.387   .     A
C1278  H1292   1.077   .     S
C1279  H1287   1.084   .     S
C1280  C1281   1.400   .     A
C1280  C1322   1.531   .     S
C1281  H1289   1.077   .     S
C1281  C535    1.409   1_556 S
C1282  C1283   1.421   .     A
C1282  C1284   1.434   .     A
C1283  C1286   1.405   .     A
C1284  C1285   1.427   .     A
C1284  C1301   1.530   .     S
C1285  C1308   1.526   .     S
C1286  H1288   1.078   .     S
C1293  H1377   1.088   .     S
C1293  C1378   1.334   .     S
H1294  C1459   1.088   1_455 S
C1295  C1459   1.334   1_455 S
C1295  H1462   1.086   1_455 S
H1296  C1378   1.086   .     S
C1297  H800    1.088   1_565 S
C1297  C801    1.332   1_565 S
H1300  C801    1.086   1_565 S
C1301  H1306   1.106   .     S
C1302  H1303   1.110   .     S
C1302  C554    1.529   1_556 S
C1302  H557    1.110   1_556 S
C1302  H1388   1.111   .     S
H1305  C1468   1.111   1_455 S
H1307  C554    1.108   1_556 S
C1308  H1314   1.108   .     S
C1308  H1313   1.108   .     S
C1308  C1309   1.528   .     S
C1309  H1312   1.110   .     S
C1309  H1311   1.110   .     S
C1309  H1310   1.110   .     S
C1315  C1316   1.529   .     S
C1315  H1321   1.112   .     S
C1315  H1320   1.108   .     S
C1316  H1318   1.110   .     S
C1316  H1319   1.111   .     S
C1316  H1317   1.109   .     S
C1322  C1323   1.530   .     S
C1322  H1328   1.112   .     S
C1322  H1327   1.102   .     S
C1323  H1325   1.109   .     S
C1323  H1324   1.111   .     S
C1323  H1326   1.111   .     S
Zn1329 O1333   1.949   .     S
Zn1329 O1341   1.911   .     S
Zn1329 O1335   1.924   .     S
Zn1329 O1342   1.928   .     S
Zn1330 O1344   1.927   .     S
Zn1330 O1333   1.936   .     S
Zn1330 O1338   1.913   .     S
Zn1330 O1336   1.934   .     S
Zn1331 O1340   1.918   .     S
Zn1331 O1337   1.931   .     S
Zn1331 O1333   1.926   .     S
Zn1331 O1345   1.935   .     S
Zn1332 O1334   1.930   .     S
Zn1332 O1339   1.921   .     S
Zn1332 O1333   1.930   .     S
Zn1332 O1343   1.929   .     S
O1334  C1346   1.267   .     A
O1335  C1347   1.273   .     A
O1336  C1348   1.272   .     A
O1337  C1349   1.268   .     A
O1338  C1350   1.277   .     A
O1339  C1351   1.282   .     A
O1340  C1350   1.275   .     A
O1341  C1351   1.293   .     A
O1342  C1348   1.272   .     A
O1343  C1349   1.268   .     A
O1344  C1346   1.267   .     A
O1345  C1347   1.276   .     A
C1346  C1378   1.436   .     S
C1347  C1376   1.453   .     S
C1348  C1382   1.435   .     S
C1349  C1380   1.451   .     S
C1350  C1353   1.469   .     S
C1351  C1352   1.490   .     S
C1352  C1355   1.427   .     A
C1352  C1356   1.405   .     A
C1353  C1368   1.413   .     A
C1353  C1369   1.387   .     A
C1354  C1355   1.402   .     A
C1354  H1373   1.085   .     S
C1354  C1358   1.397   .     A
C1355  C1398   1.517   .     S
C1356  H1374   1.076   .     S
C1356  C1357   1.405   .     A
C1357  C1358   1.411   .     A
C1357  C1359   1.428   .     A
C1358  C615    1.392   1_556 S
C1359  C1363   1.425   .     A
C1359  C613    1.423   1_556 S
C1360  C1366   1.427   .     A
C1360  C1361   1.416   .     A
C1361  C1362   1.387   .     A
C1361  H1375   1.077   .     S
C1362  H1370   1.084   .     S
C1363  C1364   1.400   .     A
C1363  C1405   1.531   .     S
C1364  H1372   1.077   .     S
C1364  C618    1.409   1_556 S
C1365  C1366   1.421   .     A
C1365  C1367   1.434   .     A
C1366  C1369   1.405   .     A
C1367  C1368   1.427   .     A
C1367  C1384   1.530   .     S
C1368  C1391   1.526   .     S
C1369  H1371   1.078   .     S
C1376  H1460   1.088   .     S
C1376  C1461   1.334   .     S
H1379  C1461   1.086   .     S
C1380  H883    1.088   1_565 S
C1380  C884    1.332   1_565 S
H1383  C884    1.086   1_565 S
C1384  H1389   1.106   .     S
C1385  H1386   1.110   .     S
C1385  C637    1.529   1_556 S
C1385  H640    1.110   1_556 S
C1385  H1471   1.111   .     S
H1390  C637    1.108   1_556 S
C1391  H1397   1.108   .     S
C1391  H1396   1.108   .     S
C1391  C1392   1.528   .     S
C1392  H1395   1.110   .     S
C1392  H1394   1.110   .     S
C1392  H1393   1.110   .     S
C1398  C1399   1.529   .     S
C1398  H1404   1.112   .     S
C1398  H1403   1.108   .     S
C1399  H1401   1.110   .     S
C1399  H1402   1.111   .     S
C1399  H1400   1.109   .     S
C1405  C1406   1.530   .     S
C1405  H1411   1.112   .     S
C1405  H1410   1.102   .     S
C1406  H1408   1.109   .     S
C1406  H1407   1.111   .     S
C1406  H1409   1.111   .     S
Zn1412 O1416   1.949   .     S
Zn1412 O1424   1.911   .     S
Zn1412 O1418   1.924   .     S
Zn1412 O1425   1.928   .     S
Zn1413 O1427   1.927   .     S
Zn1413 O1416   1.936   .     S
Zn1413 O1421   1.913   .     S
Zn1413 O1419   1.934   .     S
Zn1414 O1423   1.918   .     S
Zn1414 O1420   1.931   .     S
Zn1414 O1416   1.926   .     S
Zn1414 O1428   1.935   .     S
Zn1415 O1417   1.930   .     S
Zn1415 O1422   1.921   .     S
Zn1415 O1416   1.930   .     S
Zn1415 O1426   1.929   .     S
O1417  C1429   1.267   .     A
O1418  C1430   1.273   .     A
O1419  C1431   1.272   .     A
O1420  C1432   1.268   .     A
O1421  C1433   1.277   .     A
O1422  C1434   1.282   .     A
O1423  C1433   1.275   .     A
O1424  C1434   1.293   .     A
O1425  C1431   1.272   .     A
O1426  C1432   1.268   .     A
O1427  C1429   1.267   .     A
O1428  C1430   1.276   .     A
C1429  C1461   1.436   .     S
C1430  C1459   1.453   .     S
C1431  C1465   1.435   .     S
C1432  C1463   1.451   .     S
C1433  C1436   1.469   .     S
C1434  C1435   1.490   .     S
C1435  C1438   1.427   .     A
C1435  C1439   1.405   .     A
C1436  C1451   1.413   .     A
C1436  C1452   1.387   .     A
C1437  C1438   1.402   .     A
C1437  H1456   1.085   .     S
C1437  C1441   1.397   .     A
C1438  C1481   1.517   .     S
C1439  H1457   1.076   .     S
C1439  C1440   1.405   .     A
C1440  C1441   1.411   .     A
C1440  C1442   1.428   .     A
C1441  C698    1.392   1_556 S
C1442  C1446   1.425   .     A
C1442  C696    1.423   1_556 S
C1443  C1449   1.427   .     A
C1443  C1444   1.416   .     A
C1444  C1445   1.387   .     A
C1444  H1458   1.077   .     S
C1445  H1453   1.084   .     S
C1446  C1447   1.400   .     A
C1446  C1488   1.531   .     S
C1447  H1455   1.077   .     S
C1447  C701    1.409   1_556 S
C1448  C1449   1.421   .     A
C1448  C1450   1.434   .     A
C1449  C1452   1.405   .     A
C1450  C1451   1.427   .     A
C1450  C1467   1.530   .     S
C1451  C1474   1.526   .     S
C1452  H1454   1.078   .     S
C1459  H1294   1.088   1_655 S
C1459  C1295   1.334   1_655 S
H1462  C1295   1.086   1_655 S
C1463  H966    1.088   1_565 S
C1463  C967    1.332   1_565 S
H1466  C967    1.086   1_565 S
C1467  H1472   1.106   .     S
C1468  H1469   1.110   .     S
C1468  C720    1.529   1_556 S
C1468  H723    1.110   1_556 S
C1468  H1305   1.111   1_655 S
H1473  C720    1.108   1_556 S
C1474  H1480   1.108   .     S
C1474  H1479   1.108   .     S
C1474  C1475   1.528   .     S
C1475  H1478   1.110   .     S
C1475  H1477   1.110   .     S
C1475  H1476   1.110   .     S
C1481  C1482   1.529   .     S
C1481  H1487   1.112   .     S
C1481  H1486   1.108   .     S
C1482  H1484   1.110   .     S
C1482  H1485   1.111   .     S
C1482  H1483   1.109   .     S
C1488  C1489   1.530   .     S
C1488  H1494   1.112   .     S
C1488  H1493   1.102   .     S
C1489  H1491   1.109   .     S
C1489  H1490   1.111   .     S
C1489  H1492   1.111   .     S
