data_str_m1_o10_o18_pcu_sym.110
_audit_creation_date              2020-01-03
_audit_creation_method            'Materials Studio'
_symmetry_space_group_name_H-M    'P1'
_symmetry_Int_Tables_number       1
_symmetry_cell_setting            triclinic
loop_
_symmetry_equiv_pos_as_xyz
  x,y,z
_cell_length_a                    32.5383
_cell_length_b                    32.5364
_cell_length_c                    35.8166
_cell_angle_alpha                 98.2353
_cell_angle_beta                  73.1133
_cell_angle_gamma                 98.6117
loop_
_atom_site_label
_atom_site_type_symbol
_atom_site_fract_x
_atom_site_fract_y
_atom_site_fract_z
_atom_site_U_iso_or_equiv
_atom_site_adp_type
_atom_site_occupancy
C1     C     0.05250   0.15992   0.25871   0.00000  Uiso   1.00
C2     C     0.18524   0.12138   0.46333   0.00000  Uiso   1.00
C3     C     0.20267   0.09887   0.48376   0.00000  Uiso   1.00
C4     C     0.28103   0.17354   0.24120   0.00000  Uiso   1.00
C5     C     0.20212   0.11192   0.02271   0.00000  Uiso   1.00
C6     C     0.18223   0.14816   0.04204   0.00000  Uiso   1.00
C7     C     0.22040   0.08844   0.04284   0.00000  Uiso   1.00
C8     C     0.21743   0.09979   0.08268   0.00000  Uiso   1.00
C9     C     0.18162   0.15988   0.08158   0.00000  Uiso   1.00
C10    C     0.32703   0.17613   0.23758   0.00000  Uiso   1.00
C11    C     0.00710   0.15754   0.26211   0.00000  Uiso   1.00
C12    C     0.11239   0.22883   0.41963   0.00000  Uiso   1.00
C13    C     0.18084   0.32213   0.23811   0.00000  Uiso   1.00
C14    C     0.15152   0.01207   0.26203   0.00000  Uiso   1.00
C15    C     0.15593   0.05611   0.25886   0.00000  Uiso   1.00
C16    C     0.17684   0.27765   0.24136   0.00000  Uiso   1.00
C17    C     0.18825   0.14509   0.14416   0.00000  Uiso   1.00
C18    C     0.14561   0.18787   0.35609   0.00000  Uiso   1.00
C19    C     0.13734   0.19707   0.39888   0.00000  Uiso   1.00
C20    C     0.19741   0.13540   0.10188   0.00000  Uiso   1.00
C21    C     0.10664   0.23817   0.45986   0.00000  Uiso   1.00
C22    C     0.28245   0.06196   0.00746   0.00000  Uiso   1.00
C23    C     0.15547   0.17410   0.41897   0.00000  Uiso   1.00
C24    C     0.26788   0.09329   0.11426   0.00000  Uiso   1.00
C25    C     0.14889   0.18192   0.45986   0.00000  Uiso   1.00
C26    C     0.12514   0.21541   0.47998   0.00000  Uiso   1.00
C27    C     0.16606   0.15810   0.48105   0.00000  Uiso   1.00
C28    C     0.16283   0.17074   0.02150   0.00000  Uiso   1.00
C29    C     0.13929   0.20480   0.04021   0.00000  Uiso   1.00
C30    C     0.12034   0.22615   0.01990   0.00000  Uiso   1.00
H31    H     0.10220   0.25172   0.03555   0.00000  Uiso   1.00
H32    H     0.17574   0.15107   0.40173   0.00000  Uiso   1.00
H33    H     0.13381   0.21540   0.07092   0.00000  Uiso   1.00
H34    H     0.18608   0.10810   0.43384   0.00000  Uiso   1.00
H35    H     0.29979   0.07325   0.03017   0.00000  Uiso   1.00
H36    H     0.28879   0.08546   0.48613   0.00000  Uiso   1.00
H37    H     0.29595   0.03316   0.49111   0.00000  Uiso   1.00
H38    H     0.25812   0.10904   0.14457   0.00000  Uiso   1.00
H39    H     0.28853   0.11600   0.09402   0.00000  Uiso   1.00
H40    H     0.28819   0.06889   0.11457   0.00000  Uiso   1.00
H41    H     0.01676   0.19320   0.21488   0.00000  Uiso   1.00
H42    H     0.31804   0.14049   0.28513   0.00000  Uiso   1.00
H43    H     0.20792   0.00273   0.21608   0.00000  Uiso   1.00
H44    H     0.12406   0.33225   0.28414   0.00000  Uiso   1.00
H45    H     0.16771   0.18717   0.09816   0.00000  Uiso   1.00
H46    H     0.21651   0.07073   0.46866   0.00000  Uiso   1.00
H47    H     0.08802   0.26350   0.47523   0.00000  Uiso   1.00
H48    H     0.09807   0.24702   0.40468   0.00000  Uiso   1.00
O49    O     0.16667   0.16667   0.25000   0.00000  Uiso   1.00
O50    O     0.15693   0.12393   0.16625   0.00000  Uiso   1.00
O51    O     0.12687   0.20646   0.33749   0.00000  Uiso   1.00
O52    O     0.21088   0.17493   0.15877   0.00000  Uiso   1.00
O53    O     0.17198   0.16135   0.33749   0.00000  Uiso   1.00
O54    O     0.23781   0.05203   0.02463   0.00000  Uiso   1.00
O55    O     0.23101   0.07353   0.10284   0.00000  Uiso   1.00
O56    O     0.17849   0.08101   0.27820   0.00000  Uiso   1.00
O57    O     0.14581   0.26136   0.26767   0.00000  Uiso   1.00
O58    O     0.07452   0.13251   0.23607   0.00000  Uiso   1.00
O59    O     0.26785   0.19179   0.21806   0.00000  Uiso   1.00
O60    O     0.06990   0.18960   0.27820   0.00000  Uiso   1.00
O61    O     0.25440   0.15277   0.26768   0.00000  Uiso   1.00
O62    O     0.13800   0.06903   0.23607   0.00000  Uiso   1.00
O63    O     0.20437   0.25527   0.21806   0.00000  Uiso   1.00
Zn64   Zn    0.19244   0.14090   0.28278   0.00000  Uiso   1.00
Zn65   Zn    0.13459   0.12378   0.22257   0.00000  Uiso   1.00
Zn66   Zn    0.21166   0.19664   0.21188   0.00000  Uiso   1.00
Zn67   Zn    0.12798   0.20535   0.28277   0.00000  Uiso   1.00
C68    C     0.38583   0.15992   0.25871   0.00000  Uiso   1.00
C69    C     0.51857   0.12138   0.46333   0.00000  Uiso   1.00
C70    C     0.53600   0.09887   0.48376   0.00000  Uiso   1.00
C71    C     0.61436   0.17354   0.24120   0.00000  Uiso   1.00
C72    C     0.53545   0.11192   0.02271   0.00000  Uiso   1.00
C73    C     0.51557   0.14816   0.04204   0.00000  Uiso   1.00
C74    C     0.55373   0.08844   0.04284   0.00000  Uiso   1.00
C75    C     0.55076   0.09979   0.08268   0.00000  Uiso   1.00
C76    C     0.51495   0.15988   0.08158   0.00000  Uiso   1.00
C77    C     0.66036   0.17613   0.23758   0.00000  Uiso   1.00
C78    C     0.34044   0.15754   0.26211   0.00000  Uiso   1.00
C79    C     0.44572   0.22883   0.41963   0.00000  Uiso   1.00
C80    C     0.51417   0.32213   0.23811   0.00000  Uiso   1.00
C81    C     0.48485   0.01207   0.26203   0.00000  Uiso   1.00
C82    C     0.48926   0.05611   0.25886   0.00000  Uiso   1.00
C83    C     0.51017   0.27765   0.24136   0.00000  Uiso   1.00
C84    C     0.52158   0.14509   0.14416   0.00000  Uiso   1.00
C85    C     0.47895   0.18787   0.35609   0.00000  Uiso   1.00
C86    C     0.47068   0.19707   0.39888   0.00000  Uiso   1.00
C87    C     0.53074   0.13540   0.10188   0.00000  Uiso   1.00
C88    C     0.43998   0.23817   0.45986   0.00000  Uiso   1.00
C89    C     0.61578   0.06196   0.00746   0.00000  Uiso   1.00
C90    C     0.48881   0.17410   0.41897   0.00000  Uiso   1.00
C91    C     0.60121   0.09329   0.11426   0.00000  Uiso   1.00
C92    C     0.48223   0.18192   0.45986   0.00000  Uiso   1.00
C93    C     0.45847   0.21541   0.47998   0.00000  Uiso   1.00
C94    C     0.49940   0.15810   0.48105   0.00000  Uiso   1.00
C95    C     0.49616   0.17074   0.02150   0.00000  Uiso   1.00
C96    C     0.47262   0.20480   0.04021   0.00000  Uiso   1.00
C97    C     0.45367   0.22615   0.01990   0.00000  Uiso   1.00
H98    H     0.43554   0.25172   0.03555   0.00000  Uiso   1.00
H99    H     0.50907   0.15107   0.40173   0.00000  Uiso   1.00
H100   H     0.46715   0.21540   0.07092   0.00000  Uiso   1.00
H101   H     0.51941   0.10810   0.43384   0.00000  Uiso   1.00
H102   H     0.63313   0.07325   0.03017   0.00000  Uiso   1.00
H103   H     0.62212   0.08546   0.48613   0.00000  Uiso   1.00
H104   H     0.62928   0.03316   0.49111   0.00000  Uiso   1.00
H105   H     0.59145   0.10904   0.14457   0.00000  Uiso   1.00
H106   H     0.62186   0.11600   0.09402   0.00000  Uiso   1.00
H107   H     0.62152   0.06889   0.11457   0.00000  Uiso   1.00
H108   H     0.35009   0.19320   0.21488   0.00000  Uiso   1.00
H109   H     0.65137   0.14049   0.28513   0.00000  Uiso   1.00
H110   H     0.54125   0.00273   0.21608   0.00000  Uiso   1.00
H111   H     0.45740   0.33225   0.28414   0.00000  Uiso   1.00
H112   H     0.50104   0.18717   0.09816   0.00000  Uiso   1.00
H113   H     0.54985   0.07073   0.46866   0.00000  Uiso   1.00
H114   H     0.42135   0.26350   0.47523   0.00000  Uiso   1.00
H115   H     0.43140   0.24702   0.40468   0.00000  Uiso   1.00
O116   O     0.50000   0.16667   0.25000   0.00000  Uiso   1.00
O117   O     0.49027   0.12393   0.16625   0.00000  Uiso   1.00
O118   O     0.46020   0.20646   0.33749   0.00000  Uiso   1.00
O119   O     0.54421   0.17493   0.15877   0.00000  Uiso   1.00
O120   O     0.50532   0.16135   0.33749   0.00000  Uiso   1.00
O121   O     0.57115   0.05203   0.02463   0.00000  Uiso   1.00
O122   O     0.56434   0.07353   0.10284   0.00000  Uiso   1.00
O123   O     0.51182   0.08101   0.27820   0.00000  Uiso   1.00
O124   O     0.47914   0.26136   0.26767   0.00000  Uiso   1.00
O125   O     0.40785   0.13251   0.23607   0.00000  Uiso   1.00
O126   O     0.60119   0.19179   0.21806   0.00000  Uiso   1.00
O127   O     0.40323   0.18960   0.27820   0.00000  Uiso   1.00
O128   O     0.58773   0.15277   0.26768   0.00000  Uiso   1.00
O129   O     0.47133   0.06903   0.23607   0.00000  Uiso   1.00
O130   O     0.53771   0.25527   0.21806   0.00000  Uiso   1.00
Zn131  Zn    0.52577   0.14090   0.28278   0.00000  Uiso   1.00
Zn132  Zn    0.46792   0.12378   0.22257   0.00000  Uiso   1.00
Zn133  Zn    0.54500   0.19664   0.21188   0.00000  Uiso   1.00
Zn134  Zn    0.46131   0.20535   0.28277   0.00000  Uiso   1.00
C135   C     0.71916   0.15992   0.25871   0.00000  Uiso   1.00
C136   C     0.85190   0.12138   0.46333   0.00000  Uiso   1.00
C137   C     0.86933   0.09887   0.48376   0.00000  Uiso   1.00
C138   C     0.94770   0.17354   0.24120   0.00000  Uiso   1.00
C139   C     0.86879   0.11192   0.02271   0.00000  Uiso   1.00
C140   C     0.84890   0.14816   0.04204   0.00000  Uiso   1.00
C141   C     0.88706   0.08844   0.04284   0.00000  Uiso   1.00
C142   C     0.88409   0.09979   0.08268   0.00000  Uiso   1.00
C143   C     0.84828   0.15988   0.08158   0.00000  Uiso   1.00
C144   C     0.99370   0.17613   0.23758   0.00000  Uiso   1.00
C145   C     0.67377   0.15754   0.26211   0.00000  Uiso   1.00
C146   C     0.77906   0.22883   0.41963   0.00000  Uiso   1.00
C147   C     0.84750   0.32213   0.23811   0.00000  Uiso   1.00
C148   C     0.81819   0.01207   0.26203   0.00000  Uiso   1.00
C149   C     0.82260   0.05611   0.25886   0.00000  Uiso   1.00
C150   C     0.84350   0.27765   0.24136   0.00000  Uiso   1.00
C151   C     0.85492   0.14509   0.14416   0.00000  Uiso   1.00
C152   C     0.81228   0.18787   0.35609   0.00000  Uiso   1.00
C153   C     0.80401   0.19707   0.39888   0.00000  Uiso   1.00
C154   C     0.86407   0.13540   0.10188   0.00000  Uiso   1.00
C155   C     0.77331   0.23817   0.45986   0.00000  Uiso   1.00
C156   C     0.94912   0.06196   0.00746   0.00000  Uiso   1.00
C157   C     0.82214   0.17410   0.41897   0.00000  Uiso   1.00
C158   C     0.93455   0.09329   0.11426   0.00000  Uiso   1.00
C159   C     0.81556   0.18192   0.45986   0.00000  Uiso   1.00
C160   C     0.79180   0.21541   0.47998   0.00000  Uiso   1.00
C161   C     0.83273   0.15810   0.48105   0.00000  Uiso   1.00
C162   C     0.82950   0.17074   0.02150   0.00000  Uiso   1.00
C163   C     0.80596   0.20480   0.04021   0.00000  Uiso   1.00
C164   C     0.78701   0.22615   0.01990   0.00000  Uiso   1.00
H165   H     0.76887   0.25172   0.03555   0.00000  Uiso   1.00
H166   H     0.84240   0.15107   0.40173   0.00000  Uiso   1.00
H167   H     0.80048   0.21540   0.07092   0.00000  Uiso   1.00
H168   H     0.85275   0.10810   0.43384   0.00000  Uiso   1.00
H169   H     0.96646   0.07325   0.03017   0.00000  Uiso   1.00
H170   H     0.95545   0.08546   0.48613   0.00000  Uiso   1.00
H171   H     0.96261   0.03316   0.49111   0.00000  Uiso   1.00
H172   H     0.92479   0.10904   0.14457   0.00000  Uiso   1.00
H173   H     0.95519   0.11600   0.09402   0.00000  Uiso   1.00
H174   H     0.95485   0.06889   0.11457   0.00000  Uiso   1.00
H175   H     0.68342   0.19320   0.21488   0.00000  Uiso   1.00
H176   H     0.98471   0.14049   0.28513   0.00000  Uiso   1.00
H177   H     0.87459   0.00273   0.21608   0.00000  Uiso   1.00
H178   H     0.79073   0.33225   0.28414   0.00000  Uiso   1.00
H179   H     0.83438   0.18717   0.09816   0.00000  Uiso   1.00
H180   H     0.88318   0.07073   0.46866   0.00000  Uiso   1.00
H181   H     0.75468   0.26350   0.47523   0.00000  Uiso   1.00
H182   H     0.76473   0.24702   0.40468   0.00000  Uiso   1.00
O183   O     0.83333   0.16667   0.25000   0.00000  Uiso   1.00
O184   O     0.82360   0.12393   0.16625   0.00000  Uiso   1.00
O185   O     0.79354   0.20646   0.33749   0.00000  Uiso   1.00
O186   O     0.87755   0.17493   0.15877   0.00000  Uiso   1.00
O187   O     0.83865   0.16135   0.33749   0.00000  Uiso   1.00
O188   O     0.90448   0.05203   0.02463   0.00000  Uiso   1.00
O189   O     0.89767   0.07353   0.10284   0.00000  Uiso   1.00
O190   O     0.84515   0.08101   0.27820   0.00000  Uiso   1.00
O191   O     0.81247   0.26136   0.26767   0.00000  Uiso   1.00
O192   O     0.74119   0.13251   0.23607   0.00000  Uiso   1.00
O193   O     0.93452   0.19179   0.21806   0.00000  Uiso   1.00
O194   O     0.73656   0.18960   0.27820   0.00000  Uiso   1.00
O195   O     0.92106   0.15277   0.26768   0.00000  Uiso   1.00
O196   O     0.80467   0.06903   0.23607   0.00000  Uiso   1.00
O197   O     0.87104   0.25527   0.21806   0.00000  Uiso   1.00
Zn198  Zn    0.85910   0.14090   0.28278   0.00000  Uiso   1.00
Zn199  Zn    0.80125   0.12378   0.22257   0.00000  Uiso   1.00
Zn200  Zn    0.87833   0.19664   0.21188   0.00000  Uiso   1.00
Zn201  Zn    0.79465   0.20535   0.28277   0.00000  Uiso   1.00
C202   C     0.05250   0.49326   0.25871   0.00000  Uiso   1.00
C203   C     0.18524   0.45472   0.46333   0.00000  Uiso   1.00
C204   C     0.20267   0.43220   0.48376   0.00000  Uiso   1.00
C205   C     0.28103   0.50687   0.24120   0.00000  Uiso   1.00
C206   C     0.20212   0.44525   0.02271   0.00000  Uiso   1.00
C207   C     0.18223   0.48149   0.04204   0.00000  Uiso   1.00
C208   C     0.22040   0.42177   0.04284   0.00000  Uiso   1.00
C209   C     0.21743   0.43313   0.08268   0.00000  Uiso   1.00
C210   C     0.18162   0.49321   0.08158   0.00000  Uiso   1.00
C211   C     0.32703   0.50946   0.23758   0.00000  Uiso   1.00
C212   C     0.00710   0.49088   0.26211   0.00000  Uiso   1.00
C213   C     0.11239   0.56217   0.41963   0.00000  Uiso   1.00
C214   C     0.18084   0.65546   0.23811   0.00000  Uiso   1.00
C215   C     0.15152   0.34541   0.26203   0.00000  Uiso   1.00
C216   C     0.15593   0.38945   0.25886   0.00000  Uiso   1.00
C217   C     0.17684   0.61099   0.24136   0.00000  Uiso   1.00
C218   C     0.18825   0.47843   0.14416   0.00000  Uiso   1.00
C219   C     0.14561   0.52121   0.35609   0.00000  Uiso   1.00
C220   C     0.13734   0.53040   0.39888   0.00000  Uiso   1.00
C221   C     0.19741   0.46873   0.10188   0.00000  Uiso   1.00
C222   C     0.10664   0.57151   0.45986   0.00000  Uiso   1.00
C223   C     0.28245   0.39529   0.00746   0.00000  Uiso   1.00
C224   C     0.15547   0.50743   0.41897   0.00000  Uiso   1.00
C225   C     0.26788   0.42662   0.11426   0.00000  Uiso   1.00
C226   C     0.14889   0.51525   0.45986   0.00000  Uiso   1.00
C227   C     0.12514   0.54874   0.47998   0.00000  Uiso   1.00
C228   C     0.16606   0.49143   0.48105   0.00000  Uiso   1.00
C229   C     0.16283   0.50407   0.02150   0.00000  Uiso   1.00
C230   C     0.13929   0.53813   0.04021   0.00000  Uiso   1.00
C231   C     0.12034   0.55948   0.01990   0.00000  Uiso   1.00
H232   H     0.10220   0.58505   0.03555   0.00000  Uiso   1.00
H233   H     0.17574   0.48441   0.40173   0.00000  Uiso   1.00
H234   H     0.13381   0.54874   0.07092   0.00000  Uiso   1.00
H235   H     0.18608   0.44144   0.43384   0.00000  Uiso   1.00
H236   H     0.29979   0.40659   0.03017   0.00000  Uiso   1.00
H237   H     0.28879   0.41879   0.48613   0.00000  Uiso   1.00
H238   H     0.29595   0.36650   0.49111   0.00000  Uiso   1.00
H239   H     0.25812   0.44237   0.14457   0.00000  Uiso   1.00
H240   H     0.28853   0.44933   0.09402   0.00000  Uiso   1.00
H241   H     0.28819   0.40223   0.11457   0.00000  Uiso   1.00
H242   H     0.01676   0.52653   0.21488   0.00000  Uiso   1.00
H243   H     0.31804   0.47382   0.28513   0.00000  Uiso   1.00
H244   H     0.20792   0.33606   0.21608   0.00000  Uiso   1.00
H245   H     0.12406   0.66558   0.28414   0.00000  Uiso   1.00
H246   H     0.16771   0.52051   0.09816   0.00000  Uiso   1.00
H247   H     0.21651   0.40407   0.46866   0.00000  Uiso   1.00
H248   H     0.08802   0.59683   0.47523   0.00000  Uiso   1.00
H249   H     0.09807   0.58035   0.40468   0.00000  Uiso   1.00
O250   O     0.16667   0.50000   0.25000   0.00000  Uiso   1.00
O251   O     0.15693   0.45726   0.16625   0.00000  Uiso   1.00
O252   O     0.12687   0.53979   0.33749   0.00000  Uiso   1.00
O253   O     0.21088   0.50826   0.15877   0.00000  Uiso   1.00
O254   O     0.17198   0.49468   0.33749   0.00000  Uiso   1.00
O255   O     0.23781   0.38536   0.02463   0.00000  Uiso   1.00
O256   O     0.23101   0.40686   0.10284   0.00000  Uiso   1.00
O257   O     0.17849   0.41434   0.27820   0.00000  Uiso   1.00
O258   O     0.14581   0.59469   0.26767   0.00000  Uiso   1.00
O259   O     0.07452   0.46584   0.23607   0.00000  Uiso   1.00
O260   O     0.26785   0.52512   0.21806   0.00000  Uiso   1.00
O261   O     0.06990   0.52293   0.27820   0.00000  Uiso   1.00
O262   O     0.25440   0.48610   0.26768   0.00000  Uiso   1.00
O263   O     0.13800   0.40236   0.23607   0.00000  Uiso   1.00
O264   O     0.20437   0.58860   0.21806   0.00000  Uiso   1.00
Zn265  Zn    0.19244   0.47423   0.28278   0.00000  Uiso   1.00
Zn266  Zn    0.13459   0.45711   0.22257   0.00000  Uiso   1.00
Zn267  Zn    0.21166   0.52997   0.21188   0.00000  Uiso   1.00
Zn268  Zn    0.12798   0.53868   0.28277   0.00000  Uiso   1.00
C269   C     0.38583   0.49326   0.25871   0.00000  Uiso   1.00
C270   C     0.51857   0.45472   0.46333   0.00000  Uiso   1.00
C271   C     0.53600   0.43220   0.48376   0.00000  Uiso   1.00
C272   C     0.61436   0.50687   0.24120   0.00000  Uiso   1.00
C273   C     0.53545   0.44525   0.02271   0.00000  Uiso   1.00
C274   C     0.51557   0.48149   0.04204   0.00000  Uiso   1.00
C275   C     0.55373   0.42177   0.04284   0.00000  Uiso   1.00
C276   C     0.55076   0.43313   0.08268   0.00000  Uiso   1.00
C277   C     0.51495   0.49321   0.08158   0.00000  Uiso   1.00
C278   C     0.66036   0.50946   0.23758   0.00000  Uiso   1.00
C279   C     0.34044   0.49088   0.26211   0.00000  Uiso   1.00
C280   C     0.44572   0.56217   0.41963   0.00000  Uiso   1.00
C281   C     0.51417   0.65546   0.23811   0.00000  Uiso   1.00
C282   C     0.48485   0.34541   0.26203   0.00000  Uiso   1.00
C283   C     0.48926   0.38945   0.25886   0.00000  Uiso   1.00
C284   C     0.51017   0.61099   0.24136   0.00000  Uiso   1.00
C285   C     0.52158   0.47843   0.14416   0.00000  Uiso   1.00
C286   C     0.47895   0.52121   0.35609   0.00000  Uiso   1.00
C287   C     0.47068   0.53040   0.39888   0.00000  Uiso   1.00
C288   C     0.53074   0.46873   0.10188   0.00000  Uiso   1.00
C289   C     0.43998   0.57151   0.45986   0.00000  Uiso   1.00
C290   C     0.61578   0.39529   0.00746   0.00000  Uiso   1.00
C291   C     0.48881   0.50743   0.41897   0.00000  Uiso   1.00
C292   C     0.60121   0.42662   0.11426   0.00000  Uiso   1.00
C293   C     0.48223   0.51525   0.45986   0.00000  Uiso   1.00
C294   C     0.45847   0.54874   0.47998   0.00000  Uiso   1.00
C295   C     0.49940   0.49143   0.48105   0.00000  Uiso   1.00
C296   C     0.49616   0.50407   0.02150   0.00000  Uiso   1.00
C297   C     0.47262   0.53813   0.04021   0.00000  Uiso   1.00
C298   C     0.45367   0.55948   0.01990   0.00000  Uiso   1.00
H299   H     0.43554   0.58505   0.03555   0.00000  Uiso   1.00
H300   H     0.50907   0.48441   0.40173   0.00000  Uiso   1.00
H301   H     0.46715   0.54874   0.07092   0.00000  Uiso   1.00
H302   H     0.51941   0.44144   0.43384   0.00000  Uiso   1.00
H303   H     0.63313   0.40659   0.03017   0.00000  Uiso   1.00
H304   H     0.62212   0.41879   0.48613   0.00000  Uiso   1.00
H305   H     0.62928   0.36650   0.49111   0.00000  Uiso   1.00
H306   H     0.59145   0.44237   0.14457   0.00000  Uiso   1.00
H307   H     0.62186   0.44933   0.09402   0.00000  Uiso   1.00
H308   H     0.62152   0.40223   0.11457   0.00000  Uiso   1.00
H309   H     0.35009   0.52653   0.21488   0.00000  Uiso   1.00
H310   H     0.65137   0.47382   0.28513   0.00000  Uiso   1.00
H311   H     0.54125   0.33606   0.21608   0.00000  Uiso   1.00
H312   H     0.45740   0.66558   0.28414   0.00000  Uiso   1.00
H313   H     0.50104   0.52051   0.09816   0.00000  Uiso   1.00
H314   H     0.54985   0.40407   0.46866   0.00000  Uiso   1.00
H315   H     0.42135   0.59683   0.47523   0.00000  Uiso   1.00
H316   H     0.43140   0.58035   0.40468   0.00000  Uiso   1.00
O317   O     0.50000   0.50000   0.25000   0.00000  Uiso   1.00
O318   O     0.49027   0.45726   0.16625   0.00000  Uiso   1.00
O319   O     0.46020   0.53979   0.33749   0.00000  Uiso   1.00
O320   O     0.54421   0.50826   0.15877   0.00000  Uiso   1.00
O321   O     0.50532   0.49468   0.33749   0.00000  Uiso   1.00
O322   O     0.57115   0.38536   0.02463   0.00000  Uiso   1.00
O323   O     0.56434   0.40686   0.10284   0.00000  Uiso   1.00
O324   O     0.51182   0.41434   0.27820   0.00000  Uiso   1.00
O325   O     0.47914   0.59469   0.26767   0.00000  Uiso   1.00
O326   O     0.40785   0.46584   0.23607   0.00000  Uiso   1.00
O327   O     0.60119   0.52512   0.21806   0.00000  Uiso   1.00
O328   O     0.40323   0.52293   0.27820   0.00000  Uiso   1.00
O329   O     0.58773   0.48610   0.26768   0.00000  Uiso   1.00
O330   O     0.47133   0.40236   0.23607   0.00000  Uiso   1.00
O331   O     0.53771   0.58860   0.21806   0.00000  Uiso   1.00
Zn332  Zn    0.52577   0.47423   0.28278   0.00000  Uiso   1.00
Zn333  Zn    0.46792   0.45711   0.22257   0.00000  Uiso   1.00
Zn334  Zn    0.54500   0.52997   0.21188   0.00000  Uiso   1.00
Zn335  Zn    0.46131   0.53868   0.28277   0.00000  Uiso   1.00
C336   C     0.71916   0.49326   0.25871   0.00000  Uiso   1.00
C337   C     0.85190   0.45472   0.46333   0.00000  Uiso   1.00
C338   C     0.86933   0.43220   0.48376   0.00000  Uiso   1.00
C339   C     0.94770   0.50687   0.24120   0.00000  Uiso   1.00
C340   C     0.86879   0.44525   0.02271   0.00000  Uiso   1.00
C341   C     0.84890   0.48149   0.04204   0.00000  Uiso   1.00
C342   C     0.88706   0.42177   0.04284   0.00000  Uiso   1.00
C343   C     0.88409   0.43313   0.08268   0.00000  Uiso   1.00
C344   C     0.84828   0.49321   0.08158   0.00000  Uiso   1.00
C345   C     0.99370   0.50946   0.23758   0.00000  Uiso   1.00
C346   C     0.67377   0.49088   0.26211   0.00000  Uiso   1.00
C347   C     0.77906   0.56217   0.41963   0.00000  Uiso   1.00
C348   C     0.84750   0.65546   0.23811   0.00000  Uiso   1.00
C349   C     0.81819   0.34541   0.26203   0.00000  Uiso   1.00
C350   C     0.82260   0.38945   0.25886   0.00000  Uiso   1.00
C351   C     0.84350   0.61099   0.24136   0.00000  Uiso   1.00
C352   C     0.85492   0.47843   0.14416   0.00000  Uiso   1.00
C353   C     0.81228   0.52121   0.35609   0.00000  Uiso   1.00
C354   C     0.80401   0.53040   0.39888   0.00000  Uiso   1.00
C355   C     0.86407   0.46873   0.10188   0.00000  Uiso   1.00
C356   C     0.77331   0.57151   0.45986   0.00000  Uiso   1.00
C357   C     0.94912   0.39529   0.00746   0.00000  Uiso   1.00
C358   C     0.82214   0.50743   0.41897   0.00000  Uiso   1.00
C359   C     0.93455   0.42662   0.11426   0.00000  Uiso   1.00
C360   C     0.81556   0.51525   0.45986   0.00000  Uiso   1.00
C361   C     0.79180   0.54874   0.47998   0.00000  Uiso   1.00
C362   C     0.83273   0.49143   0.48105   0.00000  Uiso   1.00
C363   C     0.82950   0.50407   0.02150   0.00000  Uiso   1.00
C364   C     0.80596   0.53813   0.04021   0.00000  Uiso   1.00
C365   C     0.78701   0.55948   0.01990   0.00000  Uiso   1.00
H366   H     0.76887   0.58505   0.03555   0.00000  Uiso   1.00
H367   H     0.84240   0.48441   0.40173   0.00000  Uiso   1.00
H368   H     0.80048   0.54874   0.07092   0.00000  Uiso   1.00
H369   H     0.85275   0.44144   0.43384   0.00000  Uiso   1.00
H370   H     0.96646   0.40659   0.03017   0.00000  Uiso   1.00
H371   H     0.95545   0.41879   0.48613   0.00000  Uiso   1.00
H372   H     0.96261   0.36650   0.49111   0.00000  Uiso   1.00
H373   H     0.92479   0.44237   0.14457   0.00000  Uiso   1.00
H374   H     0.95519   0.44933   0.09402   0.00000  Uiso   1.00
H375   H     0.95485   0.40223   0.11457   0.00000  Uiso   1.00
H376   H     0.68342   0.52653   0.21488   0.00000  Uiso   1.00
H377   H     0.98471   0.47382   0.28513   0.00000  Uiso   1.00
H378   H     0.87459   0.33606   0.21608   0.00000  Uiso   1.00
H379   H     0.79073   0.66558   0.28414   0.00000  Uiso   1.00
H380   H     0.83438   0.52051   0.09816   0.00000  Uiso   1.00
H381   H     0.88318   0.40407   0.46866   0.00000  Uiso   1.00
H382   H     0.75468   0.59683   0.47523   0.00000  Uiso   1.00
H383   H     0.76473   0.58035   0.40468   0.00000  Uiso   1.00
O384   O     0.83333   0.50000   0.25000   0.00000  Uiso   1.00
O385   O     0.82360   0.45726   0.16625   0.00000  Uiso   1.00
O386   O     0.79354   0.53979   0.33749   0.00000  Uiso   1.00
O387   O     0.87755   0.50826   0.15877   0.00000  Uiso   1.00
O388   O     0.83865   0.49468   0.33749   0.00000  Uiso   1.00
O389   O     0.90448   0.38536   0.02463   0.00000  Uiso   1.00
O390   O     0.89767   0.40686   0.10284   0.00000  Uiso   1.00
O391   O     0.84515   0.41434   0.27820   0.00000  Uiso   1.00
O392   O     0.81247   0.59469   0.26767   0.00000  Uiso   1.00
O393   O     0.74119   0.46584   0.23607   0.00000  Uiso   1.00
O394   O     0.93452   0.52512   0.21806   0.00000  Uiso   1.00
O395   O     0.73656   0.52293   0.27820   0.00000  Uiso   1.00
O396   O     0.92106   0.48610   0.26768   0.00000  Uiso   1.00
O397   O     0.80467   0.40236   0.23607   0.00000  Uiso   1.00
O398   O     0.87104   0.58860   0.21806   0.00000  Uiso   1.00
Zn399  Zn    0.85910   0.47423   0.28278   0.00000  Uiso   1.00
Zn400  Zn    0.80125   0.45711   0.22257   0.00000  Uiso   1.00
Zn401  Zn    0.87833   0.52997   0.21188   0.00000  Uiso   1.00
Zn402  Zn    0.79465   0.53868   0.28277   0.00000  Uiso   1.00
C403   C     0.05250   0.82659   0.25871   0.00000  Uiso   1.00
C404   C     0.18524   0.78805   0.46333   0.00000  Uiso   1.00
C405   C     0.20267   0.76554   0.48376   0.00000  Uiso   1.00
C406   C     0.28103   0.84021   0.24120   0.00000  Uiso   1.00
C407   C     0.20212   0.77859   0.02271   0.00000  Uiso   1.00
C408   C     0.18223   0.81483   0.04204   0.00000  Uiso   1.00
C409   C     0.22040   0.75511   0.04284   0.00000  Uiso   1.00
C410   C     0.21743   0.76646   0.08268   0.00000  Uiso   1.00
C411   C     0.18162   0.82655   0.08158   0.00000  Uiso   1.00
C412   C     0.32703   0.84279   0.23758   0.00000  Uiso   1.00
C413   C     0.00710   0.82421   0.26211   0.00000  Uiso   1.00
C414   C     0.11239   0.89550   0.41963   0.00000  Uiso   1.00
C415   C     0.18084   0.98880   0.23811   0.00000  Uiso   1.00
C416   C     0.15152   0.67874   0.26203   0.00000  Uiso   1.00
C417   C     0.15593   0.72278   0.25886   0.00000  Uiso   1.00
C418   C     0.17684   0.94432   0.24136   0.00000  Uiso   1.00
C419   C     0.18825   0.81176   0.14416   0.00000  Uiso   1.00
C420   C     0.14561   0.85454   0.35609   0.00000  Uiso   1.00
C421   C     0.13734   0.86373   0.39888   0.00000  Uiso   1.00
C422   C     0.19741   0.80207   0.10188   0.00000  Uiso   1.00
C423   C     0.10664   0.90484   0.45986   0.00000  Uiso   1.00
C424   C     0.28245   0.72863   0.00746   0.00000  Uiso   1.00
C425   C     0.15547   0.84077   0.41897   0.00000  Uiso   1.00
C426   C     0.26788   0.75995   0.11426   0.00000  Uiso   1.00
C427   C     0.14889   0.84859   0.45986   0.00000  Uiso   1.00
C428   C     0.12514   0.88207   0.47998   0.00000  Uiso   1.00
C429   C     0.16606   0.82477   0.48105   0.00000  Uiso   1.00
C430   C     0.16283   0.83741   0.02150   0.00000  Uiso   1.00
C431   C     0.13929   0.87146   0.04021   0.00000  Uiso   1.00
C432   C     0.12034   0.89281   0.01990   0.00000  Uiso   1.00
H433   H     0.10220   0.91838   0.03555   0.00000  Uiso   1.00
H434   H     0.17574   0.81774   0.40173   0.00000  Uiso   1.00
H435   H     0.13381   0.88207   0.07092   0.00000  Uiso   1.00
H436   H     0.18608   0.77477   0.43384   0.00000  Uiso   1.00
H437   H     0.29979   0.73992   0.03017   0.00000  Uiso   1.00
H438   H     0.28879   0.75213   0.48613   0.00000  Uiso   1.00
H439   H     0.29595   0.69983   0.49111   0.00000  Uiso   1.00
H440   H     0.25812   0.77571   0.14457   0.00000  Uiso   1.00
H441   H     0.28853   0.78267   0.09402   0.00000  Uiso   1.00
H442   H     0.28819   0.73556   0.11457   0.00000  Uiso   1.00
H443   H     0.01676   0.85986   0.21488   0.00000  Uiso   1.00
H444   H     0.31804   0.80716   0.28513   0.00000  Uiso   1.00
H445   H     0.20792   0.66939   0.21608   0.00000  Uiso   1.00
H446   H     0.12406   0.99891   0.28414   0.00000  Uiso   1.00
H447   H     0.16771   0.85384   0.09816   0.00000  Uiso   1.00
H448   H     0.21651   0.73740   0.46866   0.00000  Uiso   1.00
H449   H     0.08802   0.93016   0.47523   0.00000  Uiso   1.00
H450   H     0.09807   0.91369   0.40468   0.00000  Uiso   1.00
O451   O     0.16667   0.83333   0.25000   0.00000  Uiso   1.00
O452   O     0.15693   0.79060   0.16625   0.00000  Uiso   1.00
O453   O     0.12687   0.87313   0.33749   0.00000  Uiso   1.00
O454   O     0.21088   0.84159   0.15877   0.00000  Uiso   1.00
O455   O     0.17198   0.82802   0.33749   0.00000  Uiso   1.00
O456   O     0.23781   0.71869   0.02463   0.00000  Uiso   1.00
O457   O     0.23101   0.74020   0.10284   0.00000  Uiso   1.00
O458   O     0.17849   0.74768   0.27820   0.00000  Uiso   1.00
O459   O     0.14581   0.92803   0.26767   0.00000  Uiso   1.00
O460   O     0.07452   0.79917   0.23607   0.00000  Uiso   1.00
O461   O     0.26785   0.85845   0.21806   0.00000  Uiso   1.00
O462   O     0.06990   0.85627   0.27820   0.00000  Uiso   1.00
O463   O     0.25440   0.81944   0.26768   0.00000  Uiso   1.00
O464   O     0.13800   0.73570   0.23607   0.00000  Uiso   1.00
O465   O     0.20437   0.92193   0.21806   0.00000  Uiso   1.00
Zn466  Zn    0.19244   0.80756   0.28278   0.00000  Uiso   1.00
Zn467  Zn    0.13459   0.79044   0.22257   0.00000  Uiso   1.00
Zn468  Zn    0.21166   0.86331   0.21188   0.00000  Uiso   1.00
Zn469  Zn    0.12798   0.87202   0.28277   0.00000  Uiso   1.00
C470   C     0.38583   0.82659   0.25871   0.00000  Uiso   1.00
C471   C     0.51857   0.78805   0.46333   0.00000  Uiso   1.00
C472   C     0.53600   0.76554   0.48376   0.00000  Uiso   1.00
C473   C     0.61436   0.84021   0.24120   0.00000  Uiso   1.00
C474   C     0.53545   0.77859   0.02271   0.00000  Uiso   1.00
C475   C     0.51557   0.81483   0.04204   0.00000  Uiso   1.00
C476   C     0.55373   0.75511   0.04284   0.00000  Uiso   1.00
C477   C     0.55076   0.76646   0.08268   0.00000  Uiso   1.00
C478   C     0.51495   0.82655   0.08158   0.00000  Uiso   1.00
C479   C     0.66036   0.84279   0.23758   0.00000  Uiso   1.00
C480   C     0.34044   0.82421   0.26211   0.00000  Uiso   1.00
C481   C     0.44572   0.89550   0.41963   0.00000  Uiso   1.00
C482   C     0.51417   0.98880   0.23811   0.00000  Uiso   1.00
C483   C     0.48485   0.67874   0.26203   0.00000  Uiso   1.00
C484   C     0.48926   0.72278   0.25886   0.00000  Uiso   1.00
C485   C     0.51017   0.94432   0.24136   0.00000  Uiso   1.00
C486   C     0.52158   0.81176   0.14416   0.00000  Uiso   1.00
C487   C     0.47895   0.85454   0.35609   0.00000  Uiso   1.00
C488   C     0.47068   0.86373   0.39888   0.00000  Uiso   1.00
C489   C     0.53074   0.80207   0.10188   0.00000  Uiso   1.00
C490   C     0.43998   0.90484   0.45986   0.00000  Uiso   1.00
C491   C     0.61578   0.72863   0.00746   0.00000  Uiso   1.00
C492   C     0.48881   0.84077   0.41897   0.00000  Uiso   1.00
C493   C     0.60121   0.75995   0.11426   0.00000  Uiso   1.00
C494   C     0.48223   0.84859   0.45986   0.00000  Uiso   1.00
C495   C     0.45847   0.88207   0.47998   0.00000  Uiso   1.00
C496   C     0.49940   0.82477   0.48105   0.00000  Uiso   1.00
C497   C     0.49616   0.83741   0.02150   0.00000  Uiso   1.00
C498   C     0.47262   0.87146   0.04021   0.00000  Uiso   1.00
C499   C     0.45367   0.89281   0.01990   0.00000  Uiso   1.00
H500   H     0.43554   0.91838   0.03555   0.00000  Uiso   1.00
H501   H     0.50907   0.81774   0.40173   0.00000  Uiso   1.00
H502   H     0.46715   0.88207   0.07092   0.00000  Uiso   1.00
H503   H     0.51941   0.77477   0.43384   0.00000  Uiso   1.00
H504   H     0.63313   0.73992   0.03017   0.00000  Uiso   1.00
H505   H     0.62212   0.75213   0.48613   0.00000  Uiso   1.00
H506   H     0.62928   0.69983   0.49111   0.00000  Uiso   1.00
H507   H     0.59145   0.77571   0.14457   0.00000  Uiso   1.00
H508   H     0.62186   0.78267   0.09402   0.00000  Uiso   1.00
H509   H     0.62152   0.73556   0.11457   0.00000  Uiso   1.00
H510   H     0.35009   0.85986   0.21488   0.00000  Uiso   1.00
H511   H     0.65137   0.80716   0.28513   0.00000  Uiso   1.00
H512   H     0.54125   0.66939   0.21608   0.00000  Uiso   1.00
H513   H     0.45740   0.99891   0.28414   0.00000  Uiso   1.00
H514   H     0.50104   0.85384   0.09816   0.00000  Uiso   1.00
H515   H     0.54985   0.73740   0.46866   0.00000  Uiso   1.00
H516   H     0.42135   0.93016   0.47523   0.00000  Uiso   1.00
H517   H     0.43140   0.91369   0.40468   0.00000  Uiso   1.00
O518   O     0.50000   0.83333   0.25000   0.00000  Uiso   1.00
O519   O     0.49027   0.79060   0.16625   0.00000  Uiso   1.00
O520   O     0.46020   0.87313   0.33749   0.00000  Uiso   1.00
O521   O     0.54421   0.84159   0.15877   0.00000  Uiso   1.00
O522   O     0.50532   0.82802   0.33749   0.00000  Uiso   1.00
O523   O     0.57115   0.71869   0.02463   0.00000  Uiso   1.00
O524   O     0.56434   0.74020   0.10284   0.00000  Uiso   1.00
O525   O     0.51182   0.74768   0.27820   0.00000  Uiso   1.00
O526   O     0.47914   0.92803   0.26767   0.00000  Uiso   1.00
O527   O     0.40785   0.79917   0.23607   0.00000  Uiso   1.00
O528   O     0.60119   0.85845   0.21806   0.00000  Uiso   1.00
O529   O     0.40323   0.85627   0.27820   0.00000  Uiso   1.00
O530   O     0.58773   0.81944   0.26768   0.00000  Uiso   1.00
O531   O     0.47133   0.73570   0.23607   0.00000  Uiso   1.00
O532   O     0.53771   0.92193   0.21806   0.00000  Uiso   1.00
Zn533  Zn    0.52577   0.80756   0.28278   0.00000  Uiso   1.00
Zn534  Zn    0.46792   0.79044   0.22257   0.00000  Uiso   1.00
Zn535  Zn    0.54500   0.86331   0.21188   0.00000  Uiso   1.00
Zn536  Zn    0.46131   0.87202   0.28277   0.00000  Uiso   1.00
C537   C     0.71916   0.82659   0.25871   0.00000  Uiso   1.00
C538   C     0.85190   0.78805   0.46333   0.00000  Uiso   1.00
C539   C     0.86933   0.76554   0.48376   0.00000  Uiso   1.00
C540   C     0.94770   0.84021   0.24120   0.00000  Uiso   1.00
C541   C     0.86879   0.77859   0.02271   0.00000  Uiso   1.00
C542   C     0.84890   0.81483   0.04204   0.00000  Uiso   1.00
C543   C     0.88706   0.75511   0.04284   0.00000  Uiso   1.00
C544   C     0.88409   0.76646   0.08268   0.00000  Uiso   1.00
C545   C     0.84828   0.82655   0.08158   0.00000  Uiso   1.00
C546   C     0.99370   0.84279   0.23758   0.00000  Uiso   1.00
C547   C     0.67377   0.82421   0.26211   0.00000  Uiso   1.00
C548   C     0.77906   0.89550   0.41963   0.00000  Uiso   1.00
C549   C     0.84750   0.98880   0.23811   0.00000  Uiso   1.00
C550   C     0.81819   0.67874   0.26203   0.00000  Uiso   1.00
C551   C     0.82260   0.72278   0.25886   0.00000  Uiso   1.00
C552   C     0.84350   0.94432   0.24136   0.00000  Uiso   1.00
C553   C     0.85492   0.81176   0.14416   0.00000  Uiso   1.00
C554   C     0.81228   0.85454   0.35609   0.00000  Uiso   1.00
C555   C     0.80401   0.86373   0.39888   0.00000  Uiso   1.00
C556   C     0.86407   0.80207   0.10188   0.00000  Uiso   1.00
C557   C     0.77331   0.90484   0.45986   0.00000  Uiso   1.00
C558   C     0.94912   0.72863   0.00746   0.00000  Uiso   1.00
C559   C     0.82214   0.84077   0.41897   0.00000  Uiso   1.00
C560   C     0.93455   0.75995   0.11426   0.00000  Uiso   1.00
C561   C     0.81556   0.84859   0.45986   0.00000  Uiso   1.00
C562   C     0.79180   0.88207   0.47998   0.00000  Uiso   1.00
C563   C     0.83273   0.82477   0.48105   0.00000  Uiso   1.00
C564   C     0.82950   0.83741   0.02150   0.00000  Uiso   1.00
C565   C     0.80596   0.87146   0.04021   0.00000  Uiso   1.00
C566   C     0.78701   0.89281   0.01990   0.00000  Uiso   1.00
H567   H     0.76887   0.91838   0.03555   0.00000  Uiso   1.00
H568   H     0.84240   0.81774   0.40173   0.00000  Uiso   1.00
H569   H     0.80048   0.88207   0.07092   0.00000  Uiso   1.00
H570   H     0.85275   0.77477   0.43384   0.00000  Uiso   1.00
H571   H     0.96646   0.73992   0.03017   0.00000  Uiso   1.00
H572   H     0.95545   0.75213   0.48613   0.00000  Uiso   1.00
H573   H     0.96261   0.69983   0.49111   0.00000  Uiso   1.00
H574   H     0.92479   0.77571   0.14457   0.00000  Uiso   1.00
H575   H     0.95519   0.78267   0.09402   0.00000  Uiso   1.00
H576   H     0.95485   0.73556   0.11457   0.00000  Uiso   1.00
H577   H     0.68342   0.85986   0.21488   0.00000  Uiso   1.00
H578   H     0.98471   0.80716   0.28513   0.00000  Uiso   1.00
H579   H     0.87459   0.66939   0.21608   0.00000  Uiso   1.00
H580   H     0.79073   0.99891   0.28414   0.00000  Uiso   1.00
H581   H     0.83438   0.85384   0.09816   0.00000  Uiso   1.00
H582   H     0.88318   0.73740   0.46866   0.00000  Uiso   1.00
H583   H     0.75468   0.93016   0.47523   0.00000  Uiso   1.00
H584   H     0.76473   0.91369   0.40468   0.00000  Uiso   1.00
O585   O     0.83333   0.83333   0.25000   0.00000  Uiso   1.00
O586   O     0.82360   0.79060   0.16625   0.00000  Uiso   1.00
O587   O     0.79354   0.87313   0.33749   0.00000  Uiso   1.00
O588   O     0.87755   0.84159   0.15877   0.00000  Uiso   1.00
O589   O     0.83865   0.82802   0.33749   0.00000  Uiso   1.00
O590   O     0.90448   0.71869   0.02463   0.00000  Uiso   1.00
O591   O     0.89767   0.74020   0.10284   0.00000  Uiso   1.00
O592   O     0.84515   0.74768   0.27820   0.00000  Uiso   1.00
O593   O     0.81247   0.92803   0.26767   0.00000  Uiso   1.00
O594   O     0.74119   0.79917   0.23607   0.00000  Uiso   1.00
O595   O     0.93452   0.85845   0.21806   0.00000  Uiso   1.00
O596   O     0.73656   0.85627   0.27820   0.00000  Uiso   1.00
O597   O     0.92106   0.81944   0.26768   0.00000  Uiso   1.00
O598   O     0.80467   0.73570   0.23607   0.00000  Uiso   1.00
O599   O     0.87104   0.92193   0.21806   0.00000  Uiso   1.00
Zn600  Zn    0.85910   0.80756   0.28278   0.00000  Uiso   1.00
Zn601  Zn    0.80125   0.79044   0.22257   0.00000  Uiso   1.00
Zn602  Zn    0.87833   0.86331   0.21188   0.00000  Uiso   1.00
Zn603  Zn    0.79465   0.87202   0.28277   0.00000  Uiso   1.00
C604   C     0.05250   0.15992   0.75871   0.00000  Uiso   1.00
C605   C     0.18524   0.12138   0.96333   0.00000  Uiso   1.00
C606   C     0.20267   0.09887   0.98376   0.00000  Uiso   1.00
C607   C     0.28103   0.17354   0.74120   0.00000  Uiso   1.00
C608   C     0.20212   0.11192   0.52271   0.00000  Uiso   1.00
C609   C     0.18223   0.14816   0.54204   0.00000  Uiso   1.00
C610   C     0.22040   0.08844   0.54284   0.00000  Uiso   1.00
C611   C     0.21743   0.09979   0.58268   0.00000  Uiso   1.00
C612   C     0.18162   0.15988   0.58158   0.00000  Uiso   1.00
C613   C     0.32703   0.17613   0.73758   0.00000  Uiso   1.00
C614   C     0.00710   0.15754   0.76211   0.00000  Uiso   1.00
C615   C     0.11239   0.22883   0.91963   0.00000  Uiso   1.00
C616   C     0.18084   0.32213   0.73811   0.00000  Uiso   1.00
C617   C     0.15152   0.01207   0.76203   0.00000  Uiso   1.00
C618   C     0.15593   0.05611   0.75886   0.00000  Uiso   1.00
C619   C     0.17684   0.27765   0.74136   0.00000  Uiso   1.00
C620   C     0.18825   0.14509   0.64416   0.00000  Uiso   1.00
C621   C     0.14561   0.18787   0.85609   0.00000  Uiso   1.00
C622   C     0.13734   0.19707   0.89888   0.00000  Uiso   1.00
C623   C     0.19741   0.13540   0.60188   0.00000  Uiso   1.00
C624   C     0.10664   0.23817   0.95986   0.00000  Uiso   1.00
C625   C     0.28245   0.06196   0.50746   0.00000  Uiso   1.00
C626   C     0.15547   0.17410   0.91897   0.00000  Uiso   1.00
C627   C     0.26788   0.09329   0.61426   0.00000  Uiso   1.00
C628   C     0.14889   0.18192   0.95986   0.00000  Uiso   1.00
C629   C     0.12514   0.21541   0.97998   0.00000  Uiso   1.00
C630   C     0.16606   0.15810   0.98105   0.00000  Uiso   1.00
C631   C     0.16283   0.17074   0.52150   0.00000  Uiso   1.00
C632   C     0.13929   0.20480   0.54021   0.00000  Uiso   1.00
C633   C     0.12034   0.22615   0.51990   0.00000  Uiso   1.00
H634   H     0.10220   0.25172   0.53555   0.00000  Uiso   1.00
H635   H     0.17574   0.15107   0.90173   0.00000  Uiso   1.00
H636   H     0.13381   0.21540   0.57092   0.00000  Uiso   1.00
H637   H     0.18608   0.10810   0.93384   0.00000  Uiso   1.00
H638   H     0.29979   0.07325   0.53017   0.00000  Uiso   1.00
H639   H     0.28879   0.08546   0.98613   0.00000  Uiso   1.00
H640   H     0.29595   0.03316   0.99111   0.00000  Uiso   1.00
H641   H     0.25812   0.10904   0.64457   0.00000  Uiso   1.00
H642   H     0.28853   0.11600   0.59402   0.00000  Uiso   1.00
H643   H     0.28819   0.06889   0.61457   0.00000  Uiso   1.00
H644   H     0.01676   0.19320   0.71488   0.00000  Uiso   1.00
H645   H     0.31804   0.14049   0.78513   0.00000  Uiso   1.00
H646   H     0.20792   0.00273   0.71608   0.00000  Uiso   1.00
H647   H     0.12406   0.33225   0.78414   0.00000  Uiso   1.00
H648   H     0.16771   0.18717   0.59816   0.00000  Uiso   1.00
H649   H     0.21651   0.07073   0.96866   0.00000  Uiso   1.00
H650   H     0.08802   0.26350   0.97523   0.00000  Uiso   1.00
H651   H     0.09807   0.24702   0.90468   0.00000  Uiso   1.00
O652   O     0.16667   0.16667   0.75000   0.00000  Uiso   1.00
O653   O     0.15693   0.12393   0.66625   0.00000  Uiso   1.00
O654   O     0.12687   0.20646   0.83749   0.00000  Uiso   1.00
O655   O     0.21088   0.17493   0.65877   0.00000  Uiso   1.00
O656   O     0.17198   0.16135   0.83749   0.00000  Uiso   1.00
O657   O     0.23781   0.05203   0.52463   0.00000  Uiso   1.00
O658   O     0.23101   0.07353   0.60284   0.00000  Uiso   1.00
O659   O     0.17849   0.08101   0.77820   0.00000  Uiso   1.00
O660   O     0.14581   0.26136   0.76767   0.00000  Uiso   1.00
O661   O     0.07452   0.13251   0.73607   0.00000  Uiso   1.00
O662   O     0.26785   0.19179   0.71806   0.00000  Uiso   1.00
O663   O     0.06990   0.18960   0.77820   0.00000  Uiso   1.00
O664   O     0.25440   0.15277   0.76768   0.00000  Uiso   1.00
O665   O     0.13800   0.06903   0.73607   0.00000  Uiso   1.00
O666   O     0.20437   0.25527   0.71806   0.00000  Uiso   1.00
Zn667  Zn    0.19244   0.14090   0.78278   0.00000  Uiso   1.00
Zn668  Zn    0.13459   0.12378   0.72257   0.00000  Uiso   1.00
Zn669  Zn    0.21166   0.19664   0.71188   0.00000  Uiso   1.00
Zn670  Zn    0.12798   0.20535   0.78277   0.00000  Uiso   1.00
C671   C     0.38583   0.15992   0.75871   0.00000  Uiso   1.00
C672   C     0.51857   0.12138   0.96333   0.00000  Uiso   1.00
C673   C     0.53600   0.09887   0.98376   0.00000  Uiso   1.00
C674   C     0.61436   0.17354   0.74120   0.00000  Uiso   1.00
C675   C     0.53545   0.11192   0.52271   0.00000  Uiso   1.00
C676   C     0.51557   0.14816   0.54204   0.00000  Uiso   1.00
C677   C     0.55373   0.08844   0.54284   0.00000  Uiso   1.00
C678   C     0.55076   0.09979   0.58268   0.00000  Uiso   1.00
C679   C     0.51495   0.15988   0.58158   0.00000  Uiso   1.00
C680   C     0.66036   0.17613   0.73758   0.00000  Uiso   1.00
C681   C     0.34044   0.15754   0.76211   0.00000  Uiso   1.00
C682   C     0.44572   0.22883   0.91963   0.00000  Uiso   1.00
C683   C     0.51417   0.32213   0.73811   0.00000  Uiso   1.00
C684   C     0.48485   0.01207   0.76203   0.00000  Uiso   1.00
C685   C     0.48926   0.05611   0.75886   0.00000  Uiso   1.00
C686   C     0.51017   0.27765   0.74136   0.00000  Uiso   1.00
C687   C     0.52158   0.14509   0.64416   0.00000  Uiso   1.00
C688   C     0.47895   0.18787   0.85609   0.00000  Uiso   1.00
C689   C     0.47068   0.19707   0.89888   0.00000  Uiso   1.00
C690   C     0.53074   0.13540   0.60188   0.00000  Uiso   1.00
C691   C     0.43998   0.23817   0.95986   0.00000  Uiso   1.00
C692   C     0.61578   0.06196   0.50746   0.00000  Uiso   1.00
C693   C     0.48881   0.17410   0.91897   0.00000  Uiso   1.00
C694   C     0.60121   0.09329   0.61426   0.00000  Uiso   1.00
C695   C     0.48223   0.18192   0.95986   0.00000  Uiso   1.00
C696   C     0.45847   0.21541   0.97998   0.00000  Uiso   1.00
C697   C     0.49940   0.15810   0.98105   0.00000  Uiso   1.00
C698   C     0.49616   0.17074   0.52150   0.00000  Uiso   1.00
C699   C     0.47262   0.20480   0.54021   0.00000  Uiso   1.00
C700   C     0.45367   0.22615   0.51990   0.00000  Uiso   1.00
H701   H     0.43554   0.25172   0.53555   0.00000  Uiso   1.00
H702   H     0.50907   0.15107   0.90173   0.00000  Uiso   1.00
H703   H     0.46715   0.21540   0.57092   0.00000  Uiso   1.00
H704   H     0.51941   0.10810   0.93384   0.00000  Uiso   1.00
H705   H     0.63313   0.07325   0.53017   0.00000  Uiso   1.00
H706   H     0.62212   0.08546   0.98613   0.00000  Uiso   1.00
H707   H     0.62928   0.03316   0.99111   0.00000  Uiso   1.00
H708   H     0.59145   0.10904   0.64457   0.00000  Uiso   1.00
H709   H     0.62186   0.11600   0.59402   0.00000  Uiso   1.00
H710   H     0.62152   0.06889   0.61457   0.00000  Uiso   1.00
H711   H     0.35009   0.19320   0.71488   0.00000  Uiso   1.00
H712   H     0.65137   0.14049   0.78513   0.00000  Uiso   1.00
H713   H     0.54125   0.00273   0.71608   0.00000  Uiso   1.00
H714   H     0.45740   0.33225   0.78414   0.00000  Uiso   1.00
H715   H     0.50104   0.18717   0.59816   0.00000  Uiso   1.00
H716   H     0.54985   0.07073   0.96866   0.00000  Uiso   1.00
H717   H     0.42135   0.26350   0.97523   0.00000  Uiso   1.00
H718   H     0.43140   0.24702   0.90468   0.00000  Uiso   1.00
O719   O     0.50000   0.16667   0.75000   0.00000  Uiso   1.00
O720   O     0.49027   0.12393   0.66625   0.00000  Uiso   1.00
O721   O     0.46020   0.20646   0.83749   0.00000  Uiso   1.00
O722   O     0.54421   0.17493   0.65877   0.00000  Uiso   1.00
O723   O     0.50532   0.16135   0.83749   0.00000  Uiso   1.00
O724   O     0.57115   0.05203   0.52463   0.00000  Uiso   1.00
O725   O     0.56434   0.07353   0.60284   0.00000  Uiso   1.00
O726   O     0.51182   0.08101   0.77820   0.00000  Uiso   1.00
O727   O     0.47914   0.26136   0.76767   0.00000  Uiso   1.00
O728   O     0.40785   0.13251   0.73607   0.00000  Uiso   1.00
O729   O     0.60119   0.19179   0.71806   0.00000  Uiso   1.00
O730   O     0.40323   0.18960   0.77820   0.00000  Uiso   1.00
O731   O     0.58773   0.15277   0.76768   0.00000  Uiso   1.00
O732   O     0.47133   0.06903   0.73607   0.00000  Uiso   1.00
O733   O     0.53771   0.25527   0.71806   0.00000  Uiso   1.00
Zn734  Zn    0.52577   0.14090   0.78278   0.00000  Uiso   1.00
Zn735  Zn    0.46792   0.12378   0.72257   0.00000  Uiso   1.00
Zn736  Zn    0.54500   0.19664   0.71188   0.00000  Uiso   1.00
Zn737  Zn    0.46131   0.20535   0.78277   0.00000  Uiso   1.00
C738   C     0.71916   0.15992   0.75871   0.00000  Uiso   1.00
C739   C     0.85190   0.12138   0.96333   0.00000  Uiso   1.00
C740   C     0.86933   0.09887   0.98376   0.00000  Uiso   1.00
C741   C     0.94770   0.17354   0.74120   0.00000  Uiso   1.00
C742   C     0.86879   0.11192   0.52271   0.00000  Uiso   1.00
C743   C     0.84890   0.14816   0.54204   0.00000  Uiso   1.00
C744   C     0.88706   0.08844   0.54284   0.00000  Uiso   1.00
C745   C     0.88409   0.09979   0.58268   0.00000  Uiso   1.00
C746   C     0.84828   0.15988   0.58158   0.00000  Uiso   1.00
C747   C     0.99370   0.17613   0.73758   0.00000  Uiso   1.00
C748   C     0.67377   0.15754   0.76211   0.00000  Uiso   1.00
C749   C     0.77906   0.22883   0.91963   0.00000  Uiso   1.00
C750   C     0.84750   0.32213   0.73811   0.00000  Uiso   1.00
C751   C     0.81819   0.01207   0.76203   0.00000  Uiso   1.00
C752   C     0.82260   0.05611   0.75886   0.00000  Uiso   1.00
C753   C     0.84350   0.27765   0.74136   0.00000  Uiso   1.00
C754   C     0.85492   0.14509   0.64416   0.00000  Uiso   1.00
C755   C     0.81228   0.18787   0.85609   0.00000  Uiso   1.00
C756   C     0.80401   0.19707   0.89888   0.00000  Uiso   1.00
C757   C     0.86407   0.13540   0.60188   0.00000  Uiso   1.00
C758   C     0.77331   0.23817   0.95986   0.00000  Uiso   1.00
C759   C     0.94912   0.06196   0.50746   0.00000  Uiso   1.00
C760   C     0.82214   0.17410   0.91897   0.00000  Uiso   1.00
C761   C     0.93455   0.09329   0.61426   0.00000  Uiso   1.00
C762   C     0.81556   0.18192   0.95986   0.00000  Uiso   1.00
C763   C     0.79180   0.21541   0.97998   0.00000  Uiso   1.00
C764   C     0.83273   0.15810   0.98105   0.00000  Uiso   1.00
C765   C     0.82950   0.17074   0.52150   0.00000  Uiso   1.00
C766   C     0.80596   0.20480   0.54021   0.00000  Uiso   1.00
C767   C     0.78701   0.22615   0.51990   0.00000  Uiso   1.00
H768   H     0.76887   0.25172   0.53555   0.00000  Uiso   1.00
H769   H     0.84240   0.15107   0.90173   0.00000  Uiso   1.00
H770   H     0.80048   0.21540   0.57092   0.00000  Uiso   1.00
H771   H     0.85275   0.10810   0.93384   0.00000  Uiso   1.00
H772   H     0.96646   0.07325   0.53017   0.00000  Uiso   1.00
H773   H     0.95545   0.08546   0.98613   0.00000  Uiso   1.00
H774   H     0.96261   0.03316   0.99111   0.00000  Uiso   1.00
H775   H     0.92479   0.10904   0.64457   0.00000  Uiso   1.00
H776   H     0.95519   0.11600   0.59402   0.00000  Uiso   1.00
H777   H     0.95485   0.06889   0.61457   0.00000  Uiso   1.00
H778   H     0.68342   0.19320   0.71488   0.00000  Uiso   1.00
H779   H     0.98471   0.14049   0.78513   0.00000  Uiso   1.00
H780   H     0.87459   0.00273   0.71608   0.00000  Uiso   1.00
H781   H     0.79073   0.33225   0.78414   0.00000  Uiso   1.00
H782   H     0.83438   0.18717   0.59816   0.00000  Uiso   1.00
H783   H     0.88318   0.07073   0.96866   0.00000  Uiso   1.00
H784   H     0.75468   0.26350   0.97523   0.00000  Uiso   1.00
H785   H     0.76473   0.24702   0.90468   0.00000  Uiso   1.00
O786   O     0.83333   0.16667   0.75000   0.00000  Uiso   1.00
O787   O     0.82360   0.12393   0.66625   0.00000  Uiso   1.00
O788   O     0.79354   0.20646   0.83749   0.00000  Uiso   1.00
O789   O     0.87755   0.17493   0.65877   0.00000  Uiso   1.00
O790   O     0.83865   0.16135   0.83749   0.00000  Uiso   1.00
O791   O     0.90448   0.05203   0.52463   0.00000  Uiso   1.00
O792   O     0.89767   0.07353   0.60284   0.00000  Uiso   1.00
O793   O     0.84515   0.08101   0.77820   0.00000  Uiso   1.00
O794   O     0.81247   0.26136   0.76767   0.00000  Uiso   1.00
O795   O     0.74119   0.13251   0.73607   0.00000  Uiso   1.00
O796   O     0.93452   0.19179   0.71806   0.00000  Uiso   1.00
O797   O     0.73656   0.18960   0.77820   0.00000  Uiso   1.00
O798   O     0.92106   0.15277   0.76768   0.00000  Uiso   1.00
O799   O     0.80467   0.06903   0.73607   0.00000  Uiso   1.00
O800   O     0.87104   0.25527   0.71806   0.00000  Uiso   1.00
Zn801  Zn    0.85910   0.14090   0.78278   0.00000  Uiso   1.00
Zn802  Zn    0.80125   0.12378   0.72257   0.00000  Uiso   1.00
Zn803  Zn    0.87833   0.19664   0.71188   0.00000  Uiso   1.00
Zn804  Zn    0.79465   0.20535   0.78277   0.00000  Uiso   1.00
C805   C     0.05250   0.49326   0.75871   0.00000  Uiso   1.00
C806   C     0.18524   0.45472   0.96333   0.00000  Uiso   1.00
C807   C     0.20267   0.43220   0.98376   0.00000  Uiso   1.00
C808   C     0.28103   0.50687   0.74120   0.00000  Uiso   1.00
C809   C     0.20212   0.44525   0.52271   0.00000  Uiso   1.00
C810   C     0.18223   0.48149   0.54204   0.00000  Uiso   1.00
C811   C     0.22040   0.42177   0.54284   0.00000  Uiso   1.00
C812   C     0.21743   0.43313   0.58268   0.00000  Uiso   1.00
C813   C     0.18162   0.49321   0.58158   0.00000  Uiso   1.00
C814   C     0.32703   0.50946   0.73758   0.00000  Uiso   1.00
C815   C     0.00710   0.49088   0.76211   0.00000  Uiso   1.00
C816   C     0.11239   0.56217   0.91963   0.00000  Uiso   1.00
C817   C     0.18084   0.65546   0.73811   0.00000  Uiso   1.00
C818   C     0.15152   0.34541   0.76203   0.00000  Uiso   1.00
C819   C     0.15593   0.38945   0.75886   0.00000  Uiso   1.00
C820   C     0.17684   0.61099   0.74136   0.00000  Uiso   1.00
C821   C     0.18825   0.47843   0.64416   0.00000  Uiso   1.00
C822   C     0.14561   0.52121   0.85609   0.00000  Uiso   1.00
C823   C     0.13734   0.53040   0.89888   0.00000  Uiso   1.00
C824   C     0.19741   0.46873   0.60188   0.00000  Uiso   1.00
C825   C     0.10664   0.57151   0.95986   0.00000  Uiso   1.00
C826   C     0.28245   0.39529   0.50746   0.00000  Uiso   1.00
C827   C     0.15547   0.50743   0.91897   0.00000  Uiso   1.00
C828   C     0.26788   0.42662   0.61426   0.00000  Uiso   1.00
C829   C     0.14889   0.51525   0.95986   0.00000  Uiso   1.00
C830   C     0.12514   0.54874   0.97998   0.00000  Uiso   1.00
C831   C     0.16606   0.49143   0.98105   0.00000  Uiso   1.00
C832   C     0.16283   0.50407   0.52150   0.00000  Uiso   1.00
C833   C     0.13929   0.53813   0.54021   0.00000  Uiso   1.00
C834   C     0.12034   0.55948   0.51990   0.00000  Uiso   1.00
H835   H     0.10220   0.58505   0.53555   0.00000  Uiso   1.00
H836   H     0.17574   0.48441   0.90173   0.00000  Uiso   1.00
H837   H     0.13381   0.54874   0.57092   0.00000  Uiso   1.00
H838   H     0.18608   0.44144   0.93384   0.00000  Uiso   1.00
H839   H     0.29979   0.40659   0.53017   0.00000  Uiso   1.00
H840   H     0.28879   0.41879   0.98613   0.00000  Uiso   1.00
H841   H     0.29595   0.36650   0.99111   0.00000  Uiso   1.00
H842   H     0.25812   0.44237   0.64457   0.00000  Uiso   1.00
H843   H     0.28853   0.44933   0.59402   0.00000  Uiso   1.00
H844   H     0.28819   0.40223   0.61457   0.00000  Uiso   1.00
H845   H     0.01676   0.52653   0.71488   0.00000  Uiso   1.00
H846   H     0.31804   0.47382   0.78513   0.00000  Uiso   1.00
H847   H     0.20792   0.33606   0.71608   0.00000  Uiso   1.00
H848   H     0.12406   0.66558   0.78414   0.00000  Uiso   1.00
H849   H     0.16771   0.52051   0.59816   0.00000  Uiso   1.00
H850   H     0.21651   0.40407   0.96866   0.00000  Uiso   1.00
H851   H     0.08802   0.59683   0.97523   0.00000  Uiso   1.00
H852   H     0.09807   0.58035   0.90468   0.00000  Uiso   1.00
O853   O     0.16667   0.50000   0.75000   0.00000  Uiso   1.00
O854   O     0.15693   0.45726   0.66625   0.00000  Uiso   1.00
O855   O     0.12687   0.53979   0.83749   0.00000  Uiso   1.00
O856   O     0.21088   0.50826   0.65877   0.00000  Uiso   1.00
O857   O     0.17198   0.49468   0.83749   0.00000  Uiso   1.00
O858   O     0.23781   0.38536   0.52463   0.00000  Uiso   1.00
O859   O     0.23101   0.40686   0.60284   0.00000  Uiso   1.00
O860   O     0.17849   0.41434   0.77820   0.00000  Uiso   1.00
O861   O     0.14581   0.59469   0.76767   0.00000  Uiso   1.00
O862   O     0.07452   0.46584   0.73607   0.00000  Uiso   1.00
O863   O     0.26785   0.52512   0.71806   0.00000  Uiso   1.00
O864   O     0.06990   0.52293   0.77820   0.00000  Uiso   1.00
O865   O     0.25440   0.48610   0.76768   0.00000  Uiso   1.00
O866   O     0.13800   0.40236   0.73607   0.00000  Uiso   1.00
O867   O     0.20437   0.58860   0.71806   0.00000  Uiso   1.00
Zn868  Zn    0.19244   0.47423   0.78278   0.00000  Uiso   1.00
Zn869  Zn    0.13459   0.45711   0.72257   0.00000  Uiso   1.00
Zn870  Zn    0.21166   0.52997   0.71188   0.00000  Uiso   1.00
Zn871  Zn    0.12798   0.53868   0.78277   0.00000  Uiso   1.00
C872   C     0.38583   0.49326   0.75871   0.00000  Uiso   1.00
C873   C     0.51857   0.45472   0.96333   0.00000  Uiso   1.00
C874   C     0.53600   0.43220   0.98376   0.00000  Uiso   1.00
C875   C     0.61436   0.50687   0.74120   0.00000  Uiso   1.00
C876   C     0.53545   0.44525   0.52271   0.00000  Uiso   1.00
C877   C     0.51557   0.48149   0.54204   0.00000  Uiso   1.00
C878   C     0.55373   0.42177   0.54284   0.00000  Uiso   1.00
C879   C     0.55076   0.43313   0.58268   0.00000  Uiso   1.00
C880   C     0.51495   0.49321   0.58158   0.00000  Uiso   1.00
C881   C     0.66036   0.50946   0.73758   0.00000  Uiso   1.00
C882   C     0.34044   0.49088   0.76211   0.00000  Uiso   1.00
C883   C     0.44572   0.56217   0.91963   0.00000  Uiso   1.00
C884   C     0.51417   0.65546   0.73811   0.00000  Uiso   1.00
C885   C     0.48485   0.34541   0.76203   0.00000  Uiso   1.00
C886   C     0.48926   0.38945   0.75886   0.00000  Uiso   1.00
C887   C     0.51017   0.61099   0.74136   0.00000  Uiso   1.00
C888   C     0.52158   0.47843   0.64416   0.00000  Uiso   1.00
C889   C     0.47895   0.52121   0.85609   0.00000  Uiso   1.00
C890   C     0.47068   0.53040   0.89888   0.00000  Uiso   1.00
C891   C     0.53074   0.46873   0.60188   0.00000  Uiso   1.00
C892   C     0.43998   0.57151   0.95986   0.00000  Uiso   1.00
C893   C     0.61578   0.39529   0.50746   0.00000  Uiso   1.00
C894   C     0.48881   0.50743   0.91897   0.00000  Uiso   1.00
C895   C     0.60121   0.42662   0.61426   0.00000  Uiso   1.00
C896   C     0.48223   0.51525   0.95986   0.00000  Uiso   1.00
C897   C     0.45847   0.54874   0.97998   0.00000  Uiso   1.00
C898   C     0.49940   0.49143   0.98105   0.00000  Uiso   1.00
C899   C     0.49616   0.50407   0.52150   0.00000  Uiso   1.00
C900   C     0.47262   0.53813   0.54021   0.00000  Uiso   1.00
C901   C     0.45367   0.55948   0.51990   0.00000  Uiso   1.00
H902   H     0.43554   0.58505   0.53555   0.00000  Uiso   1.00
H903   H     0.50907   0.48441   0.90173   0.00000  Uiso   1.00
H904   H     0.46715   0.54874   0.57092   0.00000  Uiso   1.00
H905   H     0.51941   0.44144   0.93384   0.00000  Uiso   1.00
H906   H     0.63313   0.40659   0.53017   0.00000  Uiso   1.00
H907   H     0.62212   0.41879   0.98613   0.00000  Uiso   1.00
H908   H     0.62928   0.36650   0.99111   0.00000  Uiso   1.00
H909   H     0.59145   0.44237   0.64457   0.00000  Uiso   1.00
H910   H     0.62186   0.44933   0.59402   0.00000  Uiso   1.00
H911   H     0.62152   0.40223   0.61457   0.00000  Uiso   1.00
H912   H     0.35009   0.52653   0.71488   0.00000  Uiso   1.00
H913   H     0.65137   0.47382   0.78513   0.00000  Uiso   1.00
H914   H     0.54125   0.33606   0.71608   0.00000  Uiso   1.00
H915   H     0.45740   0.66558   0.78414   0.00000  Uiso   1.00
H916   H     0.50104   0.52051   0.59816   0.00000  Uiso   1.00
H917   H     0.54985   0.40407   0.96866   0.00000  Uiso   1.00
H918   H     0.42135   0.59683   0.97523   0.00000  Uiso   1.00
H919   H     0.43140   0.58035   0.90468   0.00000  Uiso   1.00
O920   O     0.50000   0.50000   0.75000   0.00000  Uiso   1.00
O921   O     0.49027   0.45726   0.66625   0.00000  Uiso   1.00
O922   O     0.46020   0.53979   0.83749   0.00000  Uiso   1.00
O923   O     0.54421   0.50826   0.65877   0.00000  Uiso   1.00
O924   O     0.50532   0.49468   0.83749   0.00000  Uiso   1.00
O925   O     0.57115   0.38536   0.52463   0.00000  Uiso   1.00
O926   O     0.56434   0.40686   0.60284   0.00000  Uiso   1.00
O927   O     0.51182   0.41434   0.77820   0.00000  Uiso   1.00
O928   O     0.47914   0.59469   0.76767   0.00000  Uiso   1.00
O929   O     0.40785   0.46584   0.73607   0.00000  Uiso   1.00
O930   O     0.60119   0.52512   0.71806   0.00000  Uiso   1.00
O931   O     0.40323   0.52293   0.77820   0.00000  Uiso   1.00
O932   O     0.58773   0.48610   0.76768   0.00000  Uiso   1.00
O933   O     0.47133   0.40236   0.73607   0.00000  Uiso   1.00
O934   O     0.53771   0.58860   0.71806   0.00000  Uiso   1.00
Zn935  Zn    0.52577   0.47423   0.78278   0.00000  Uiso   1.00
Zn936  Zn    0.46792   0.45711   0.72257   0.00000  Uiso   1.00
Zn937  Zn    0.54500   0.52997   0.71188   0.00000  Uiso   1.00
Zn938  Zn    0.46131   0.53868   0.78277   0.00000  Uiso   1.00
C939   C     0.71916   0.49326   0.75871   0.00000  Uiso   1.00
C940   C     0.85190   0.45472   0.96333   0.00000  Uiso   1.00
C941   C     0.86933   0.43220   0.98376   0.00000  Uiso   1.00
C942   C     0.94770   0.50687   0.74120   0.00000  Uiso   1.00
C943   C     0.86879   0.44525   0.52271   0.00000  Uiso   1.00
C944   C     0.84890   0.48149   0.54204   0.00000  Uiso   1.00
C945   C     0.88706   0.42177   0.54284   0.00000  Uiso   1.00
C946   C     0.88409   0.43313   0.58268   0.00000  Uiso   1.00
C947   C     0.84828   0.49321   0.58158   0.00000  Uiso   1.00
C948   C     0.99370   0.50946   0.73758   0.00000  Uiso   1.00
C949   C     0.67377   0.49088   0.76211   0.00000  Uiso   1.00
C950   C     0.77906   0.56217   0.91963   0.00000  Uiso   1.00
C951   C     0.84750   0.65546   0.73811   0.00000  Uiso   1.00
C952   C     0.81819   0.34541   0.76203   0.00000  Uiso   1.00
C953   C     0.82260   0.38945   0.75886   0.00000  Uiso   1.00
C954   C     0.84350   0.61099   0.74136   0.00000  Uiso   1.00
C955   C     0.85492   0.47843   0.64416   0.00000  Uiso   1.00
C956   C     0.81228   0.52121   0.85609   0.00000  Uiso   1.00
C957   C     0.80401   0.53040   0.89888   0.00000  Uiso   1.00
C958   C     0.86407   0.46873   0.60188   0.00000  Uiso   1.00
C959   C     0.77331   0.57151   0.95986   0.00000  Uiso   1.00
C960   C     0.94912   0.39529   0.50746   0.00000  Uiso   1.00
C961   C     0.82214   0.50743   0.91897   0.00000  Uiso   1.00
C962   C     0.93455   0.42662   0.61426   0.00000  Uiso   1.00
C963   C     0.81556   0.51525   0.95986   0.00000  Uiso   1.00
C964   C     0.79180   0.54874   0.97998   0.00000  Uiso   1.00
C965   C     0.83273   0.49143   0.98105   0.00000  Uiso   1.00
C966   C     0.82950   0.50407   0.52150   0.00000  Uiso   1.00
C967   C     0.80596   0.53813   0.54021   0.00000  Uiso   1.00
C968   C     0.78701   0.55948   0.51990   0.00000  Uiso   1.00
H969   H     0.76887   0.58505   0.53555   0.00000  Uiso   1.00
H970   H     0.84240   0.48441   0.90173   0.00000  Uiso   1.00
H971   H     0.80048   0.54874   0.57092   0.00000  Uiso   1.00
H972   H     0.85275   0.44144   0.93384   0.00000  Uiso   1.00
H973   H     0.96646   0.40659   0.53017   0.00000  Uiso   1.00
H974   H     0.95545   0.41879   0.98613   0.00000  Uiso   1.00
H975   H     0.96261   0.36650   0.99111   0.00000  Uiso   1.00
H976   H     0.92479   0.44237   0.64457   0.00000  Uiso   1.00
H977   H     0.95519   0.44933   0.59402   0.00000  Uiso   1.00
H978   H     0.95485   0.40223   0.61457   0.00000  Uiso   1.00
H979   H     0.68342   0.52653   0.71488   0.00000  Uiso   1.00
H980   H     0.98471   0.47382   0.78513   0.00000  Uiso   1.00
H981   H     0.87459   0.33606   0.71608   0.00000  Uiso   1.00
H982   H     0.79073   0.66558   0.78414   0.00000  Uiso   1.00
H983   H     0.83438   0.52051   0.59816   0.00000  Uiso   1.00
H984   H     0.88318   0.40407   0.96866   0.00000  Uiso   1.00
H985   H     0.75468   0.59683   0.97523   0.00000  Uiso   1.00
H986   H     0.76473   0.58035   0.90468   0.00000  Uiso   1.00
O987   O     0.83333   0.50000   0.75000   0.00000  Uiso   1.00
O988   O     0.82360   0.45726   0.66625   0.00000  Uiso   1.00
O989   O     0.79354   0.53979   0.83749   0.00000  Uiso   1.00
O990   O     0.87755   0.50826   0.65877   0.00000  Uiso   1.00
O991   O     0.83865   0.49468   0.83749   0.00000  Uiso   1.00
O992   O     0.90448   0.38536   0.52463   0.00000  Uiso   1.00
O993   O     0.89767   0.40686   0.60284   0.00000  Uiso   1.00
O994   O     0.84515   0.41434   0.77820   0.00000  Uiso   1.00
O995   O     0.81247   0.59469   0.76767   0.00000  Uiso   1.00
O996   O     0.74119   0.46584   0.73607   0.00000  Uiso   1.00
O997   O     0.93452   0.52512   0.71806   0.00000  Uiso   1.00
O998   O     0.73656   0.52293   0.77820   0.00000  Uiso   1.00
O999   O     0.92106   0.48610   0.76768   0.00000  Uiso   1.00
O1000  O     0.80467   0.40236   0.73607   0.00000  Uiso   1.00
O1001  O     0.87104   0.58860   0.71806   0.00000  Uiso   1.00
Zn1002 Zn    0.85910   0.47423   0.78278   0.00000  Uiso   1.00
Zn1003 Zn    0.80125   0.45711   0.72257   0.00000  Uiso   1.00
Zn1004 Zn    0.87833   0.52997   0.71188   0.00000  Uiso   1.00
Zn1005 Zn    0.79465   0.53868   0.78277   0.00000  Uiso   1.00
C1006  C     0.05250   0.82659   0.75871   0.00000  Uiso   1.00
C1007  C     0.18524   0.78805   0.96333   0.00000  Uiso   1.00
C1008  C     0.20267   0.76554   0.98376   0.00000  Uiso   1.00
C1009  C     0.28103   0.84021   0.74120   0.00000  Uiso   1.00
C1010  C     0.20212   0.77859   0.52271   0.00000  Uiso   1.00
C1011  C     0.18223   0.81483   0.54204   0.00000  Uiso   1.00
C1012  C     0.22040   0.75511   0.54284   0.00000  Uiso   1.00
C1013  C     0.21743   0.76646   0.58268   0.00000  Uiso   1.00
C1014  C     0.18162   0.82655   0.58158   0.00000  Uiso   1.00
C1015  C     0.32703   0.84279   0.73758   0.00000  Uiso   1.00
C1016  C     0.00710   0.82421   0.76211   0.00000  Uiso   1.00
C1017  C     0.11239   0.89550   0.91963   0.00000  Uiso   1.00
C1018  C     0.18084   0.98880   0.73811   0.00000  Uiso   1.00
C1019  C     0.15152   0.67874   0.76203   0.00000  Uiso   1.00
C1020  C     0.15593   0.72278   0.75886   0.00000  Uiso   1.00
C1021  C     0.17684   0.94432   0.74136   0.00000  Uiso   1.00
C1022  C     0.18825   0.81176   0.64416   0.00000  Uiso   1.00
C1023  C     0.14561   0.85454   0.85609   0.00000  Uiso   1.00
C1024  C     0.13734   0.86373   0.89888   0.00000  Uiso   1.00
C1025  C     0.19741   0.80207   0.60188   0.00000  Uiso   1.00
C1026  C     0.10664   0.90484   0.95986   0.00000  Uiso   1.00
C1027  C     0.28245   0.72863   0.50746   0.00000  Uiso   1.00
C1028  C     0.15547   0.84077   0.91897   0.00000  Uiso   1.00
C1029  C     0.26788   0.75995   0.61426   0.00000  Uiso   1.00
C1030  C     0.14889   0.84859   0.95986   0.00000  Uiso   1.00
C1031  C     0.12514   0.88207   0.97998   0.00000  Uiso   1.00
C1032  C     0.16606   0.82477   0.98105   0.00000  Uiso   1.00
C1033  C     0.16283   0.83741   0.52150   0.00000  Uiso   1.00
C1034  C     0.13929   0.87146   0.54021   0.00000  Uiso   1.00
C1035  C     0.12034   0.89281   0.51990   0.00000  Uiso   1.00
H1036  H     0.10220   0.91838   0.53555   0.00000  Uiso   1.00
H1037  H     0.17574   0.81774   0.90173   0.00000  Uiso   1.00
H1038  H     0.13381   0.88207   0.57092   0.00000  Uiso   1.00
H1039  H     0.18608   0.77477   0.93384   0.00000  Uiso   1.00
H1040  H     0.29979   0.73992   0.53017   0.00000  Uiso   1.00
H1041  H     0.28879   0.75213   0.98613   0.00000  Uiso   1.00
H1042  H     0.29595   0.69983   0.99111   0.00000  Uiso   1.00
H1043  H     0.25812   0.77571   0.64457   0.00000  Uiso   1.00
H1044  H     0.28853   0.78267   0.59402   0.00000  Uiso   1.00
H1045  H     0.28819   0.73556   0.61457   0.00000  Uiso   1.00
H1046  H     0.01676   0.85986   0.71488   0.00000  Uiso   1.00
H1047  H     0.31804   0.80716   0.78513   0.00000  Uiso   1.00
H1048  H     0.20792   0.66939   0.71608   0.00000  Uiso   1.00
H1049  H     0.12406   0.99891   0.78414   0.00000  Uiso   1.00
H1050  H     0.16771   0.85384   0.59816   0.00000  Uiso   1.00
H1051  H     0.21651   0.73740   0.96866   0.00000  Uiso   1.00
H1052  H     0.08802   0.93016   0.97523   0.00000  Uiso   1.00
H1053  H     0.09807   0.91369   0.90468   0.00000  Uiso   1.00
O1054  O     0.16667   0.83333   0.75000   0.00000  Uiso   1.00
O1055  O     0.15693   0.79060   0.66625   0.00000  Uiso   1.00
O1056  O     0.12687   0.87313   0.83749   0.00000  Uiso   1.00
O1057  O     0.21088   0.84159   0.65877   0.00000  Uiso   1.00
O1058  O     0.17198   0.82802   0.83749   0.00000  Uiso   1.00
O1059  O     0.23781   0.71869   0.52463   0.00000  Uiso   1.00
O1060  O     0.23101   0.74020   0.60284   0.00000  Uiso   1.00
O1061  O     0.17849   0.74768   0.77820   0.00000  Uiso   1.00
O1062  O     0.14581   0.92803   0.76767   0.00000  Uiso   1.00
O1063  O     0.07452   0.79917   0.73607   0.00000  Uiso   1.00
O1064  O     0.26785   0.85845   0.71806   0.00000  Uiso   1.00
O1065  O     0.06990   0.85627   0.77820   0.00000  Uiso   1.00
O1066  O     0.25440   0.81944   0.76768   0.00000  Uiso   1.00
O1067  O     0.13800   0.73570   0.73607   0.00000  Uiso   1.00
O1068  O     0.20437   0.92193   0.71806   0.00000  Uiso   1.00
Zn1069 Zn    0.19244   0.80756   0.78278   0.00000  Uiso   1.00
Zn1070 Zn    0.13459   0.79044   0.72257   0.00000  Uiso   1.00
Zn1071 Zn    0.21166   0.86331   0.71188   0.00000  Uiso   1.00
Zn1072 Zn    0.12798   0.87202   0.78277   0.00000  Uiso   1.00
C1073  C     0.38583   0.82659   0.75871   0.00000  Uiso   1.00
C1074  C     0.51857   0.78805   0.96333   0.00000  Uiso   1.00
C1075  C     0.53600   0.76554   0.98376   0.00000  Uiso   1.00
C1076  C     0.61436   0.84021   0.74120   0.00000  Uiso   1.00
C1077  C     0.53545   0.77859   0.52271   0.00000  Uiso   1.00
C1078  C     0.51557   0.81483   0.54204   0.00000  Uiso   1.00
C1079  C     0.55373   0.75511   0.54284   0.00000  Uiso   1.00
C1080  C     0.55076   0.76646   0.58268   0.00000  Uiso   1.00
C1081  C     0.51495   0.82655   0.58158   0.00000  Uiso   1.00
C1082  C     0.66036   0.84279   0.73758   0.00000  Uiso   1.00
C1083  C     0.34044   0.82421   0.76211   0.00000  Uiso   1.00
C1084  C     0.44572   0.89550   0.91963   0.00000  Uiso   1.00
C1085  C     0.51417   0.98880   0.73811   0.00000  Uiso   1.00
C1086  C     0.48485   0.67874   0.76203   0.00000  Uiso   1.00
C1087  C     0.48926   0.72278   0.75886   0.00000  Uiso   1.00
C1088  C     0.51017   0.94432   0.74136   0.00000  Uiso   1.00
C1089  C     0.52158   0.81176   0.64416   0.00000  Uiso   1.00
C1090  C     0.47895   0.85454   0.85609   0.00000  Uiso   1.00
C1091  C     0.47068   0.86373   0.89888   0.00000  Uiso   1.00
C1092  C     0.53074   0.80207   0.60188   0.00000  Uiso   1.00
C1093  C     0.43998   0.90484   0.95986   0.00000  Uiso   1.00
C1094  C     0.61578   0.72863   0.50746   0.00000  Uiso   1.00
C1095  C     0.48881   0.84077   0.91897   0.00000  Uiso   1.00
C1096  C     0.60121   0.75995   0.61426   0.00000  Uiso   1.00
C1097  C     0.48223   0.84859   0.95986   0.00000  Uiso   1.00
C1098  C     0.45847   0.88207   0.97998   0.00000  Uiso   1.00
C1099  C     0.49940   0.82477   0.98105   0.00000  Uiso   1.00
C1100  C     0.49616   0.83741   0.52150   0.00000  Uiso   1.00
C1101  C     0.47262   0.87146   0.54021   0.00000  Uiso   1.00
C1102  C     0.45367   0.89281   0.51990   0.00000  Uiso   1.00
H1103  H     0.43554   0.91838   0.53555   0.00000  Uiso   1.00
H1104  H     0.50907   0.81774   0.90173   0.00000  Uiso   1.00
H1105  H     0.46715   0.88207   0.57092   0.00000  Uiso   1.00
H1106  H     0.51941   0.77477   0.93384   0.00000  Uiso   1.00
H1107  H     0.63313   0.73992   0.53017   0.00000  Uiso   1.00
H1108  H     0.62212   0.75213   0.98613   0.00000  Uiso   1.00
H1109  H     0.62928   0.69983   0.99111   0.00000  Uiso   1.00
H1110  H     0.59145   0.77571   0.64457   0.00000  Uiso   1.00
H1111  H     0.62186   0.78267   0.59402   0.00000  Uiso   1.00
H1112  H     0.62152   0.73556   0.61457   0.00000  Uiso   1.00
H1113  H     0.35009   0.85986   0.71488   0.00000  Uiso   1.00
H1114  H     0.65137   0.80716   0.78513   0.00000  Uiso   1.00
H1115  H     0.54125   0.66939   0.71608   0.00000  Uiso   1.00
H1116  H     0.45740   0.99891   0.78414   0.00000  Uiso   1.00
H1117  H     0.50104   0.85384   0.59816   0.00000  Uiso   1.00
H1118  H     0.54985   0.73740   0.96866   0.00000  Uiso   1.00
H1119  H     0.42135   0.93016   0.97523   0.00000  Uiso   1.00
H1120  H     0.43140   0.91369   0.90468   0.00000  Uiso   1.00
O1121  O     0.50000   0.83333   0.75000   0.00000  Uiso   1.00
O1122  O     0.49027   0.79060   0.66625   0.00000  Uiso   1.00
O1123  O     0.46020   0.87313   0.83749   0.00000  Uiso   1.00
O1124  O     0.54421   0.84159   0.65877   0.00000  Uiso   1.00
O1125  O     0.50532   0.82802   0.83749   0.00000  Uiso   1.00
O1126  O     0.57115   0.71869   0.52463   0.00000  Uiso   1.00
O1127  O     0.56434   0.74020   0.60284   0.00000  Uiso   1.00
O1128  O     0.51182   0.74768   0.77820   0.00000  Uiso   1.00
O1129  O     0.47914   0.92803   0.76767   0.00000  Uiso   1.00
O1130  O     0.40785   0.79917   0.73607   0.00000  Uiso   1.00
O1131  O     0.60119   0.85845   0.71806   0.00000  Uiso   1.00
O1132  O     0.40323   0.85627   0.77820   0.00000  Uiso   1.00
O1133  O     0.58773   0.81944   0.76768   0.00000  Uiso   1.00
O1134  O     0.47133   0.73570   0.73607   0.00000  Uiso   1.00
O1135  O     0.53771   0.92193   0.71806   0.00000  Uiso   1.00
Zn1136 Zn    0.52577   0.80756   0.78278   0.00000  Uiso   1.00
Zn1137 Zn    0.46792   0.79044   0.72257   0.00000  Uiso   1.00
Zn1138 Zn    0.54500   0.86331   0.71188   0.00000  Uiso   1.00
Zn1139 Zn    0.46131   0.87202   0.78277   0.00000  Uiso   1.00
C1140  C     0.71916   0.82659   0.75871   0.00000  Uiso   1.00
C1141  C     0.85190   0.78805   0.96333   0.00000  Uiso   1.00
C1142  C     0.86933   0.76554   0.98376   0.00000  Uiso   1.00
C1143  C     0.94770   0.84021   0.74120   0.00000  Uiso   1.00
C1144  C     0.86879   0.77859   0.52271   0.00000  Uiso   1.00
C1145  C     0.84890   0.81483   0.54204   0.00000  Uiso   1.00
C1146  C     0.88706   0.75511   0.54284   0.00000  Uiso   1.00
C1147  C     0.88409   0.76646   0.58268   0.00000  Uiso   1.00
C1148  C     0.84828   0.82655   0.58158   0.00000  Uiso   1.00
C1149  C     0.99370   0.84279   0.73758   0.00000  Uiso   1.00
C1150  C     0.67377   0.82421   0.76211   0.00000  Uiso   1.00
C1151  C     0.77906   0.89550   0.91963   0.00000  Uiso   1.00
C1152  C     0.84750   0.98880   0.73811   0.00000  Uiso   1.00
C1153  C     0.81819   0.67874   0.76203   0.00000  Uiso   1.00
C1154  C     0.82260   0.72278   0.75886   0.00000  Uiso   1.00
C1155  C     0.84350   0.94432   0.74136   0.00000  Uiso   1.00
C1156  C     0.85492   0.81176   0.64416   0.00000  Uiso   1.00
C1157  C     0.81228   0.85454   0.85609   0.00000  Uiso   1.00
C1158  C     0.80401   0.86373   0.89888   0.00000  Uiso   1.00
C1159  C     0.86407   0.80207   0.60188   0.00000  Uiso   1.00
C1160  C     0.77331   0.90484   0.95986   0.00000  Uiso   1.00
C1161  C     0.94912   0.72863   0.50746   0.00000  Uiso   1.00
C1162  C     0.82214   0.84077   0.91897   0.00000  Uiso   1.00
C1163  C     0.93455   0.75995   0.61426   0.00000  Uiso   1.00
C1164  C     0.81556   0.84859   0.95986   0.00000  Uiso   1.00
C1165  C     0.79180   0.88207   0.97998   0.00000  Uiso   1.00
C1166  C     0.83273   0.82477   0.98105   0.00000  Uiso   1.00
C1167  C     0.82950   0.83741   0.52150   0.00000  Uiso   1.00
C1168  C     0.80596   0.87146   0.54021   0.00000  Uiso   1.00
C1169  C     0.78701   0.89281   0.51990   0.00000  Uiso   1.00
H1170  H     0.76887   0.91838   0.53555   0.00000  Uiso   1.00
H1171  H     0.84240   0.81774   0.90173   0.00000  Uiso   1.00
H1172  H     0.80048   0.88207   0.57092   0.00000  Uiso   1.00
H1173  H     0.85275   0.77477   0.93384   0.00000  Uiso   1.00
H1174  H     0.96646   0.73992   0.53017   0.00000  Uiso   1.00
H1175  H     0.95545   0.75213   0.98613   0.00000  Uiso   1.00
H1176  H     0.96261   0.69983   0.99111   0.00000  Uiso   1.00
H1177  H     0.92479   0.77571   0.64457   0.00000  Uiso   1.00
H1178  H     0.95519   0.78267   0.59402   0.00000  Uiso   1.00
H1179  H     0.95485   0.73556   0.61457   0.00000  Uiso   1.00
H1180  H     0.68342   0.85986   0.71488   0.00000  Uiso   1.00
H1181  H     0.98471   0.80716   0.78513   0.00000  Uiso   1.00
H1182  H     0.87459   0.66939   0.71608   0.00000  Uiso   1.00
H1183  H     0.79073   0.99891   0.78414   0.00000  Uiso   1.00
H1184  H     0.83438   0.85384   0.59816   0.00000  Uiso   1.00
H1185  H     0.88318   0.73740   0.96866   0.00000  Uiso   1.00
H1186  H     0.75468   0.93016   0.97523   0.00000  Uiso   1.00
H1187  H     0.76473   0.91369   0.90468   0.00000  Uiso   1.00
O1188  O     0.83333   0.83333   0.75000   0.00000  Uiso   1.00
O1189  O     0.82360   0.79060   0.66625   0.00000  Uiso   1.00
O1190  O     0.79354   0.87313   0.83749   0.00000  Uiso   1.00
O1191  O     0.87755   0.84159   0.65877   0.00000  Uiso   1.00
O1192  O     0.83865   0.82802   0.83749   0.00000  Uiso   1.00
O1193  O     0.90448   0.71869   0.52463   0.00000  Uiso   1.00
O1194  O     0.89767   0.74020   0.60284   0.00000  Uiso   1.00
O1195  O     0.84515   0.74768   0.77820   0.00000  Uiso   1.00
O1196  O     0.81247   0.92803   0.76767   0.00000  Uiso   1.00
O1197  O     0.74119   0.79917   0.73607   0.00000  Uiso   1.00
O1198  O     0.93452   0.85845   0.71806   0.00000  Uiso   1.00
O1199  O     0.73656   0.85627   0.77820   0.00000  Uiso   1.00
O1200  O     0.92106   0.81944   0.76768   0.00000  Uiso   1.00
O1201  O     0.80467   0.73570   0.73607   0.00000  Uiso   1.00
O1202  O     0.87104   0.92193   0.71806   0.00000  Uiso   1.00
Zn1203 Zn    0.85910   0.80756   0.78278   0.00000  Uiso   1.00
Zn1204 Zn    0.80125   0.79044   0.72257   0.00000  Uiso   1.00
Zn1205 Zn    0.87833   0.86331   0.71188   0.00000  Uiso   1.00
Zn1206 Zn    0.79465   0.87202   0.78277   0.00000  Uiso   1.00
loop_
_geom_bond_atom_site_label_1
_geom_bond_atom_site_label_2
_geom_bond_distance
_geom_bond_site_symmetry_2
_ccdc_geom_bond_type
C1     C11     1.437   .     S
C1     O58     1.270   .     A
C1     O60     1.270   .     A
C2     H34     1.077   .     S
C2     C3      1.383   .     A
C2     C27     1.412   .     A
C3     H46     1.083   .     S
C3     C608    1.394   .     S
C4     C10     1.455   .     S
C4     O59     1.283   .     A
C4     O61     1.280   .     A
C5     C6      1.422   .     A
C5     C7      1.414   .     A
C5     C606    1.394   1_554 S
C6     C9      1.408   .     A
C6     C28     1.430   .     A
C7     O54     1.384   .     S
C7     C8      1.401   .     A
C8     C20     1.406   .     A
C8     O55     1.386   .     S
C9     H45     1.077   .     S
C9     C20     1.390   .     A
C10    C78     1.335   .     S
C10    H108    1.088   .     S
C11    C144    1.335   1_455 S
C11    H176    1.086   1_455 S
C12    H48     1.083   .     S
C12    C21     1.392   .     A
C12    C19     1.400   .     A
C13    C16     1.452   .     S
C13    C215    1.332   .     S
C13    H244    1.088   .     S
C14    C15     1.436   .     S
C14    C415    1.332   1_545 S
C14    H446    1.086   1_545 S
C15    O56     1.277   .     A
C15    O62     1.277   .     A
C16    O63     1.271   .     A
C16    O57     1.272   .     A
C17    O50     1.271   .     A
C17    O52     1.274   .     A
C17    C20     1.453   .     S
C18    O51     1.282   .     A
C18    O53     1.284   .     A
C18    C19     1.471   .     S
C19    C23     1.399   .     A
C21    C26     1.403   .     A
C21    H47     1.084   .     S
C22    O54     1.410   .     S
C22    H35     1.111   .     S
C22    H639    1.113   1_554 S
C22    H640    1.109   1_554 S
C23    H32     1.075   .     S
C23    C25     1.408   .     A
C24    H38     1.109   .     S
C24    O55     1.414   .     S
C24    H39     1.116   .     S
C24    H40     1.109   .     S
C25    C27     1.426   .     A
C25    C26     1.417   .     A
C26    C633    1.391   .     S
C27    C631    1.426   .     S
C28    C29     1.417   .     A
C28    C630    1.426   1_554 S
C29    C30     1.388   .     A
C29    H33     1.075   .     S
C30    H31     1.084   .     S
C30    C629    1.391   1_554 S
H36    C625    1.113   .     S
H37    C625    1.109   .     S
H41    C144    1.088   1_455 S
H42    C78     1.086   .     S
H43    C415    1.088   1_545 S
H44    C215    1.086   .     S
O49    Zn64    1.962   .     S
O49    Zn65    1.941   .     S
O49    Zn67    1.934   .     S
O49    Zn66    1.937   .     S
O50    Zn65    1.936   .     S
O51    Zn67    1.945   .     S
O52    Zn66    1.938   .     S
O53    Zn64    1.931   .     S
O56    Zn64    1.928   .     S
O57    Zn67    1.932   .     S
O58    Zn65    1.927   .     S
O59    Zn66    1.936   .     S
O60    Zn67    1.931   .     S
O61    Zn64    1.923   .     S
O62    Zn65    1.938   .     S
O63    Zn66    1.931   .     S
C68    C78     1.437   .     S
C68    O125    1.270   .     A
C68    O127    1.270   .     A
C69    H101    1.077   .     S
C69    C70     1.383   .     A
C69    C94     1.412   .     A
C70    H113    1.083   .     S
C70    C675    1.394   .     S
C71    C77     1.455   .     S
C71    O126    1.283   .     A
C71    O128    1.280   .     A
C72    C73     1.422   .     A
C72    C74     1.414   .     A
C72    C673    1.394   1_554 S
C73    C76     1.408   .     A
C73    C95     1.430   .     A
C74    O121    1.384   .     S
C74    C75     1.401   .     A
C75    C87     1.406   .     A
C75    O122    1.386   .     S
C76    H112    1.077   .     S
C76    C87     1.390   .     A
C77    C145    1.335   .     S
C77    H175    1.088   .     S
C79    H115    1.083   .     S
C79    C88     1.392   .     A
C79    C86     1.400   .     A
C80    C83     1.452   .     S
C80    C282    1.332   .     S
C80    H311    1.088   .     S
C81    C82     1.436   .     S
C81    C482    1.332   1_545 S
C81    H513    1.086   1_545 S
C82    O123    1.277   .     A
C82    O129    1.277   .     A
C83    O130    1.271   .     A
C83    O124    1.272   .     A
C84    O117    1.271   .     A
C84    O119    1.274   .     A
C84    C87     1.453   .     S
C85    O118    1.282   .     A
C85    O120    1.284   .     A
C85    C86     1.471   .     S
C86    C90     1.399   .     A
C88    C93     1.403   .     A
C88    H114    1.084   .     S
C89    O121    1.410   .     S
C89    H102    1.111   .     S
C89    H706    1.113   1_554 S
C89    H707    1.109   1_554 S
C90    H99     1.075   .     S
C90    C92     1.408   .     A
C91    H105    1.109   .     S
C91    O122    1.414   .     S
C91    H106    1.116   .     S
C91    H107    1.109   .     S
C92    C94     1.426   .     A
C92    C93     1.417   .     A
C93    C700    1.391   .     S
C94    C698    1.426   .     S
C95    C96     1.417   .     A
C95    C697    1.426   1_554 S
C96    C97     1.388   .     A
C96    H100    1.075   .     S
C97    H98     1.084   .     S
C97    C696    1.391   1_554 S
H103   C692    1.113   .     S
H104   C692    1.109   .     S
H109   C145    1.086   .     S
H110   C482    1.088   1_545 S
H111   C282    1.086   .     S
O116   Zn131   1.962   .     S
O116   Zn132   1.941   .     S
O116   Zn134   1.934   .     S
O116   Zn133   1.937   .     S
O117   Zn132   1.936   .     S
O118   Zn134   1.945   .     S
O119   Zn133   1.938   .     S
O120   Zn131   1.931   .     S
O123   Zn131   1.928   .     S
O124   Zn134   1.932   .     S
O125   Zn132   1.927   .     S
O126   Zn133   1.936   .     S
O127   Zn134   1.931   .     S
O128   Zn131   1.923   .     S
O129   Zn132   1.938   .     S
O130   Zn133   1.931   .     S
C135   C145    1.437   .     S
C135   O192    1.270   .     A
C135   O194    1.270   .     A
C136   H168    1.077   .     S
C136   C137    1.383   .     A
C136   C161    1.412   .     A
C137   H180    1.083   .     S
C137   C742    1.394   .     S
C138   C144    1.455   .     S
C138   O193    1.283   .     A
C138   O195    1.280   .     A
C139   C140    1.422   .     A
C139   C141    1.414   .     A
C139   C740    1.394   1_554 S
C140   C143    1.408   .     A
C140   C162    1.430   .     A
C141   O188    1.384   .     S
C141   C142    1.401   .     A
C142   C154    1.406   .     A
C142   O189    1.386   .     S
C143   H179    1.077   .     S
C143   C154    1.390   .     A
C144   C11     1.335   1_655 S
C144   H41     1.088   1_655 S
C146   H182    1.083   .     S
C146   C155    1.392   .     A
C146   C153    1.400   .     A
C147   C150    1.452   .     S
C147   C349    1.332   .     S
C147   H378    1.088   .     S
C148   C149    1.436   .     S
C148   C549    1.332   1_545 S
C148   H580    1.086   1_545 S
C149   O190    1.277   .     A
C149   O196    1.277   .     A
C150   O197    1.271   .     A
C150   O191    1.272   .     A
C151   O184    1.271   .     A
C151   O186    1.274   .     A
C151   C154    1.453   .     S
C152   O185    1.282   .     A
C152   O187    1.284   .     A
C152   C153    1.471   .     S
C153   C157    1.399   .     A
C155   C160    1.403   .     A
C155   H181    1.084   .     S
C156   O188    1.410   .     S
C156   H169    1.111   .     S
C156   H773    1.113   1_554 S
C156   H774    1.109   1_554 S
C157   H166    1.075   .     S
C157   C159    1.408   .     A
C158   H172    1.109   .     S
C158   O189    1.414   .     S
C158   H173    1.116   .     S
C158   H174    1.109   .     S
C159   C161    1.426   .     A
C159   C160    1.417   .     A
C160   C767    1.391   .     S
C161   C765    1.426   .     S
C162   C163    1.417   .     A
C162   C764    1.426   1_554 S
C163   C164    1.388   .     A
C163   H167    1.075   .     S
C164   H165    1.084   .     S
C164   C763    1.391   1_554 S
H170   C759    1.113   .     S
H171   C759    1.109   .     S
H176   C11     1.086   1_655 S
H177   C549    1.088   1_545 S
H178   C349    1.086   .     S
O183   Zn198   1.962   .     S
O183   Zn199   1.941   .     S
O183   Zn201   1.934   .     S
O183   Zn200   1.937   .     S
O184   Zn199   1.936   .     S
O185   Zn201   1.945   .     S
O186   Zn200   1.938   .     S
O187   Zn198   1.931   .     S
O190   Zn198   1.928   .     S
O191   Zn201   1.932   .     S
O192   Zn199   1.927   .     S
O193   Zn200   1.936   .     S
O194   Zn201   1.931   .     S
O195   Zn198   1.923   .     S
O196   Zn199   1.938   .     S
O197   Zn200   1.931   .     S
C202   C212    1.437   .     S
C202   O259    1.270   .     A
C202   O261    1.270   .     A
C203   H235    1.077   .     S
C203   C204    1.383   .     A
C203   C228    1.412   .     A
C204   H247    1.083   .     S
C204   C809    1.394   .     S
C205   C211    1.455   .     S
C205   O260    1.283   .     A
C205   O262    1.280   .     A
C206   C207    1.422   .     A
C206   C208    1.414   .     A
C206   C807    1.394   1_554 S
C207   C210    1.408   .     A
C207   C229    1.430   .     A
C208   O255    1.384   .     S
C208   C209    1.401   .     A
C209   C221    1.406   .     A
C209   O256    1.386   .     S
C210   H246    1.077   .     S
C210   C221    1.390   .     A
C211   C279    1.335   .     S
C211   H309    1.088   .     S
C212   C345    1.335   1_455 S
C212   H377    1.086   1_455 S
C213   H249    1.083   .     S
C213   C222    1.392   .     A
C213   C220    1.400   .     A
C214   C217    1.452   .     S
C214   C416    1.332   .     S
C214   H445    1.088   .     S
C215   C216    1.436   .     S
C216   O257    1.277   .     A
C216   O263    1.277   .     A
C217   O264    1.271   .     A
C217   O258    1.272   .     A
C218   O251    1.271   .     A
C218   O253    1.274   .     A
C218   C221    1.453   .     S
C219   O252    1.282   .     A
C219   O254    1.284   .     A
C219   C220    1.471   .     S
C220   C224    1.399   .     A
C222   C227    1.403   .     A
C222   H248    1.084   .     S
C223   O255    1.410   .     S
C223   H236    1.111   .     S
C223   H840    1.113   1_554 S
C223   H841    1.109   1_554 S
C224   H233    1.075   .     S
C224   C226    1.408   .     A
C225   H239    1.109   .     S
C225   O256    1.414   .     S
C225   H240    1.116   .     S
C225   H241    1.109   .     S
C226   C228    1.426   .     A
C226   C227    1.417   .     A
C227   C834    1.391   .     S
C228   C832    1.426   .     S
C229   C230    1.417   .     A
C229   C831    1.426   1_554 S
C230   C231    1.388   .     A
C230   H234    1.075   .     S
C231   H232    1.084   .     S
C231   C830    1.391   1_554 S
H237   C826    1.113   .     S
H238   C826    1.109   .     S
H242   C345    1.088   1_455 S
H243   C279    1.086   .     S
H245   C416    1.086   .     S
O250   Zn265   1.962   .     S
O250   Zn266   1.941   .     S
O250   Zn268   1.934   .     S
O250   Zn267   1.937   .     S
O251   Zn266   1.936   .     S
O252   Zn268   1.945   .     S
O253   Zn267   1.938   .     S
O254   Zn265   1.931   .     S
O257   Zn265   1.928   .     S
O258   Zn268   1.932   .     S
O259   Zn266   1.927   .     S
O260   Zn267   1.936   .     S
O261   Zn268   1.931   .     S
O262   Zn265   1.923   .     S
O263   Zn266   1.938   .     S
O264   Zn267   1.931   .     S
C269   C279    1.437   .     S
C269   O326    1.270   .     A
C269   O328    1.270   .     A
C270   H302    1.077   .     S
C270   C271    1.383   .     A
C270   C295    1.412   .     A
C271   H314    1.083   .     S
C271   C876    1.394   .     S
C272   C278    1.455   .     S
C272   O327    1.283   .     A
C272   O329    1.280   .     A
C273   C274    1.422   .     A
C273   C275    1.414   .     A
C273   C874    1.394   1_554 S
C274   C277    1.408   .     A
C274   C296    1.430   .     A
C275   O322    1.384   .     S
C275   C276    1.401   .     A
C276   C288    1.406   .     A
C276   O323    1.386   .     S
C277   H313    1.077   .     S
C277   C288    1.390   .     A
C278   C346    1.335   .     S
C278   H376    1.088   .     S
C280   H316    1.083   .     S
C280   C289    1.392   .     A
C280   C287    1.400   .     A
C281   C284    1.452   .     S
C281   C483    1.332   .     S
C281   H512    1.088   .     S
C282   C283    1.436   .     S
C283   O324    1.277   .     A
C283   O330    1.277   .     A
C284   O331    1.271   .     A
C284   O325    1.272   .     A
C285   O318    1.271   .     A
C285   O320    1.274   .     A
C285   C288    1.453   .     S
C286   O319    1.282   .     A
C286   O321    1.284   .     A
C286   C287    1.471   .     S
C287   C291    1.399   .     A
C289   C294    1.403   .     A
C289   H315    1.084   .     S
C290   O322    1.410   .     S
C290   H303    1.111   .     S
C290   H907    1.113   1_554 S
C290   H908    1.109   1_554 S
C291   H300    1.075   .     S
C291   C293    1.408   .     A
C292   H306    1.109   .     S
C292   O323    1.414   .     S
C292   H307    1.116   .     S
C292   H308    1.109   .     S
C293   C295    1.426   .     A
C293   C294    1.417   .     A
C294   C901    1.391   .     S
C295   C899    1.426   .     S
C296   C297    1.417   .     A
C296   C898    1.426   1_554 S
C297   C298    1.388   .     A
C297   H301    1.075   .     S
C298   H299    1.084   .     S
C298   C897    1.391   1_554 S
H304   C893    1.113   .     S
H305   C893    1.109   .     S
H310   C346    1.086   .     S
H312   C483    1.086   .     S
O317   Zn332   1.962   .     S
O317   Zn333   1.941   .     S
O317   Zn335   1.934   .     S
O317   Zn334   1.937   .     S
O318   Zn333   1.936   .     S
O319   Zn335   1.945   .     S
O320   Zn334   1.938   .     S
O321   Zn332   1.931   .     S
O324   Zn332   1.928   .     S
O325   Zn335   1.932   .     S
O326   Zn333   1.927   .     S
O327   Zn334   1.936   .     S
O328   Zn335   1.931   .     S
O329   Zn332   1.923   .     S
O330   Zn333   1.938   .     S
O331   Zn334   1.931   .     S
C336   C346    1.437   .     S
C336   O393    1.270   .     A
C336   O395    1.270   .     A
C337   H369    1.077   .     S
C337   C338    1.383   .     A
C337   C362    1.412   .     A
C338   H381    1.083   .     S
C338   C943    1.394   .     S
C339   C345    1.455   .     S
C339   O394    1.283   .     A
C339   O396    1.280   .     A
C340   C341    1.422   .     A
C340   C342    1.414   .     A
C340   C941    1.394   1_554 S
C341   C344    1.408   .     A
C341   C363    1.430   .     A
C342   O389    1.384   .     S
C342   C343    1.401   .     A
C343   C355    1.406   .     A
C343   O390    1.386   .     S
C344   H380    1.077   .     S
C344   C355    1.390   .     A
C345   C212    1.335   1_655 S
C345   H242    1.088   1_655 S
C347   H383    1.083   .     S
C347   C356    1.392   .     A
C347   C354    1.400   .     A
C348   C351    1.452   .     S
C348   C550    1.332   .     S
C348   H579    1.088   .     S
C349   C350    1.436   .     S
C350   O391    1.277   .     A
C350   O397    1.277   .     A
C351   O398    1.271   .     A
C351   O392    1.272   .     A
C352   O385    1.271   .     A
C352   O387    1.274   .     A
C352   C355    1.453   .     S
C353   O386    1.282   .     A
C353   O388    1.284   .     A
C353   C354    1.471   .     S
C354   C358    1.399   .     A
C356   C361    1.403   .     A
C356   H382    1.084   .     S
C357   O389    1.410   .     S
C357   H370    1.111   .     S
C357   H974    1.113   1_554 S
C357   H975    1.109   1_554 S
C358   H367    1.075   .     S
C358   C360    1.408   .     A
C359   H373    1.109   .     S
C359   O390    1.414   .     S
C359   H374    1.116   .     S
C359   H375    1.109   .     S
C360   C362    1.426   .     A
C360   C361    1.417   .     A
C361   C968    1.391   .     S
C362   C966    1.426   .     S
C363   C364    1.417   .     A
C363   C965    1.426   1_554 S
C364   C365    1.388   .     A
C364   H368    1.075   .     S
C365   H366    1.084   .     S
C365   C964    1.391   1_554 S
H371   C960    1.113   .     S
H372   C960    1.109   .     S
H377   C212    1.086   1_655 S
H379   C550    1.086   .     S
O384   Zn399   1.962   .     S
O384   Zn400   1.941   .     S
O384   Zn402   1.934   .     S
O384   Zn401   1.937   .     S
O385   Zn400   1.936   .     S
O386   Zn402   1.945   .     S
O387   Zn401   1.938   .     S
O388   Zn399   1.931   .     S
O391   Zn399   1.928   .     S
O392   Zn402   1.932   .     S
O393   Zn400   1.927   .     S
O394   Zn401   1.936   .     S
O395   Zn402   1.931   .     S
O396   Zn399   1.923   .     S
O397   Zn400   1.938   .     S
O398   Zn401   1.931   .     S
C403   C413    1.437   .     S
C403   O460    1.270   .     A
C403   O462    1.270   .     A
C404   H436    1.077   .     S
C404   C405    1.383   .     A
C404   C429    1.412   .     A
C405   H448    1.083   .     S
C405   C1010   1.394   .     S
C406   C412    1.455   .     S
C406   O461    1.283   .     A
C406   O463    1.280   .     A
C407   C408    1.422   .     A
C407   C409    1.414   .     A
C407   C1008   1.394   1_554 S
C408   C411    1.408   .     A
C408   C430    1.430   .     A
C409   O456    1.384   .     S
C409   C410    1.401   .     A
C410   C422    1.406   .     A
C410   O457    1.386   .     S
C411   H447    1.077   .     S
C411   C422    1.390   .     A
C412   C480    1.335   .     S
C412   H510    1.088   .     S
C413   C546    1.335   1_455 S
C413   H578    1.086   1_455 S
C414   H450    1.083   .     S
C414   C423    1.392   .     A
C414   C421    1.400   .     A
C415   C418    1.452   .     S
C415   C14     1.332   1_565 S
C415   H43     1.088   1_565 S
C416   C417    1.436   .     S
C417   O458    1.277   .     A
C417   O464    1.277   .     A
C418   O465    1.271   .     A
C418   O459    1.272   .     A
C419   O452    1.271   .     A
C419   O454    1.274   .     A
C419   C422    1.453   .     S
C420   O453    1.282   .     A
C420   O455    1.284   .     A
C420   C421    1.471   .     S
C421   C425    1.399   .     A
C423   C428    1.403   .     A
C423   H449    1.084   .     S
C424   O456    1.410   .     S
C424   H437    1.111   .     S
C424   H1041   1.113   1_554 S
C424   H1042   1.109   1_554 S
C425   H434    1.075   .     S
C425   C427    1.408   .     A
C426   H440    1.109   .     S
C426   O457    1.414   .     S
C426   H441    1.116   .     S
C426   H442    1.109   .     S
C427   C429    1.426   .     A
C427   C428    1.417   .     A
C428   C1035   1.391   .     S
C429   C1033   1.426   .     S
C430   C431    1.417   .     A
C430   C1032   1.426   1_554 S
C431   C432    1.388   .     A
C431   H435    1.075   .     S
C432   H433    1.084   .     S
C432   C1031   1.391   1_554 S
H438   C1027   1.113   .     S
H439   C1027   1.109   .     S
H443   C546    1.088   1_455 S
H444   C480    1.086   .     S
H446   C14     1.086   1_565 S
O451   Zn466   1.962   .     S
O451   Zn467   1.941   .     S
O451   Zn469   1.934   .     S
O451   Zn468   1.937   .     S
O452   Zn467   1.936   .     S
O453   Zn469   1.945   .     S
O454   Zn468   1.938   .     S
O455   Zn466   1.931   .     S
O458   Zn466   1.928   .     S
O459   Zn469   1.932   .     S
O460   Zn467   1.927   .     S
O461   Zn468   1.936   .     S
O462   Zn469   1.931   .     S
O463   Zn466   1.923   .     S
O464   Zn467   1.938   .     S
O465   Zn468   1.931   .     S
C470   C480    1.437   .     S
C470   O527    1.270   .     A
C470   O529    1.270   .     A
C471   H503    1.077   .     S
C471   C472    1.383   .     A
C471   C496    1.412   .     A
C472   H515    1.083   .     S
C472   C1077   1.394   .     S
C473   C479    1.455   .     S
C473   O528    1.283   .     A
C473   O530    1.280   .     A
C474   C475    1.422   .     A
C474   C476    1.414   .     A
C474   C1075   1.394   1_554 S
C475   C478    1.408   .     A
C475   C497    1.430   .     A
C476   O523    1.384   .     S
C476   C477    1.401   .     A
C477   C489    1.406   .     A
C477   O524    1.386   .     S
C478   H514    1.077   .     S
C478   C489    1.390   .     A
C479   C547    1.335   .     S
C479   H577    1.088   .     S
C481   H517    1.083   .     S
C481   C490    1.392   .     A
C481   C488    1.400   .     A
C482   C485    1.452   .     S
C482   C81     1.332   1_565 S
C482   H110    1.088   1_565 S
C483   C484    1.436   .     S
C484   O525    1.277   .     A
C484   O531    1.277   .     A
C485   O532    1.271   .     A
C485   O526    1.272   .     A
C486   O519    1.271   .     A
C486   O521    1.274   .     A
C486   C489    1.453   .     S
C487   O520    1.282   .     A
C487   O522    1.284   .     A
C487   C488    1.471   .     S
C488   C492    1.399   .     A
C490   C495    1.403   .     A
C490   H516    1.084   .     S
C491   O523    1.410   .     S
C491   H504    1.111   .     S
C491   H1108   1.113   1_554 S
C491   H1109   1.109   1_554 S
C492   H501    1.075   .     S
C492   C494    1.408   .     A
C493   H507    1.109   .     S
C493   O524    1.414   .     S
C493   H508    1.116   .     S
C493   H509    1.109   .     S
C494   C496    1.426   .     A
C494   C495    1.417   .     A
C495   C1102   1.391   .     S
C496   C1100   1.426   .     S
C497   C498    1.417   .     A
C497   C1099   1.426   1_554 S
C498   C499    1.388   .     A
C498   H502    1.075   .     S
C499   H500    1.084   .     S
C499   C1098   1.391   1_554 S
H505   C1094   1.113   .     S
H506   C1094   1.109   .     S
H511   C547    1.086   .     S
H513   C81     1.086   1_565 S
O518   Zn533   1.962   .     S
O518   Zn534   1.941   .     S
O518   Zn536   1.934   .     S
O518   Zn535   1.937   .     S
O519   Zn534   1.936   .     S
O520   Zn536   1.945   .     S
O521   Zn535   1.938   .     S
O522   Zn533   1.931   .     S
O525   Zn533   1.928   .     S
O526   Zn536   1.932   .     S
O527   Zn534   1.927   .     S
O528   Zn535   1.936   .     S
O529   Zn536   1.931   .     S
O530   Zn533   1.923   .     S
O531   Zn534   1.938   .     S
O532   Zn535   1.931   .     S
C537   C547    1.437   .     S
C537   O594    1.270   .     A
C537   O596    1.270   .     A
C538   H570    1.077   .     S
C538   C539    1.383   .     A
C538   C563    1.412   .     A
C539   H582    1.083   .     S
C539   C1144   1.394   .     S
C540   C546    1.455   .     S
C540   O595    1.283   .     A
C540   O597    1.280   .     A
C541   C542    1.422   .     A
C541   C543    1.414   .     A
C541   C1142   1.394   1_554 S
C542   C545    1.408   .     A
C542   C564    1.430   .     A
C543   O590    1.384   .     S
C543   C544    1.401   .     A
C544   C556    1.406   .     A
C544   O591    1.386   .     S
C545   H581    1.077   .     S
C545   C556    1.390   .     A
C546   C413    1.335   1_655 S
C546   H443    1.088   1_655 S
C548   H584    1.083   .     S
C548   C557    1.392   .     A
C548   C555    1.400   .     A
C549   C552    1.452   .     S
C549   C148    1.332   1_565 S
C549   H177    1.088   1_565 S
C550   C551    1.436   .     S
C551   O592    1.277   .     A
C551   O598    1.277   .     A
C552   O599    1.271   .     A
C552   O593    1.272   .     A
C553   O586    1.271   .     A
C553   O588    1.274   .     A
C553   C556    1.453   .     S
C554   O587    1.282   .     A
C554   O589    1.284   .     A
C554   C555    1.471   .     S
C555   C559    1.399   .     A
C557   C562    1.403   .     A
C557   H583    1.084   .     S
C558   O590    1.410   .     S
C558   H571    1.111   .     S
C558   H1175   1.113   1_554 S
C558   H1176   1.109   1_554 S
C559   H568    1.075   .     S
C559   C561    1.408   .     A
C560   H574    1.109   .     S
C560   O591    1.414   .     S
C560   H575    1.116   .     S
C560   H576    1.109   .     S
C561   C563    1.426   .     A
C561   C562    1.417   .     A
C562   C1169   1.391   .     S
C563   C1167   1.426   .     S
C564   C565    1.417   .     A
C564   C1166   1.426   1_554 S
C565   C566    1.388   .     A
C565   H569    1.075   .     S
C566   H567    1.084   .     S
C566   C1165   1.391   1_554 S
H572   C1161   1.113   .     S
H573   C1161   1.109   .     S
H578   C413    1.086   1_655 S
H580   C148    1.086   1_565 S
O585   Zn600   1.962   .     S
O585   Zn601   1.941   .     S
O585   Zn603   1.934   .     S
O585   Zn602   1.937   .     S
O586   Zn601   1.936   .     S
O587   Zn603   1.945   .     S
O588   Zn602   1.938   .     S
O589   Zn600   1.931   .     S
O592   Zn600   1.928   .     S
O593   Zn603   1.932   .     S
O594   Zn601   1.927   .     S
O595   Zn602   1.936   .     S
O596   Zn603   1.931   .     S
O597   Zn600   1.923   .     S
O598   Zn601   1.938   .     S
O599   Zn602   1.931   .     S
C604   C614    1.437   .     S
C604   O661    1.270   .     A
C604   O663    1.270   .     A
C605   H637    1.077   .     S
C605   C606    1.383   .     A
C605   C630    1.412   .     A
C606   H649    1.083   .     S
C606   C5      1.394   1_556 S
C607   C613    1.455   .     S
C607   O662    1.283   .     A
C607   O664    1.280   .     A
C608   C609    1.422   .     A
C608   C610    1.414   .     A
C609   C612    1.408   .     A
C609   C631    1.430   .     A
C610   O657    1.384   .     S
C610   C611    1.401   .     A
C611   C623    1.406   .     A
C611   O658    1.386   .     S
C612   H648    1.077   .     S
C612   C623    1.390   .     A
C613   C681    1.335   .     S
C613   H711    1.088   .     S
C614   C747    1.335   1_455 S
C614   H779    1.086   1_455 S
C615   H651    1.083   .     S
C615   C624    1.392   .     A
C615   C622    1.400   .     A
C616   C619    1.452   .     S
C616   C818    1.332   .     S
C616   H847    1.088   .     S
C617   C618    1.436   .     S
C617   C1018   1.332   1_545 S
C617   H1049   1.086   1_545 S
C618   O659    1.277   .     A
C618   O665    1.277   .     A
C619   O666    1.271   .     A
C619   O660    1.272   .     A
C620   O653    1.271   .     A
C620   O655    1.274   .     A
C620   C623    1.453   .     S
C621   O654    1.282   .     A
C621   O656    1.284   .     A
C621   C622    1.471   .     S
C622   C626    1.399   .     A
C624   C629    1.403   .     A
C624   H650    1.084   .     S
C625   O657    1.410   .     S
C625   H638    1.111   .     S
C626   H635    1.075   .     S
C626   C628    1.408   .     A
C627   H641    1.109   .     S
C627   O658    1.414   .     S
C627   H642    1.116   .     S
C627   H643    1.109   .     S
C628   C630    1.426   .     A
C628   C629    1.417   .     A
C629   C30     1.391   1_556 S
C630   C28     1.426   1_556 S
C631   C632    1.417   .     A
C632   C633    1.388   .     A
C632   H636    1.075   .     S
C633   H634    1.084   .     S
H639   C22     1.113   1_556 S
H640   C22     1.109   1_556 S
H644   C747    1.088   1_455 S
H645   C681    1.086   .     S
H646   C1018   1.088   1_545 S
H647   C818    1.086   .     S
O652   Zn667   1.962   .     S
O652   Zn668   1.941   .     S
O652   Zn670   1.934   .     S
O652   Zn669   1.937   .     S
O653   Zn668   1.936   .     S
O654   Zn670   1.945   .     S
O655   Zn669   1.938   .     S
O656   Zn667   1.931   .     S
O659   Zn667   1.928   .     S
O660   Zn670   1.932   .     S
O661   Zn668   1.927   .     S
O662   Zn669   1.936   .     S
O663   Zn670   1.931   .     S
O664   Zn667   1.923   .     S
O665   Zn668   1.938   .     S
O666   Zn669   1.931   .     S
C671   C681    1.437   .     S
C671   O728    1.270   .     A
C671   O730    1.270   .     A
C672   H704    1.077   .     S
C672   C673    1.383   .     A
C672   C697    1.412   .     A
C673   H716    1.083   .     S
C673   C72     1.394   1_556 S
C674   C680    1.455   .     S
C674   O729    1.283   .     A
C674   O731    1.280   .     A
C675   C676    1.422   .     A
C675   C677    1.414   .     A
C676   C679    1.408   .     A
C676   C698    1.430   .     A
C677   O724    1.384   .     S
C677   C678    1.401   .     A
C678   C690    1.406   .     A
C678   O725    1.386   .     S
C679   H715    1.077   .     S
C679   C690    1.390   .     A
C680   C748    1.335   .     S
C680   H778    1.088   .     S
C682   H718    1.083   .     S
C682   C691    1.392   .     A
C682   C689    1.400   .     A
C683   C686    1.452   .     S
C683   C885    1.332   .     S
C683   H914    1.088   .     S
C684   C685    1.436   .     S
C684   C1085   1.332   1_545 S
C684   H1116   1.086   1_545 S
C685   O726    1.277   .     A
C685   O732    1.277   .     A
C686   O733    1.271   .     A
C686   O727    1.272   .     A
C687   O720    1.271   .     A
C687   O722    1.274   .     A
C687   C690    1.453   .     S
C688   O721    1.282   .     A
C688   O723    1.284   .     A
C688   C689    1.471   .     S
C689   C693    1.399   .     A
C691   C696    1.403   .     A
C691   H717    1.084   .     S
C692   O724    1.410   .     S
C692   H705    1.111   .     S
C693   H702    1.075   .     S
C693   C695    1.408   .     A
C694   H708    1.109   .     S
C694   O725    1.414   .     S
C694   H709    1.116   .     S
C694   H710    1.109   .     S
C695   C697    1.426   .     A
C695   C696    1.417   .     A
C696   C97     1.391   1_556 S
C697   C95     1.426   1_556 S
C698   C699    1.417   .     A
C699   C700    1.388   .     A
C699   H703    1.075   .     S
C700   H701    1.084   .     S
H706   C89     1.113   1_556 S
H707   C89     1.109   1_556 S
H712   C748    1.086   .     S
H713   C1085   1.088   1_545 S
H714   C885    1.086   .     S
O719   Zn734   1.962   .     S
O719   Zn735   1.941   .     S
O719   Zn737   1.934   .     S
O719   Zn736   1.937   .     S
O720   Zn735   1.936   .     S
O721   Zn737   1.945   .     S
O722   Zn736   1.938   .     S
O723   Zn734   1.931   .     S
O726   Zn734   1.928   .     S
O727   Zn737   1.932   .     S
O728   Zn735   1.927   .     S
O729   Zn736   1.936   .     S
O730   Zn737   1.931   .     S
O731   Zn734   1.923   .     S
O732   Zn735   1.938   .     S
O733   Zn736   1.931   .     S
C738   C748    1.437   .     S
C738   O795    1.270   .     A
C738   O797    1.270   .     A
C739   H771    1.077   .     S
C739   C740    1.383   .     A
C739   C764    1.412   .     A
C740   H783    1.083   .     S
C740   C139    1.394   1_556 S
C741   C747    1.455   .     S
C741   O796    1.283   .     A
C741   O798    1.280   .     A
C742   C743    1.422   .     A
C742   C744    1.414   .     A
C743   C746    1.408   .     A
C743   C765    1.430   .     A
C744   O791    1.384   .     S
C744   C745    1.401   .     A
C745   C757    1.406   .     A
C745   O792    1.386   .     S
C746   H782    1.077   .     S
C746   C757    1.390   .     A
C747   C614    1.335   1_655 S
C747   H644    1.088   1_655 S
C749   H785    1.083   .     S
C749   C758    1.392   .     A
C749   C756    1.400   .     A
C750   C753    1.452   .     S
C750   C952    1.332   .     S
C750   H981    1.088   .     S
C751   C752    1.436   .     S
C751   C1152   1.332   1_545 S
C751   H1183   1.086   1_545 S
C752   O793    1.277   .     A
C752   O799    1.277   .     A
C753   O800    1.271   .     A
C753   O794    1.272   .     A
C754   O787    1.271   .     A
C754   O789    1.274   .     A
C754   C757    1.453   .     S
C755   O788    1.282   .     A
C755   O790    1.284   .     A
C755   C756    1.471   .     S
C756   C760    1.399   .     A
C758   C763    1.403   .     A
C758   H784    1.084   .     S
C759   O791    1.410   .     S
C759   H772    1.111   .     S
C760   H769    1.075   .     S
C760   C762    1.408   .     A
C761   H775    1.109   .     S
C761   O792    1.414   .     S
C761   H776    1.116   .     S
C761   H777    1.109   .     S
C762   C764    1.426   .     A
C762   C763    1.417   .     A
C763   C164    1.391   1_556 S
C764   C162    1.426   1_556 S
C765   C766    1.417   .     A
C766   C767    1.388   .     A
C766   H770    1.075   .     S
C767   H768    1.084   .     S
H773   C156    1.113   1_556 S
H774   C156    1.109   1_556 S
H779   C614    1.086   1_655 S
H780   C1152   1.088   1_545 S
H781   C952    1.086   .     S
O786   Zn801   1.962   .     S
O786   Zn802   1.941   .     S
O786   Zn804   1.934   .     S
O786   Zn803   1.937   .     S
O787   Zn802   1.936   .     S
O788   Zn804   1.945   .     S
O789   Zn803   1.938   .     S
O790   Zn801   1.931   .     S
O793   Zn801   1.928   .     S
O794   Zn804   1.932   .     S
O795   Zn802   1.927   .     S
O796   Zn803   1.936   .     S
O797   Zn804   1.931   .     S
O798   Zn801   1.923   .     S
O799   Zn802   1.938   .     S
O800   Zn803   1.931   .     S
C805   C815    1.437   .     S
C805   O862    1.270   .     A
C805   O864    1.270   .     A
C806   H838    1.077   .     S
C806   C807    1.383   .     A
C806   C831    1.412   .     A
C807   H850    1.083   .     S
C807   C206    1.394   1_556 S
C808   C814    1.455   .     S
C808   O863    1.283   .     A
C808   O865    1.280   .     A
C809   C810    1.422   .     A
C809   C811    1.414   .     A
C810   C813    1.408   .     A
C810   C832    1.430   .     A
C811   O858    1.384   .     S
C811   C812    1.401   .     A
C812   C824    1.406   .     A
C812   O859    1.386   .     S
C813   H849    1.077   .     S
C813   C824    1.390   .     A
C814   C882    1.335   .     S
C814   H912    1.088   .     S
C815   C948    1.335   1_455 S
C815   H980    1.086   1_455 S
C816   H852    1.083   .     S
C816   C825    1.392   .     A
C816   C823    1.400   .     A
C817   C820    1.452   .     S
C817   C1019   1.332   .     S
C817   H1048   1.088   .     S
C818   C819    1.436   .     S
C819   O860    1.277   .     A
C819   O866    1.277   .     A
C820   O867    1.271   .     A
C820   O861    1.272   .     A
C821   O854    1.271   .     A
C821   O856    1.274   .     A
C821   C824    1.453   .     S
C822   O855    1.282   .     A
C822   O857    1.284   .     A
C822   C823    1.471   .     S
C823   C827    1.399   .     A
C825   C830    1.403   .     A
C825   H851    1.084   .     S
C826   O858    1.410   .     S
C826   H839    1.111   .     S
C827   H836    1.075   .     S
C827   C829    1.408   .     A
C828   H842    1.109   .     S
C828   O859    1.414   .     S
C828   H843    1.116   .     S
C828   H844    1.109   .     S
C829   C831    1.426   .     A
C829   C830    1.417   .     A
C830   C231    1.391   1_556 S
C831   C229    1.426   1_556 S
C832   C833    1.417   .     A
C833   C834    1.388   .     A
C833   H837    1.075   .     S
C834   H835    1.084   .     S
H840   C223    1.113   1_556 S
H841   C223    1.109   1_556 S
H845   C948    1.088   1_455 S
H846   C882    1.086   .     S
H848   C1019   1.086   .     S
O853   Zn868   1.962   .     S
O853   Zn869   1.941   .     S
O853   Zn871   1.934   .     S
O853   Zn870   1.937   .     S
O854   Zn869   1.936   .     S
O855   Zn871   1.945   .     S
O856   Zn870   1.938   .     S
O857   Zn868   1.931   .     S
O860   Zn868   1.928   .     S
O861   Zn871   1.932   .     S
O862   Zn869   1.927   .     S
O863   Zn870   1.936   .     S
O864   Zn871   1.931   .     S
O865   Zn868   1.923   .     S
O866   Zn869   1.938   .     S
O867   Zn870   1.931   .     S
C872   C882    1.437   .     S
C872   O929    1.270   .     A
C872   O931    1.270   .     A
C873   H905    1.077   .     S
C873   C874    1.383   .     A
C873   C898    1.412   .     A
C874   H917    1.083   .     S
C874   C273    1.394   1_556 S
C875   C881    1.455   .     S
C875   O930    1.283   .     A
C875   O932    1.280   .     A
C876   C877    1.422   .     A
C876   C878    1.414   .     A
C877   C880    1.408   .     A
C877   C899    1.430   .     A
C878   O925    1.384   .     S
C878   C879    1.401   .     A
C879   C891    1.406   .     A
C879   O926    1.386   .     S
C880   H916    1.077   .     S
C880   C891    1.390   .     A
C881   C949    1.335   .     S
C881   H979    1.088   .     S
C883   H919    1.083   .     S
C883   C892    1.392   .     A
C883   C890    1.400   .     A
C884   C887    1.452   .     S
C884   C1086   1.332   .     S
C884   H1115   1.088   .     S
C885   C886    1.436   .     S
C886   O927    1.277   .     A
C886   O933    1.277   .     A
C887   O934    1.271   .     A
C887   O928    1.272   .     A
C888   O921    1.271   .     A
C888   O923    1.274   .     A
C888   C891    1.453   .     S
C889   O922    1.282   .     A
C889   O924    1.284   .     A
C889   C890    1.471   .     S
C890   C894    1.399   .     A
C892   C897    1.403   .     A
C892   H918    1.084   .     S
C893   O925    1.410   .     S
C893   H906    1.111   .     S
C894   H903    1.075   .     S
C894   C896    1.408   .     A
C895   H909    1.109   .     S
C895   O926    1.414   .     S
C895   H910    1.116   .     S
C895   H911    1.109   .     S
C896   C898    1.426   .     A
C896   C897    1.417   .     A
C897   C298    1.391   1_556 S
C898   C296    1.426   1_556 S
C899   C900    1.417   .     A
C900   C901    1.388   .     A
C900   H904    1.075   .     S
C901   H902    1.084   .     S
H907   C290    1.113   1_556 S
H908   C290    1.109   1_556 S
H913   C949    1.086   .     S
H915   C1086   1.086   .     S
O920   Zn935   1.962   .     S
O920   Zn936   1.941   .     S
O920   Zn938   1.934   .     S
O920   Zn937   1.937   .     S
O921   Zn936   1.936   .     S
O922   Zn938   1.945   .     S
O923   Zn937   1.938   .     S
O924   Zn935   1.931   .     S
O927   Zn935   1.928   .     S
O928   Zn938   1.932   .     S
O929   Zn936   1.927   .     S
O930   Zn937   1.936   .     S
O931   Zn938   1.931   .     S
O932   Zn935   1.923   .     S
O933   Zn936   1.938   .     S
O934   Zn937   1.931   .     S
C939   C949    1.437   .     S
C939   O996    1.270   .     A
C939   O998    1.270   .     A
C940   H972    1.077   .     S
C940   C941    1.383   .     A
C940   C965    1.412   .     A
C941   H984    1.083   .     S
C941   C340    1.394   1_556 S
C942   C948    1.455   .     S
C942   O997    1.283   .     A
C942   O999    1.280   .     A
C943   C944    1.422   .     A
C943   C945    1.414   .     A
C944   C947    1.408   .     A
C944   C966    1.430   .     A
C945   O992    1.384   .     S
C945   C946    1.401   .     A
C946   C958    1.406   .     A
C946   O993    1.386   .     S
C947   H983    1.077   .     S
C947   C958    1.390   .     A
C948   C815    1.335   1_655 S
C948   H845    1.088   1_655 S
C950   H986    1.083   .     S
C950   C959    1.392   .     A
C950   C957    1.400   .     A
C951   C954    1.452   .     S
C951   C1153   1.332   .     S
C951   H1182   1.088   .     S
C952   C953    1.436   .     S
C953   O994    1.277   .     A
C953   O1000   1.277   .     A
C954   O1001   1.271   .     A
C954   O995    1.272   .     A
C955   O988    1.271   .     A
C955   O990    1.274   .     A
C955   C958    1.453   .     S
C956   O989    1.282   .     A
C956   O991    1.284   .     A
C956   C957    1.471   .     S
C957   C961    1.399   .     A
C959   C964    1.403   .     A
C959   H985    1.084   .     S
C960   O992    1.410   .     S
C960   H973    1.111   .     S
C961   H970    1.075   .     S
C961   C963    1.408   .     A
C962   H976    1.109   .     S
C962   O993    1.414   .     S
C962   H977    1.116   .     S
C962   H978    1.109   .     S
C963   C965    1.426   .     A
C963   C964    1.417   .     A
C964   C365    1.391   1_556 S
C965   C363    1.426   1_556 S
C966   C967    1.417   .     A
C967   C968    1.388   .     A
C967   H971    1.075   .     S
C968   H969    1.084   .     S
H974   C357    1.113   1_556 S
H975   C357    1.109   1_556 S
H980   C815    1.086   1_655 S
H982   C1153   1.086   .     S
O987   Zn1002  1.962   .     S
O987   Zn1003  1.941   .     S
O987   Zn1005  1.934   .     S
O987   Zn1004  1.937   .     S
O988   Zn1003  1.936   .     S
O989   Zn1005  1.945   .     S
O990   Zn1004  1.938   .     S
O991   Zn1002  1.931   .     S
O994   Zn1002  1.928   .     S
O995   Zn1005  1.932   .     S
O996   Zn1003  1.927   .     S
O997   Zn1004  1.936   .     S
O998   Zn1005  1.931   .     S
O999   Zn1002  1.923   .     S
O1000  Zn1003  1.938   .     S
O1001  Zn1004  1.931   .     S
C1006  C1016   1.437   .     S
C1006  O1063   1.270   .     A
C1006  O1065   1.270   .     A
C1007  H1039   1.077   .     S
C1007  C1008   1.383   .     A
C1007  C1032   1.412   .     A
C1008  H1051   1.083   .     S
C1008  C407    1.394   1_556 S
C1009  C1015   1.455   .     S
C1009  O1064   1.283   .     A
C1009  O1066   1.280   .     A
C1010  C1011   1.422   .     A
C1010  C1012   1.414   .     A
C1011  C1014   1.408   .     A
C1011  C1033   1.430   .     A
C1012  O1059   1.384   .     S
C1012  C1013   1.401   .     A
C1013  C1025   1.406   .     A
C1013  O1060   1.386   .     S
C1014  H1050   1.077   .     S
C1014  C1025   1.390   .     A
C1015  C1083   1.335   .     S
C1015  H1113   1.088   .     S
C1016  C1149   1.335   1_455 S
C1016  H1181   1.086   1_455 S
C1017  H1053   1.083   .     S
C1017  C1026   1.392   .     A
C1017  C1024   1.400   .     A
C1018  C1021   1.452   .     S
C1018  C617    1.332   1_565 S
C1018  H646    1.088   1_565 S
C1019  C1020   1.436   .     S
C1020  O1061   1.277   .     A
C1020  O1067   1.277   .     A
C1021  O1068   1.271   .     A
C1021  O1062   1.272   .     A
C1022  O1055   1.271   .     A
C1022  O1057   1.274   .     A
C1022  C1025   1.453   .     S
C1023  O1056   1.282   .     A
C1023  O1058   1.284   .     A
C1023  C1024   1.471   .     S
C1024  C1028   1.399   .     A
C1026  C1031   1.403   .     A
C1026  H1052   1.084   .     S
C1027  O1059   1.410   .     S
C1027  H1040   1.111   .     S
C1028  H1037   1.075   .     S
C1028  C1030   1.408   .     A
C1029  H1043   1.109   .     S
C1029  O1060   1.414   .     S
C1029  H1044   1.116   .     S
C1029  H1045   1.109   .     S
C1030  C1032   1.426   .     A
C1030  C1031   1.417   .     A
C1031  C432    1.391   1_556 S
C1032  C430    1.426   1_556 S
C1033  C1034   1.417   .     A
C1034  C1035   1.388   .     A
C1034  H1038   1.075   .     S
C1035  H1036   1.084   .     S
H1041  C424    1.113   1_556 S
H1042  C424    1.109   1_556 S
H1046  C1149   1.088   1_455 S
H1047  C1083   1.086   .     S
H1049  C617    1.086   1_565 S
O1054  Zn1069  1.962   .     S
O1054  Zn1070  1.941   .     S
O1054  Zn1072  1.934   .     S
O1054  Zn1071  1.937   .     S
O1055  Zn1070  1.936   .     S
O1056  Zn1072  1.945   .     S
O1057  Zn1071  1.938   .     S
O1058  Zn1069  1.931   .     S
O1061  Zn1069  1.928   .     S
O1062  Zn1072  1.932   .     S
O1063  Zn1070  1.927   .     S
O1064  Zn1071  1.936   .     S
O1065  Zn1072  1.931   .     S
O1066  Zn1069  1.923   .     S
O1067  Zn1070  1.938   .     S
O1068  Zn1071  1.931   .     S
C1073  C1083   1.437   .     S
C1073  O1130   1.270   .     A
C1073  O1132   1.270   .     A
C1074  H1106   1.077   .     S
C1074  C1075   1.383   .     A
C1074  C1099   1.412   .     A
C1075  H1118   1.083   .     S
C1075  C474    1.394   1_556 S
C1076  C1082   1.455   .     S
C1076  O1131   1.283   .     A
C1076  O1133   1.280   .     A
C1077  C1078   1.422   .     A
C1077  C1079   1.414   .     A
C1078  C1081   1.408   .     A
C1078  C1100   1.430   .     A
C1079  O1126   1.384   .     S
C1079  C1080   1.401   .     A
C1080  C1092   1.406   .     A
C1080  O1127   1.386   .     S
C1081  H1117   1.077   .     S
C1081  C1092   1.390   .     A
C1082  C1150   1.335   .     S
C1082  H1180   1.088   .     S
C1084  H1120   1.083   .     S
C1084  C1093   1.392   .     A
C1084  C1091   1.400   .     A
C1085  C1088   1.452   .     S
C1085  C684    1.332   1_565 S
C1085  H713    1.088   1_565 S
C1086  C1087   1.436   .     S
C1087  O1128   1.277   .     A
C1087  O1134   1.277   .     A
C1088  O1135   1.271   .     A
C1088  O1129   1.272   .     A
C1089  O1122   1.271   .     A
C1089  O1124   1.274   .     A
C1089  C1092   1.453   .     S
C1090  O1123   1.282   .     A
C1090  O1125   1.284   .     A
C1090  C1091   1.471   .     S
C1091  C1095   1.399   .     A
C1093  C1098   1.403   .     A
C1093  H1119   1.084   .     S
C1094  O1126   1.410   .     S
C1094  H1107   1.111   .     S
C1095  H1104   1.075   .     S
C1095  C1097   1.408   .     A
C1096  H1110   1.109   .     S
C1096  O1127   1.414   .     S
C1096  H1111   1.116   .     S
C1096  H1112   1.109   .     S
C1097  C1099   1.426   .     A
C1097  C1098   1.417   .     A
C1098  C499    1.391   1_556 S
C1099  C497    1.426   1_556 S
C1100  C1101   1.417   .     A
C1101  C1102   1.388   .     A
C1101  H1105   1.075   .     S
C1102  H1103   1.084   .     S
H1108  C491    1.113   1_556 S
H1109  C491    1.109   1_556 S
H1114  C1150   1.086   .     S
H1116  C684    1.086   1_565 S
O1121  Zn1136  1.962   .     S
O1121  Zn1137  1.941   .     S
O1121  Zn1139  1.934   .     S
O1121  Zn1138  1.937   .     S
O1122  Zn1137  1.936   .     S
O1123  Zn1139  1.945   .     S
O1124  Zn1138  1.938   .     S
O1125  Zn1136  1.931   .     S
O1128  Zn1136  1.928   .     S
O1129  Zn1139  1.932   .     S
O1130  Zn1137  1.927   .     S
O1131  Zn1138  1.936   .     S
O1132  Zn1139  1.931   .     S
O1133  Zn1136  1.923   .     S
O1134  Zn1137  1.938   .     S
O1135  Zn1138  1.931   .     S
C1140  C1150   1.437   .     S
C1140  O1197   1.270   .     A
C1140  O1199   1.270   .     A
C1141  H1173   1.077   .     S
C1141  C1142   1.383   .     A
C1141  C1166   1.412   .     A
C1142  H1185   1.083   .     S
C1142  C541    1.394   1_556 S
C1143  C1149   1.455   .     S
C1143  O1198   1.283   .     A
C1143  O1200   1.280   .     A
C1144  C1145   1.422   .     A
C1144  C1146   1.414   .     A
C1145  C1148   1.408   .     A
C1145  C1167   1.430   .     A
C1146  O1193   1.384   .     S
C1146  C1147   1.401   .     A
C1147  C1159   1.406   .     A
C1147  O1194   1.386   .     S
C1148  H1184   1.077   .     S
C1148  C1159   1.390   .     A
C1149  C1016   1.335   1_655 S
C1149  H1046   1.088   1_655 S
C1151  H1187   1.083   .     S
C1151  C1160   1.392   .     A
C1151  C1158   1.400   .     A
C1152  C1155   1.452   .     S
C1152  C751    1.332   1_565 S
C1152  H780    1.088   1_565 S
C1153  C1154   1.436   .     S
C1154  O1195   1.277   .     A
C1154  O1201   1.277   .     A
C1155  O1202   1.271   .     A
C1155  O1196   1.272   .     A
C1156  O1189   1.271   .     A
C1156  O1191   1.274   .     A
C1156  C1159   1.453   .     S
C1157  O1190   1.282   .     A
C1157  O1192   1.284   .     A
C1157  C1158   1.471   .     S
C1158  C1162   1.399   .     A
C1160  C1165   1.403   .     A
C1160  H1186   1.084   .     S
C1161  O1193   1.410   .     S
C1161  H1174   1.111   .     S
C1162  H1171   1.075   .     S
C1162  C1164   1.408   .     A
C1163  H1177   1.109   .     S
C1163  O1194   1.414   .     S
C1163  H1178   1.116   .     S
C1163  H1179   1.109   .     S
C1164  C1166   1.426   .     A
C1164  C1165   1.417   .     A
C1165  C566    1.391   1_556 S
C1166  C564    1.426   1_556 S
C1167  C1168   1.417   .     A
C1168  C1169   1.388   .     A
C1168  H1172   1.075   .     S
C1169  H1170   1.084   .     S
H1175  C558    1.113   1_556 S
H1176  C558    1.109   1_556 S
H1181  C1016   1.086   1_655 S
H1183  C751    1.086   1_565 S
O1188  Zn1203  1.962   .     S
O1188  Zn1204  1.941   .     S
O1188  Zn1206  1.934   .     S
O1188  Zn1205  1.937   .     S
O1189  Zn1204  1.936   .     S
O1190  Zn1206  1.945   .     S
O1191  Zn1205  1.938   .     S
O1192  Zn1203  1.931   .     S
O1195  Zn1203  1.928   .     S
O1196  Zn1206  1.932   .     S
O1197  Zn1204  1.927   .     S
O1198  Zn1205  1.936   .     S
O1199  Zn1206  1.931   .     S
O1200  Zn1203  1.923   .     S
O1201  Zn1204  1.938   .     S
O1202  Zn1205  1.931   .     S
