data_str_m1_o1_o17_pcu_sym.65
_audit_creation_date              2020-01-03
_audit_creation_method            'Materials Studio'
_symmetry_space_group_name_H-M    'P1'
_symmetry_Int_Tables_number       1
_symmetry_cell_setting            triclinic
loop_
_symmetry_equiv_pos_as_xyz
  x,y,z
_cell_length_a                    36.5864
_cell_length_b                    36.6499
_cell_length_c                    34.4598
_cell_angle_alpha                 89.9155
_cell_angle_beta                  89.9374
_cell_angle_gamma                 89.9058
loop_
_atom_site_label
_atom_site_type_symbol
_atom_site_fract_x
_atom_site_fract_y
_atom_site_fract_z
_atom_site_U_iso_or_equiv
_atom_site_adp_type
_atom_site_occupancy
C1     C     0.47579   0.27317   0.41819   0.00000  Uiso   1.00
C2     C     0.27383   0.47627   0.08180   0.00000  Uiso   1.00
C3     C     0.21795   0.49096   0.54079   0.00000  Uiso   1.00
C4     C     0.47595   0.27345   0.45905   0.00000  Uiso   1.00
C5     C     0.02259   0.22507   0.54100   0.00000  Uiso   1.00
C6     C     0.21836   0.48940   0.45872   0.00000  Uiso   1.00
C7     C     0.28266   0.00865   0.54075   0.00000  Uiso   1.00
C8     C     0.27263   0.47515   0.95909   0.00000  Uiso   1.00
C9     C     0.22628   0.02374   0.04103   0.00000  Uiso   1.00
C10    C     0.03234   0.25982   0.95861   0.00000  Uiso   1.00
C11    C     0.46802   0.24078   0.04078   0.00000  Uiso   1.00
C12    C     0.22590   0.02340   0.95905   0.00000  Uiso   1.00
C13    C     0.46873   0.23858   0.91782   0.00000  Uiso   1.00
C14    C     0.27265   0.47512   0.04100   0.00000  Uiso   1.00
C15    C     0.46841   0.23927   0.95872   0.00000  Uiso   1.00
C16    C     0.03269   0.25858   0.04075   0.00000  Uiso   1.00
C17    C     0.09771   0.34843   0.24982   0.00000  Uiso   1.00
C18    C     0.40193   0.15186   0.75039   0.00000  Uiso   1.00
C19    C     0.15181   0.09799   0.25116   0.00000  Uiso   1.00
C20    C     0.34778   0.40162   0.74973   0.00000  Uiso   1.00
C21    C     0.40184   0.15190   0.25081   0.00000  Uiso   1.00
C22    C     0.09920   0.34693   0.75046   0.00000  Uiso   1.00
C23    C     0.34808   0.40201   0.25087   0.00000  Uiso   1.00
C24    C     0.03264   0.25796   0.08173   0.00000  Uiso   1.00
C25    C     0.15225   0.09849   0.75022   0.00000  Uiso   1.00
C26    C     0.09824   0.15223   0.75066   0.00000  Uiso   1.00
C27    C     0.40227   0.34846   0.25019   0.00000  Uiso   1.00
C28    C     0.15187   0.40187   0.75081   0.00000  Uiso   1.00
C29    C     0.34916   0.09697   0.25043   0.00000  Uiso   1.00
C30    C     0.40180   0.34798   0.75117   0.00000  Uiso   1.00
C31    C     0.09778   0.15162   0.24973   0.00000  Uiso   1.00
C32    C     0.34769   0.09845   0.74981   0.00000  Uiso   1.00
C33    C     0.15196   0.40183   0.25037   0.00000  Uiso   1.00
C34    C     0.49918   0.24920   0.47951   0.00000  Uiso   1.00
C35    C     0.27387   0.47641   0.91829   0.00000  Uiso   1.00
C36    C     0.49927   0.24927   0.52058   0.00000  Uiso   1.00
C37    C     0.25035   0.49963   0.47915   0.00000  Uiso   1.00
C38    C     0.25034   0.49969   0.52028   0.00000  Uiso   1.00
C39    C     0.24919   0.49920   0.97951   0.00000  Uiso   1.00
C40    C     0.24927   0.49927   0.02058   0.00000  Uiso   1.00
C41    C     0.00039   0.24953   0.97915   0.00000  Uiso   1.00
C42    C     0.00039   0.24956   0.02028   0.00000  Uiso   1.00
C43    C     0.13211   0.42631   0.15798   0.00000  Uiso   1.00
C44    C     0.30710   0.12295   0.82753   0.00000  Uiso   1.00
C45    C     0.02866   0.09829   0.22487   0.00000  Uiso   1.00
C46    C     0.22655   0.02381   0.08189   0.00000  Uiso   1.00
C47    C     0.46693   0.40363   0.78347   0.00000  Uiso   1.00
C48    C     0.36580   0.07286   0.15870   0.00000  Uiso   1.00
C49    C     0.14334   0.42595   0.84275   0.00000  Uiso   1.00
C50    C     0.47294   0.40211   0.23364   0.00000  Uiso   1.00
C51    C     0.03058   0.09130   0.77001   0.00000  Uiso   1.00
C52    C     0.10634   0.04495   0.69380   0.00000  Uiso   1.00
C53    C     0.40832   0.47008   0.23210   0.00000  Uiso   1.00
C54    C     0.07767   0.36011   0.84543   0.00000  Uiso   1.00
C55    C     0.37272   0.19360   0.17658   0.00000  Uiso   1.00
C56    C     0.39181   0.46111   0.70102   0.00000  Uiso   1.00
C57    C     0.03187   0.26079   0.91769   0.00000  Uiso   1.00
C58    C     0.09267   0.03067   0.22547   0.00000  Uiso   1.00
C59    C     0.42919   0.13207   0.84026   0.00000  Uiso   1.00
C60    C     0.12171   0.31048   0.16976   0.00000  Uiso   1.00
C61    C     0.38256   0.17597   0.65780   0.00000  Uiso   1.00
C62    C     0.05766   0.37244   0.32805   0.00000  Uiso   1.00
C63    C     0.27869   0.34831   0.72472   0.00000  Uiso   1.00
C64    C     0.21699   0.15366   0.28327   0.00000  Uiso   1.00
C65    C     0.11642   0.32218   0.65901   0.00000  Uiso   1.00
C66    C     0.39405   0.17537   0.34294   0.00000  Uiso   1.00
C67    C     0.22295   0.15216   0.73328   0.00000  Uiso   1.00
C68    C     0.46780   0.24213   0.08170   0.00000  Uiso   1.00
C69    C     0.28160   0.34172   0.27360   0.00000  Uiso   1.00
C70    C     0.35755   0.29692   0.19146   0.00000  Uiso   1.00
C71    C     0.15839   0.22033   0.73246   0.00000  Uiso   1.00
C72    C     0.32820   0.10966   0.34559   0.00000  Uiso   1.00
C73    C     0.12355   0.44303   0.67602   0.00000  Uiso   1.00
C74    C     0.14168   0.21115   0.20096   0.00000  Uiso   1.00
C75    C     0.34269   0.28069   0.72532   0.00000  Uiso   1.00
C76    C     0.17990   0.38138   0.33983   0.00000  Uiso   1.00
C77    C     0.37194   0.06025   0.66992   0.00000  Uiso   1.00
C78    C     0.46608   0.33064   0.38482   0.00000  Uiso   1.00
C79    C     0.00008   0.25001   0.39820   0.00000  Uiso   1.00
C80    C     0.08464   0.21429   0.60683   0.00000  Uiso   1.00
C81    C     0.16261   0.00466   0.38454   0.00000  Uiso   1.00
C82    C     0.33782   0.48319   0.60927   0.00000  Uiso   1.00
C83    C     0.08497   0.21523   0.39358   0.00000  Uiso   1.00
C84    C     0.46959   0.33245   0.61346   0.00000  Uiso   1.00
C85    C     0.33776   0.49411   0.38439   0.00000  Uiso   1.00
C86    C     0.16294   0.01985   0.60657   0.00000  Uiso   1.00
C87    C     0.21595   0.08058   0.88483   0.00000  Uiso   1.00
C88    C     0.33475   0.46453   0.10680   0.00000  Uiso   1.00
C89    C     0.41262   0.25473   0.88463   0.00000  Uiso   1.00
C90    C     0.00033   0.25014   0.60185   0.00000  Uiso   1.00
C91    C     0.08788   0.23323   0.10927   0.00000  Uiso   1.00
C92    C     0.33504   0.46539   0.89358   0.00000  Uiso   1.00
C93    C     0.21944   0.08240   0.11345   0.00000  Uiso   1.00
C94    C     0.08778   0.24426   0.88435   0.00000  Uiso   1.00
C95    C     0.41295   0.27008   0.10598   0.00000  Uiso   1.00
C96    C     0.25022   0.49985   0.39788   0.00000  Uiso   1.00
C97    C     0.02377   0.22620   0.58180   0.00000  Uiso   1.00
C98    C     0.25016   0.00007   0.60176   0.00000  Uiso   1.00
C99    C     0.25008   0.00001   0.89820   0.00000  Uiso   1.00
C100   C     0.25033   0.00015   0.10185   0.00000  Uiso   1.00
C101   C     0.00022   0.24985   0.89788   0.00000  Uiso   1.00
C102   C     0.00018   0.25004   0.10175   0.00000  Uiso   1.00
C103   C     0.04444   0.20047   0.47997   0.00000  Uiso   1.00
C104   C     0.45417   0.29816   0.52013   0.00000  Uiso   1.00
C105   C     0.31413   0.01833   0.47948   0.00000  Uiso   1.00
C106   C     0.18630   0.48189   0.51987   0.00000  Uiso   1.00
C107   C     0.45394   0.29795   0.47994   0.00000  Uiso   1.00
C108   C     0.21871   0.48862   0.41782   0.00000  Uiso   1.00
C109   C     0.04441   0.20042   0.52012   0.00000  Uiso   1.00
C110   C     0.18659   0.48082   0.47966   0.00000  Uiso   1.00
C111   C     0.31438   0.01744   0.51973   0.00000  Uiso   1.00
C112   C     0.29454   0.45056   0.97997   0.00000  Uiso   1.00
C113   C     0.20408   0.04807   0.02013   0.00000  Uiso   1.00
C114   C     0.06414   0.26833   0.97947   0.00000  Uiso   1.00
C115   C     0.43639   0.23161   0.01987   0.00000  Uiso   1.00
C116   C     0.20385   0.04787   0.97994   0.00000  Uiso   1.00
C117   C     0.29452   0.45052   0.02012   0.00000  Uiso   1.00
C118   C     0.43667   0.23059   0.97966   0.00000  Uiso   1.00
C119   C     0.28262   0.00801   0.58174   0.00000  Uiso   1.00
C120   C     0.06440   0.26742   0.01972   0.00000  Uiso   1.00
C121   C     0.25011   0.49997   0.35570   0.00000  Uiso   1.00
C122   C     0.25004   0.00003   0.64417   0.00000  Uiso   1.00
C123   C     0.00001   0.24985   0.35583   0.00000  Uiso   1.00
C124   C     0.00007   0.24988   0.64418   0.00000  Uiso   1.00
C125   C     0.00011   0.24997   0.85570   0.00000  Uiso   1.00
C126   C     0.00004   0.25003   0.14417   0.00000  Uiso   1.00
C127   C     0.25001   0.49985   0.85584   0.00000  Uiso   1.00
C128   C     0.25007   0.49989   0.14418   0.00000  Uiso   1.00
C129   C     0.18000   0.06999   0.25016   0.00000  Uiso   1.00
C130   C     0.02383   0.22637   0.41829   0.00000  Uiso   1.00
C131   C     0.31975   0.42978   0.75023   0.00000  Uiso   1.00
C132   C     0.43019   0.17979   0.25050   0.00000  Uiso   1.00
C133   C     0.07026   0.31973   0.75017   0.00000  Uiso   1.00
C134   C     0.32002   0.43005   0.25017   0.00000  Uiso   1.00
C135   C     0.18020   0.07022   0.75026   0.00000  Uiso   1.00
C136   C     0.07009   0.31991   0.24972   0.00000  Uiso   1.00
C137   C     0.42989   0.18008   0.75025   0.00000  Uiso   1.00
C138   C     0.18020   0.42978   0.75051   0.00000  Uiso   1.00
C139   C     0.32025   0.06974   0.25015   0.00000  Uiso   1.00
C140   C     0.43000   0.31999   0.75017   0.00000  Uiso   1.00
C141   C     0.47660   0.27385   0.58189   0.00000  Uiso   1.00
C142   C     0.06975   0.17978   0.25023   0.00000  Uiso   1.00
C143   C     0.32009   0.06991   0.74972   0.00000  Uiso   1.00
C144   C     0.17990   0.43007   0.25024   0.00000  Uiso   1.00
C145   C     0.07011   0.18017   0.75023   0.00000  Uiso   1.00
C146   C     0.43023   0.32024   0.25027   0.00000  Uiso   1.00
C147   C     0.13926   0.38817   0.21477   0.00000  Uiso   1.00
C148   C     0.35902   0.11337   0.78546   0.00000  Uiso   1.00
C149   C     0.08763   0.11466   0.25310   0.00000  Uiso   1.00
C150   C     0.41204   0.38506   0.74921   0.00000  Uiso   1.00
C151   C     0.36089   0.11223   0.21497   0.00000  Uiso   1.00
C152   C     0.28186   0.01078   0.41769   0.00000  Uiso   1.00
C153   C     0.14089   0.38592   0.78619   0.00000  Uiso   1.00
C154   C     0.41208   0.38510   0.25657   0.00000  Uiso   1.00
C155   C     0.08827   0.11547   0.74530   0.00000  Uiso   1.00
C156   C     0.11552   0.08860   0.74455   0.00000  Uiso   1.00
C157   C     0.38489   0.41209   0.25659   0.00000  Uiso   1.00
C158   C     0.11421   0.35850   0.78606   0.00000  Uiso   1.00
C159   C     0.38618   0.14100   0.21542   0.00000  Uiso   1.00
C160   C     0.38472   0.41194   0.74697   0.00000  Uiso   1.00
C161   C     0.11477   0.08769   0.25367   0.00000  Uiso   1.00
C162   C     0.38771   0.13889   0.78592   0.00000  Uiso   1.00
C163   C     0.21776   0.49222   0.58172   0.00000  Uiso   1.00
C164   C     0.11299   0.36060   0.21449   0.00000  Uiso   1.00
C165   C     0.38942   0.13803   0.71479   0.00000  Uiso   1.00
C166   C     0.10927   0.36313   0.28549   0.00000  Uiso   1.00
C167   C     0.33762   0.36466   0.75304   0.00000  Uiso   1.00
C168   C     0.16204   0.13506   0.24913   0.00000  Uiso   1.00
C169   C     0.11119   0.36191   0.71497   0.00000  Uiso   1.00
C170   C     0.39112   0.13569   0.28614   0.00000  Uiso   1.00
C171   C     0.16218   0.13515   0.75643   0.00000  Uiso   1.00
C172   C     0.33813   0.36505   0.24613   0.00000  Uiso   1.00
C173   C     0.36562   0.33844   0.24436   0.00000  Uiso   1.00
C174   C     0.22575   0.02312   0.91819   0.00000  Uiso   1.00
C175   C     0.13503   0.16220   0.75661   0.00000  Uiso   1.00
C176   C     0.36441   0.10830   0.28600   0.00000  Uiso   1.00
C177   C     0.13651   0.39065   0.71538   0.00000  Uiso   1.00
C178   C     0.13472   0.16195   0.24691   0.00000  Uiso   1.00
C179   C     0.36476   0.33768   0.75361   0.00000  Uiso   1.00
C180   C     0.13799   0.38862   0.28592   0.00000  Uiso   1.00
C181   C     0.36312   0.11048   0.71450   0.00000  Uiso   1.00
C182   C     0.02258   0.22510   0.45909   0.00000  Uiso   1.00
C183   C     0.47632   0.27378   0.54103   0.00000  Uiso   1.00
C184   C     0.28232   0.00985   0.45861   0.00000  Uiso   1.00
H185   H     0.06205   0.18095   0.46569   0.00000  Uiso   1.00
H186   H     0.18692   0.06799   0.03440   0.00000  Uiso   1.00
H187   H     0.12370   0.29926   0.67863   0.00000  Uiso   1.00
H188   H     0.41644   0.12311   0.33867   0.00000  Uiso   1.00
H189   H     0.38047   0.16541   0.36975   0.00000  Uiso   1.00
H190   H     0.37381   0.19104   0.32551   0.00000  Uiso   1.00
H191   H     0.41648   0.19403   0.35153   0.00000  Uiso   1.00
H192   H     0.20204   0.16213   0.78865   0.00000  Uiso   1.00
H193   H     0.22921   0.18178   0.73225   0.00000  Uiso   1.00
H194   H     0.21057   0.14403   0.70512   0.00000  Uiso   1.00
H195   H     0.24900   0.13705   0.73708   0.00000  Uiso   1.00
H196   H     0.28592   0.37258   0.22304   0.00000  Uiso   1.00
H197   H     0.08946   0.27525   0.96506   0.00000  Uiso   1.00
H198   H     0.25473   0.33048   0.26471   0.00000  Uiso   1.00
H199   H     0.27679   0.36431   0.29436   0.00000  Uiso   1.00
H200   H     0.29714   0.31992   0.28871   0.00000  Uiso   1.00
H201   H     0.33387   0.29140   0.24560   0.00000  Uiso   1.00
H202   H     0.35020   0.26838   0.18447   0.00000  Uiso   1.00
H203   H     0.38526   0.30272   0.17988   0.00000  Uiso   1.00
H204   H     0.33733   0.31521   0.17721   0.00000  Uiso   1.00
H205   H     0.12713   0.21314   0.78281   0.00000  Uiso   1.00
H206   H     0.13797   0.24132   0.72398   0.00000  Uiso   1.00
H207   H     0.16438   0.20302   0.70673   0.00000  Uiso   1.00
H208   H     0.41091   0.22511   0.03414   0.00000  Uiso   1.00
H209   H     0.18387   0.23440   0.74131   0.00000  Uiso   1.00
H210   H     0.35090   0.06294   0.32015   0.00000  Uiso   1.00
H211   H     0.32252   0.13773   0.33483   0.00000  Uiso   1.00
H212   H     0.30207   0.09428   0.34625   0.00000  Uiso   1.00
H213   H     0.33884   0.11140   0.37565   0.00000  Uiso   1.00
H214   H     0.14595   0.39472   0.65575   0.00000  Uiso   1.00
H215   H     0.12964   0.45555   0.64758   0.00000  Uiso   1.00
H216   H     0.13047   0.46278   0.69922   0.00000  Uiso   1.00
H217   H     0.09384   0.43682   0.67706   0.00000  Uiso   1.00
H218   H     0.16752   0.20802   0.25430   0.00000  Uiso   1.00
H219   H     0.18658   0.06768   0.96563   0.00000  Uiso   1.00
H220   H     0.14944   0.24032   0.19892   0.00000  Uiso   1.00
H221   H     0.11334   0.20804   0.19001   0.00000  Uiso   1.00
H222   H     0.16066   0.19501   0.18251   0.00000  Uiso   1.00
H223   H     0.37113   0.28554   0.77780   0.00000  Uiso   1.00
H224   H     0.31647   0.26680   0.73186   0.00000  Uiso   1.00
H225   H     0.36319   0.25959   0.71741   0.00000  Uiso   1.00
H226   H     0.33868   0.29905   0.69994   0.00000  Uiso   1.00
H227   H     0.13129   0.41082   0.34094   0.00000  Uiso   1.00
H228   H     0.19254   0.39738   0.36360   0.00000  Uiso   1.00
H229   H     0.20158   0.37408   0.31863   0.00000  Uiso   1.00
H230   H     0.31214   0.43100   0.03439   0.00000  Uiso   1.00
H231   H     0.16863   0.35582   0.35222   0.00000  Uiso   1.00
H232   H     0.32642   0.09496   0.67099   0.00000  Uiso   1.00
H233   H     0.37553   0.05771   0.63811   0.00000  Uiso   1.00
H234   H     0.35523   0.03712   0.68077   0.00000  Uiso   1.00
H235   H     0.39955   0.05920   0.68338   0.00000  Uiso   1.00
H236   H     0.42489   0.29711   0.40709   0.00000  Uiso   1.00
H237   H     0.47259   0.34754   0.41063   0.00000  Uiso   1.00
H238   H     0.44574   0.34534   0.36670   0.00000  Uiso   1.00
H239   H     0.49117   0.32659   0.36721   0.00000  Uiso   1.00
H240   H     0.04448   0.17507   0.59649   0.00000  Uiso   1.00
H241   H     0.41137   0.22357   0.96535   0.00000  Uiso   1.00
H242   H     0.09886   0.21279   0.57841   0.00000  Uiso   1.00
H243   H     0.09921   0.19646   0.62783   0.00000  Uiso   1.00
H244   H     0.08592   0.24280   0.61757   0.00000  Uiso   1.00
H245   H     0.17534   0.45320   0.40677   0.00000  Uiso   1.00
H246   H     0.14950   0.01707   0.41045   0.00000  Uiso   1.00
H247   H     0.14105   0.49278   0.36578   0.00000  Uiso   1.00
H248   H     0.17696   0.02621   0.36775   0.00000  Uiso   1.00
H249   H     0.32914   0.03788   0.59488   0.00000  Uiso   1.00
H250   H     0.34704   0.47192   0.58099   0.00000  Uiso   1.00
H251   H     0.32257   0.46187   0.62550   0.00000  Uiso   1.00
H252   H     0.08991   0.27378   0.03395   0.00000  Uiso   1.00
H253   H     0.36233   0.49079   0.62630   0.00000  Uiso   1.00
H254   H     0.04513   0.17554   0.40349   0.00000  Uiso   1.00
H255   H     0.09897   0.21376   0.42210   0.00000  Uiso   1.00
H256   H     0.08602   0.24381   0.38288   0.00000  Uiso   1.00
H257   H     0.09990   0.19764   0.37267   0.00000  Uiso   1.00
H258   H     0.42676   0.29948   0.59407   0.00000  Uiso   1.00
H259   H     0.47490   0.34870   0.58681   0.00000  Uiso   1.00
H260   H     0.49565   0.32829   0.62941   0.00000  Uiso   1.00
H261   H     0.45061   0.34793   0.63249   0.00000  Uiso   1.00
H262   H     0.32557   0.04573   0.40641   0.00000  Uiso   1.00
H263   H     0.16454   0.38006   0.16177   0.00000  Uiso   1.00
H264   H     0.35054   0.48146   0.41037   0.00000  Uiso   1.00
H265   H     0.35961   0.00572   0.36574   0.00000  Uiso   1.00
H266   H     0.32322   0.47280   0.36754   0.00000  Uiso   1.00
H267   H     0.17029   0.46424   0.59571   0.00000  Uiso   1.00
H268   H     0.15508   0.03021   0.57743   0.00000  Uiso   1.00
H269   H     0.17834   0.04134   0.62228   0.00000  Uiso   1.00
H270   H     0.13757   0.01382   0.62289   0.00000  Uiso   1.00
H271   H     0.17481   0.04698   0.90708   0.00000  Uiso   1.00
H272   H     0.22241   0.09750   0.91065   0.00000  Uiso   1.00
H273   H     0.19560   0.09525   0.86669   0.00000  Uiso   1.00
H274   H     0.10740   0.41247   0.14651   0.00000  Uiso   1.00
H275   H     0.24106   0.07658   0.86725   0.00000  Uiso   1.00
H276   H     0.29469   0.42520   0.09650   0.00000  Uiso   1.00
H277   H     0.34896   0.46307   0.07838   0.00000  Uiso   1.00
H278   H     0.34937   0.44676   0.12780   0.00000  Uiso   1.00
H279   H     0.33595   0.49305   0.11754   0.00000  Uiso   1.00
H280   H     0.42532   0.20322   0.90672   0.00000  Uiso   1.00
H281   H     0.39954   0.26709   0.91058   0.00000  Uiso   1.00
H282   H     0.39104   0.24291   0.86585   0.00000  Uiso   1.00
H283   H     0.42698   0.27630   0.86788   0.00000  Uiso   1.00
H284   H     0.07911   0.28791   0.09486   0.00000  Uiso   1.00
H285   H     0.14789   0.43764   0.13322   0.00000  Uiso   1.00
H286   H     0.09711   0.22197   0.08099   0.00000  Uiso   1.00
H287   H     0.07266   0.21190   0.12552   0.00000  Uiso   1.00
H288   H     0.11238   0.24088   0.12629   0.00000  Uiso   1.00
H289   H     0.29527   0.42562   0.90350   0.00000  Uiso   1.00
H290   H     0.34904   0.46394   0.92210   0.00000  Uiso   1.00
H291   H     0.33603   0.49397   0.88289   0.00000  Uiso   1.00
H292   H     0.35000   0.44782   0.87267   0.00000  Uiso   1.00
H293   H     0.17667   0.04935   0.09407   0.00000  Uiso   1.00
H294   H     0.22471   0.09866   0.08680   0.00000  Uiso   1.00
H295   H     0.24551   0.07829   0.12940   0.00000  Uiso   1.00
H296   H     0.43705   0.31811   0.53440   0.00000  Uiso   1.00
H297   H     0.12355   0.44927   0.17694   0.00000  Uiso   1.00
H298   H     0.20042   0.09784   0.13248   0.00000  Uiso   1.00
H299   H     0.07550   0.29584   0.90641   0.00000  Uiso   1.00
H300   H     0.10060   0.23161   0.91031   0.00000  Uiso   1.00
H301   H     0.10961   0.25593   0.86570   0.00000  Uiso   1.00
H302   H     0.07327   0.22294   0.86748   0.00000  Uiso   1.00
H303   H     0.42026   0.21434   0.09592   0.00000  Uiso   1.00
H304   H     0.40531   0.28019   0.07668   0.00000  Uiso   1.00
H305   H     0.42829   0.29170   0.12157   0.00000  Uiso   1.00
H306   H     0.38746   0.26425   0.12213   0.00000  Uiso   1.00
H307   H     0.35694   0.10149   0.84474   0.00000  Uiso   1.00
H308   H     0.31265   0.15264   0.83023   0.00000  Uiso   1.00
H309   H     0.29461   0.11322   0.85500   0.00000  Uiso   1.00
H310   H     0.28732   0.11834   0.80361   0.00000  Uiso   1.00
H311   H     0.04596   0.08614   0.28114   0.00000  Uiso   1.00
H312   H     0.02272   0.06872   0.22208   0.00000  Uiso   1.00
H313   H     0.04278   0.10772   0.19807   0.00000  Uiso   1.00
H314   H     0.00226   0.11303   0.22745   0.00000  Uiso   1.00
H315   H     0.45592   0.41317   0.72515   0.00000  Uiso   1.00
H316   H     0.33946   0.02519   0.46507   0.00000  Uiso   1.00
H317   H     0.45826   0.43100   0.79364   0.00000  Uiso   1.00
H318   H     0.49707   0.40368   0.77972   0.00000  Uiso   1.00
H319   H     0.45983   0.38337   0.80624   0.00000  Uiso   1.00
H320   H     0.33597   0.12110   0.16158   0.00000  Uiso   1.00
H321   H     0.39130   0.08462   0.14658   0.00000  Uiso   1.00
H322   H     0.34912   0.06203   0.13443   0.00000  Uiso   1.00
H323   H     0.37323   0.04983   0.17810   0.00000  Uiso   1.00
H324   H     0.16590   0.37372   0.83899   0.00000  Uiso   1.00
H325   H     0.12959   0.41610   0.86951   0.00000  Uiso   1.00
H326   H     0.12320   0.44147   0.82504   0.00000  Uiso   1.00
H327   H     0.16078   0.47551   0.53413   0.00000  Uiso   1.00
H328   H     0.16566   0.44470   0.85140   0.00000  Uiso   1.00
H329   H     0.45178   0.41223   0.28888   0.00000  Uiso   1.00
H330   H     0.47929   0.43171   0.23262   0.00000  Uiso   1.00
H331   H     0.46063   0.39402   0.20543   0.00000  Uiso   1.00
H332   H     0.49894   0.38693   0.23754   0.00000  Uiso   1.00
H333   H     0.03673   0.12300   0.71979   0.00000  Uiso   1.00
H334   H     0.01488   0.06708   0.76039   0.00000  Uiso   1.00
H335   H     0.01100   0.11221   0.78063   0.00000  Uiso   1.00
H336   H     0.04863   0.08301   0.79446   0.00000  Uiso   1.00
H337   H     0.08330   0.04220   0.74862   0.00000  Uiso   1.00
H338   H     0.43671   0.31780   0.46563   0.00000  Uiso   1.00
H339   H     0.09801   0.01639   0.68829   0.00000  Uiso   1.00
H340   H     0.13412   0.04937   0.68170   0.00000  Uiso   1.00
H341   H     0.08657   0.06322   0.67885   0.00000  Uiso   1.00
H342   H     0.37696   0.46321   0.28246   0.00000  Uiso   1.00
H343   H     0.38795   0.49107   0.22344   0.00000  Uiso   1.00
H344   H     0.41433   0.45263   0.20649   0.00000  Uiso   1.00
H345   H     0.43380   0.48417   0.24092   0.00000  Uiso   1.00
H346   H     0.10060   0.31330   0.82041   0.00000  Uiso   1.00
H347   H     0.07197   0.38810   0.83444   0.00000  Uiso   1.00
H348   H     0.05158   0.34466   0.84608   0.00000  Uiso   1.00
H349   H     0.06199   0.18086   0.53439   0.00000  Uiso   1.00
H350   H     0.08817   0.36207   0.87554   0.00000  Uiso   1.00
H351   H     0.39531   0.14558   0.15579   0.00000  Uiso   1.00
H352   H     0.37926   0.20682   0.14861   0.00000  Uiso   1.00
H353   H     0.37895   0.21293   0.20043   0.00000  Uiso   1.00
H354   H     0.34306   0.18709   0.17683   0.00000  Uiso   1.00
H355   H     0.41750   0.45801   0.75444   0.00000  Uiso   1.00
H356   H     0.39967   0.49025   0.69897   0.00000  Uiso   1.00
H357   H     0.36348   0.45809   0.69002   0.00000  Uiso   1.00
H358   H     0.41076   0.44490   0.68262   0.00000  Uiso   1.00
H359   H     0.12117   0.03557   0.27791   0.00000  Uiso   1.00
H360   H     0.16128   0.47384   0.46534   0.00000  Uiso   1.00
H361   H     0.06647   0.01677   0.23206   0.00000  Uiso   1.00
H362   H     0.11317   0.00957   0.21755   0.00000  Uiso   1.00
H363   H     0.08862   0.04900   0.20008   0.00000  Uiso   1.00
H364   H     0.38058   0.16152   0.84068   0.00000  Uiso   1.00
H365   H     0.44172   0.14828   0.86393   0.00000  Uiso   1.00
H366   H     0.45097   0.12452   0.81930   0.00000  Uiso   1.00
H367   H     0.41780   0.10666   0.85287   0.00000  Uiso   1.00
H368   H     0.07620   0.34521   0.17100   0.00000  Uiso   1.00
H369   H     0.12536   0.30807   0.13794   0.00000  Uiso   1.00
H370   H     0.10497   0.28731   0.18046   0.00000  Uiso   1.00
H371   H     0.33990   0.02377   0.53396   0.00000  Uiso   1.00
H372   H     0.14929   0.30934   0.18326   0.00000  Uiso   1.00
H373   H     0.41491   0.12969   0.66194   0.00000  Uiso   1.00
H374   H     0.35789   0.16211   0.64626   0.00000  Uiso   1.00
H375   H     0.39847   0.18719   0.63307   0.00000  Uiso   1.00
H376   H     0.37394   0.19901   0.67662   0.00000  Uiso   1.00
H377   H     0.10761   0.35085   0.34469   0.00000  Uiso   1.00
H378   H     0.06325   0.40211   0.33096   0.00000  Uiso   1.00
H379   H     0.04536   0.36251   0.35554   0.00000  Uiso   1.00
H380   H     0.03772   0.36803   0.30425   0.00000  Uiso   1.00
H381   H     0.29592   0.33611   0.78100   0.00000  Uiso   1.00
H382   H     0.31219   0.43108   0.96570   0.00000  Uiso   1.00
H383   H     0.27275   0.31873   0.72189   0.00000  Uiso   1.00
H384   H     0.29284   0.35776   0.69795   0.00000  Uiso   1.00
H385   H     0.25229   0.36305   0.72728   0.00000  Uiso   1.00
H386   H     0.20587   0.16315   0.22496   0.00000  Uiso   1.00
H387   H     0.20838   0.18106   0.29341   0.00000  Uiso   1.00
H388   H     0.24713   0.15367   0.27946   0.00000  Uiso   1.00
H389   H     0.20991   0.13344   0.30608   0.00000  Uiso   1.00
H390   H     0.08660   0.37046   0.66135   0.00000  Uiso   1.00
H391   H     0.14200   0.33381   0.64698   0.00000  Uiso   1.00
H392   H     0.09987   0.31121   0.63470   0.00000  Uiso   1.00
N393   N     0.15476   0.40075   0.17920   0.00000  Uiso   1.00
N394   N     0.39459   0.44901   0.26460   0.00000  Uiso   1.00
N395   N     0.10430   0.34117   0.82165   0.00000  Uiso   1.00
N396   N     0.39428   0.16079   0.18085   0.00000  Uiso   1.00
N397   N     0.39399   0.44934   0.74101   0.00000  Uiso   1.00
N398   N     0.10466   0.05048   0.25951   0.00000  Uiso   1.00
N399   N     0.40080   0.15346   0.82166   0.00000  Uiso   1.00
N400   N     0.10347   0.34453   0.17832   0.00000  Uiso   1.00
N401   N     0.40508   0.15045   0.67924   0.00000  Uiso   1.00
N402   N     0.09122   0.35273   0.32054   0.00000  Uiso   1.00
N403   N     0.30029   0.35496   0.75924   0.00000  Uiso   1.00
N404   N     0.34072   0.10320   0.82044   0.00000  Uiso   1.00
N405   N     0.19976   0.14472   0.24663   0.00000  Uiso   1.00
N406   N     0.09549   0.34980   0.67936   0.00000  Uiso   1.00
N407   N     0.40928   0.14498   0.32139   0.00000  Uiso   1.00
N408   N     0.19904   0.14426   0.76578   0.00000  Uiso   1.00
N409   N     0.30104   0.35461   0.23958   0.00000  Uiso   1.00
N410   N     0.35703   0.30208   0.23302   0.00000  Uiso   1.00
N411   N     0.14476   0.19906   0.76487   0.00000  Uiso   1.00
N412   N     0.35467   0.09079   0.32154   0.00000  Uiso   1.00
N413   N     0.14489   0.41012   0.68067   0.00000  Uiso   1.00
N414   N     0.14397   0.19935   0.24093   0.00000  Uiso   1.00
N415   N     0.05031   0.10498   0.25935   0.00000  Uiso   1.00
N416   N     0.35464   0.30046   0.75940   0.00000  Uiso   1.00
N417   N     0.15136   0.40291   0.32168   0.00000  Uiso   1.00
N418   N     0.35368   0.09432   0.67835   0.00000  Uiso   1.00
N419   N     0.45127   0.29580   0.39666   0.00000  Uiso   1.00
N420   N     0.04706   0.20232   0.60332   0.00000  Uiso   1.00
N421   N     0.18790   0.47629   0.39611   0.00000  Uiso   1.00
N422   N     0.31497   0.01498   0.60343   0.00000  Uiso   1.00
N423   N     0.04750   0.20286   0.39680   0.00000  Uiso   1.00
N424   N     0.45341   0.29771   0.60355   0.00000  Uiso   1.00
N425   N     0.31277   0.02278   0.39584   0.00000  Uiso   1.00
N426   N     0.44976   0.39472   0.74679   0.00000  Uiso   1.00
N427   N     0.18494   0.48713   0.60325   0.00000  Uiso   1.00
N428   N     0.20120   0.04572   0.89666   0.00000  Uiso   1.00
N429   N     0.29720   0.45246   0.10332   0.00000  Uiso   1.00
N430   N     0.43790   0.22631   0.89611   0.00000  Uiso   1.00
N431   N     0.06498   0.26498   0.10342   0.00000  Uiso   1.00
N432   N     0.29759   0.45295   0.89680   0.00000  Uiso   1.00
N433   N     0.20332   0.04763   0.10354   0.00000  Uiso   1.00
N434   N     0.06274   0.27287   0.89584   0.00000  Uiso   1.00
N435   N     0.43491   0.23730   0.10320   0.00000  Uiso   1.00
N436   N     0.34496   0.10033   0.17939   0.00000  Uiso   1.00
N437   N     0.15879   0.39547   0.82151   0.00000  Uiso   1.00
N438   N     0.44889   0.39429   0.26605   0.00000  Uiso   1.00
N439   N     0.05129   0.10553   0.73748   0.00000  Uiso   1.00
N440   N     0.10645   0.05190   0.73507   0.00000  Uiso   1.00
O441   O     0.25000   0.00000   0.25000   0.00000  Uiso   1.00
O442   O     0.25000   0.46964   0.66245   0.00000  Uiso   1.00
O443   O     0.46963   0.25000   0.33755   0.00000  Uiso   1.00
O444   O     0.03036   0.25000   0.66245   0.00000  Uiso   1.00
O445   O     0.00000   0.21963   0.83755   0.00000  Uiso   1.00
O446   O     0.00000   0.28036   0.16245   0.00000  Uiso   1.00
O447   O     0.28036   0.00000   0.83755   0.00000  Uiso   1.00
O448   O     0.21963  -0.00000   0.16245   0.00000  Uiso   1.00
O449   O     0.00000   0.28036   0.83755   0.00000  Uiso   1.00
O450   O    -0.00000   0.21964   0.16245   0.00000  Uiso   1.00
O451   O     0.21963  -0.00000   0.83755   0.00000  Uiso   1.00
O452   O     0.25000   0.00000   0.75000   0.00000  Uiso   1.00
O453   O     0.28036   0.00000   0.16245   0.00000  Uiso   1.00
O454   O     0.20724   0.07308   0.27302   0.00000  Uiso   1.00
O455   O     0.29275   0.42693   0.72698   0.00000  Uiso   1.00
O456   O     0.42692   0.20725   0.27302   0.00000  Uiso   1.00
O457   O     0.07307   0.29275   0.72698   0.00000  Uiso   1.00
O458   O     0.29275   0.42693   0.27302   0.00000  Uiso   1.00
O459   O     0.20724   0.07308   0.72698   0.00000  Uiso   1.00
O460   O     0.07307   0.29275   0.27302   0.00000  Uiso   1.00
O461   O     0.42692   0.20725   0.72698   0.00000  Uiso   1.00
O462   O     0.20724   0.42692   0.72698   0.00000  Uiso   1.00
O463   O     0.00000   0.25000   0.25000   0.00000  Uiso   1.00
O464   O     0.29275   0.07308   0.27302   0.00000  Uiso   1.00
O465   O     0.42692   0.29276   0.72698   0.00000  Uiso   1.00
O466   O     0.07307   0.20724   0.27302   0.00000  Uiso   1.00
O467   O     0.29275   0.07308   0.72698   0.00000  Uiso   1.00
O468   O     0.20724   0.42692   0.27302   0.00000  Uiso   1.00
O469   O     0.07307   0.20724   0.72698   0.00000  Uiso   1.00
O470   O     0.42692   0.29276   0.27302   0.00000  Uiso   1.00
O471   O     0.45724   0.32308   0.77302   0.00000  Uiso   1.00
O472   O     0.04275   0.17692   0.22698   0.00000  Uiso   1.00
O473   O     0.17692   0.45724   0.77302   0.00000  Uiso   1.00
O474   O     0.00000   0.25000   0.75000   0.00000  Uiso   1.00
O475   O     0.32307   0.04276   0.22698   0.00000  Uiso   1.00
O476   O     0.04275   0.17692   0.77302   0.00000  Uiso   1.00
O477   O     0.45724   0.32308   0.22698   0.00000  Uiso   1.00
O478   O     0.32307   0.04276   0.77302   0.00000  Uiso   1.00
O479   O     0.17692   0.45724   0.22698   0.00000  Uiso   1.00
O480   O     0.45724   0.17693   0.22698   0.00000  Uiso   1.00
O481   O     0.04275   0.32307   0.77302   0.00000  Uiso   1.00
O482   O     0.17692   0.04276   0.22698   0.00000  Uiso   1.00
O483   O     0.32307   0.45725   0.77302   0.00000  Uiso   1.00
O484   O     0.04275   0.32307   0.22698   0.00000  Uiso   1.00
O485   O     0.25000   0.46964   0.33755   0.00000  Uiso   1.00
O486   O     0.45724   0.17693   0.77302   0.00000  Uiso   1.00
O487   O     0.32307   0.45725   0.22698   0.00000  Uiso   1.00
O488   O     0.17692   0.04276   0.77302   0.00000  Uiso   1.00
O489   O     0.25000   0.03037   0.66245   0.00000  Uiso   1.00
O490   O     0.03036   0.25000   0.33755   0.00000  Uiso   1.00
O491   O     0.46963   0.25000   0.66245   0.00000  Uiso   1.00
O492   O     0.25000   0.03037   0.33755   0.00000  Uiso   1.00
Zn493  Zn    0.20659   0.00000   0.21735   0.00000  Uiso   1.00
Zn494  Zn    0.04340   0.25000   0.28265   0.00000  Uiso   1.00
Zn495  Zn    0.25000   0.45660   0.71735   0.00000  Uiso   1.00
Zn496  Zn    0.25000   0.04341   0.28265   0.00000  Uiso   1.00
Zn497  Zn    0.04340   0.25000   0.71735   0.00000  Uiso   1.00
Zn498  Zn    0.45659   0.25000   0.28265   0.00000  Uiso   1.00
Zn499  Zn    0.25000   0.04341   0.71735   0.00000  Uiso   1.00
Zn500  Zn    0.25000   0.45660   0.28265   0.00000  Uiso   1.00
Zn501  Zn    0.29340   0.00000   0.78265   0.00000  Uiso   1.00
Zn502  Zn   -0.00000   0.20660   0.21735   0.00000  Uiso   1.00
Zn503  Zn    0.00000   0.29340   0.78265   0.00000  Uiso   1.00
Zn504  Zn    0.29340   0.00000   0.21735   0.00000  Uiso   1.00
Zn505  Zn    0.20659  -0.00000   0.78265   0.00000  Uiso   1.00
Zn506  Zn    0.00000   0.29340   0.21735   0.00000  Uiso   1.00
Zn507  Zn   -0.00000   0.20660   0.78265   0.00000  Uiso   1.00
Zn508  Zn    0.45659   0.25000   0.71735   0.00000  Uiso   1.00
C509   C     0.97579   0.27317   0.41819   0.00000  Uiso   1.00
C510   C     0.77383   0.47627   0.08180   0.00000  Uiso   1.00
C511   C     0.71795   0.49096   0.54079   0.00000  Uiso   1.00
C512   C     0.97595   0.27345   0.45905   0.00000  Uiso   1.00
C513   C     0.52259   0.22507   0.54100   0.00000  Uiso   1.00
C514   C     0.71836   0.48940   0.45872   0.00000  Uiso   1.00
C515   C     0.78266   0.00865   0.54075   0.00000  Uiso   1.00
C516   C     0.77263   0.47515   0.95909   0.00000  Uiso   1.00
C517   C     0.72628   0.02374   0.04103   0.00000  Uiso   1.00
C518   C     0.53234   0.25982   0.95861   0.00000  Uiso   1.00
C519   C     0.96802   0.24078   0.04078   0.00000  Uiso   1.00
C520   C     0.72590   0.02340   0.95905   0.00000  Uiso   1.00
C521   C     0.96873   0.23858   0.91782   0.00000  Uiso   1.00
C522   C     0.77265   0.47512   0.04100   0.00000  Uiso   1.00
C523   C     0.96841   0.23927   0.95872   0.00000  Uiso   1.00
C524   C     0.53269   0.25858   0.04075   0.00000  Uiso   1.00
C525   C     0.59771   0.34843   0.24982   0.00000  Uiso   1.00
C526   C     0.90193   0.15186   0.75039   0.00000  Uiso   1.00
C527   C     0.65181   0.09799   0.25116   0.00000  Uiso   1.00
C528   C     0.84778   0.40162   0.74973   0.00000  Uiso   1.00
C529   C     0.90184   0.15190   0.25081   0.00000  Uiso   1.00
C530   C     0.59920   0.34693   0.75046   0.00000  Uiso   1.00
C531   C     0.84808   0.40201   0.25087   0.00000  Uiso   1.00
C532   C     0.53264   0.25796   0.08173   0.00000  Uiso   1.00
C533   C     0.65225   0.09849   0.75022   0.00000  Uiso   1.00
C534   C     0.59824   0.15223   0.75066   0.00000  Uiso   1.00
C535   C     0.90227   0.34846   0.25019   0.00000  Uiso   1.00
C536   C     0.65187   0.40187   0.75081   0.00000  Uiso   1.00
C537   C     0.84916   0.09697   0.25043   0.00000  Uiso   1.00
C538   C     0.90180   0.34798   0.75117   0.00000  Uiso   1.00
C539   C     0.59778   0.15162   0.24973   0.00000  Uiso   1.00
C540   C     0.84769   0.09845   0.74981   0.00000  Uiso   1.00
C541   C     0.65196   0.40183   0.25037   0.00000  Uiso   1.00
C542   C     0.99918   0.24920   0.47951   0.00000  Uiso   1.00
C543   C     0.77387   0.47641   0.91829   0.00000  Uiso   1.00
C544   C     0.99927   0.24927   0.52058   0.00000  Uiso   1.00
C545   C     0.75035   0.49963   0.47915   0.00000  Uiso   1.00
C546   C     0.75034   0.49969   0.52028   0.00000  Uiso   1.00
C547   C     0.74919   0.49920   0.97951   0.00000  Uiso   1.00
C548   C     0.74927   0.49927   0.02058   0.00000  Uiso   1.00
C549   C     0.50039   0.24953   0.97915   0.00000  Uiso   1.00
C550   C     0.50039   0.24956   0.02028   0.00000  Uiso   1.00
C551   C     0.63211   0.42631   0.15798   0.00000  Uiso   1.00
C552   C     0.80710   0.12295   0.82753   0.00000  Uiso   1.00
C553   C     0.52866   0.09829   0.22487   0.00000  Uiso   1.00
C554   C     0.72655   0.02381   0.08189   0.00000  Uiso   1.00
C555   C     0.96693   0.40363   0.78347   0.00000  Uiso   1.00
C556   C     0.86580   0.07286   0.15870   0.00000  Uiso   1.00
C557   C     0.64334   0.42595   0.84275   0.00000  Uiso   1.00
C558   C     0.97294   0.40211   0.23364   0.00000  Uiso   1.00
C559   C     0.53058   0.09130   0.77001   0.00000  Uiso   1.00
C560   C     0.60634   0.04495   0.69380   0.00000  Uiso   1.00
C561   C     0.90832   0.47008   0.23210   0.00000  Uiso   1.00
C562   C     0.57767   0.36011   0.84543   0.00000  Uiso   1.00
C563   C     0.87272   0.19360   0.17658   0.00000  Uiso   1.00
C564   C     0.89181   0.46111   0.70102   0.00000  Uiso   1.00
C565   C     0.53187   0.26079   0.91769   0.00000  Uiso   1.00
C566   C     0.59267   0.03067   0.22547   0.00000  Uiso   1.00
C567   C     0.92919   0.13207   0.84026   0.00000  Uiso   1.00
C568   C     0.62171   0.31048   0.16976   0.00000  Uiso   1.00
C569   C     0.88256   0.17597   0.65780   0.00000  Uiso   1.00
C570   C     0.55766   0.37244   0.32805   0.00000  Uiso   1.00
C571   C     0.77869   0.34831   0.72472   0.00000  Uiso   1.00
C572   C     0.71699   0.15366   0.28327   0.00000  Uiso   1.00
C573   C     0.61642   0.32218   0.65901   0.00000  Uiso   1.00
C574   C     0.89405   0.17537   0.34294   0.00000  Uiso   1.00
C575   C     0.72295   0.15216   0.73328   0.00000  Uiso   1.00
C576   C     0.96780   0.24213   0.08170   0.00000  Uiso   1.00
C577   C     0.78160   0.34172   0.27360   0.00000  Uiso   1.00
C578   C     0.85755   0.29692   0.19146   0.00000  Uiso   1.00
C579   C     0.65839   0.22033   0.73246   0.00000  Uiso   1.00
C580   C     0.82820   0.10966   0.34559   0.00000  Uiso   1.00
C581   C     0.62355   0.44303   0.67602   0.00000  Uiso   1.00
C582   C     0.64168   0.21115   0.20096   0.00000  Uiso   1.00
C583   C     0.84269   0.28069   0.72532   0.00000  Uiso   1.00
C584   C     0.67990   0.38138   0.33983   0.00000  Uiso   1.00
C585   C     0.87194   0.06025   0.66992   0.00000  Uiso   1.00
C586   C     0.96608   0.33064   0.38482   0.00000  Uiso   1.00
C587   C     0.50008   0.25001   0.39820   0.00000  Uiso   1.00
C588   C     0.58464   0.21429   0.60683   0.00000  Uiso   1.00
C589   C     0.66261   0.00466   0.38454   0.00000  Uiso   1.00
C590   C     0.83782   0.48319   0.60927   0.00000  Uiso   1.00
C591   C     0.58497   0.21523   0.39358   0.00000  Uiso   1.00
C592   C     0.96959   0.33245   0.61346   0.00000  Uiso   1.00
C593   C     0.83776   0.49411   0.38439   0.00000  Uiso   1.00
C594   C     0.66294   0.01985   0.60657   0.00000  Uiso   1.00
C595   C     0.71595   0.08058   0.88483   0.00000  Uiso   1.00
C596   C     0.83475   0.46453   0.10680   0.00000  Uiso   1.00
C597   C     0.91262   0.25473   0.88463   0.00000  Uiso   1.00
C598   C     0.50033   0.25014   0.60185   0.00000  Uiso   1.00
C599   C     0.58788   0.23323   0.10927   0.00000  Uiso   1.00
C600   C     0.83504   0.46539   0.89358   0.00000  Uiso   1.00
C601   C     0.71944   0.08240   0.11345   0.00000  Uiso   1.00
C602   C     0.58778   0.24426   0.88435   0.00000  Uiso   1.00
C603   C     0.91295   0.27008   0.10598   0.00000  Uiso   1.00
C604   C     0.75022   0.49985   0.39788   0.00000  Uiso   1.00
C605   C     0.52377   0.22620   0.58180   0.00000  Uiso   1.00
C606   C     0.75016   0.00007   0.60176   0.00000  Uiso   1.00
C607   C     0.75008   0.00001   0.89820   0.00000  Uiso   1.00
C608   C     0.75033   0.00015   0.10185   0.00000  Uiso   1.00
C609   C     0.50022   0.24985   0.89788   0.00000  Uiso   1.00
C610   C     0.50018   0.25004   0.10175   0.00000  Uiso   1.00
C611   C     0.54444   0.20047   0.47997   0.00000  Uiso   1.00
C612   C     0.95417   0.29816   0.52013   0.00000  Uiso   1.00
C613   C     0.81413   0.01833   0.47948   0.00000  Uiso   1.00
C614   C     0.68630   0.48189   0.51987   0.00000  Uiso   1.00
C615   C     0.95394   0.29795   0.47994   0.00000  Uiso   1.00
C616   C     0.71871   0.48862   0.41782   0.00000  Uiso   1.00
C617   C     0.54441   0.20042   0.52012   0.00000  Uiso   1.00
C618   C     0.68659   0.48082   0.47966   0.00000  Uiso   1.00
C619   C     0.81438   0.01744   0.51973   0.00000  Uiso   1.00
C620   C     0.79454   0.45056   0.97997   0.00000  Uiso   1.00
C621   C     0.70408   0.04807   0.02013   0.00000  Uiso   1.00
C622   C     0.56414   0.26833   0.97947   0.00000  Uiso   1.00
C623   C     0.93639   0.23161   0.01987   0.00000  Uiso   1.00
C624   C     0.70385   0.04787   0.97994   0.00000  Uiso   1.00
C625   C     0.79452   0.45052   0.02012   0.00000  Uiso   1.00
C626   C     0.93667   0.23059   0.97966   0.00000  Uiso   1.00
C627   C     0.78262   0.00801   0.58174   0.00000  Uiso   1.00
C628   C     0.56440   0.26742   0.01972   0.00000  Uiso   1.00
C629   C     0.75011   0.49997   0.35570   0.00000  Uiso   1.00
C630   C     0.75004   0.00003   0.64417   0.00000  Uiso   1.00
C631   C     0.50001   0.24985   0.35583   0.00000  Uiso   1.00
C632   C     0.50007   0.24988   0.64418   0.00000  Uiso   1.00
C633   C     0.50011   0.24997   0.85570   0.00000  Uiso   1.00
C634   C     0.50004   0.25003   0.14417   0.00000  Uiso   1.00
C635   C     0.75001   0.49985   0.85584   0.00000  Uiso   1.00
C636   C     0.75007   0.49989   0.14418   0.00000  Uiso   1.00
C637   C     0.68000   0.06999   0.25016   0.00000  Uiso   1.00
C638   C     0.52383   0.22637   0.41829   0.00000  Uiso   1.00
C639   C     0.81975   0.42978   0.75023   0.00000  Uiso   1.00
C640   C     0.93019   0.17979   0.25050   0.00000  Uiso   1.00
C641   C     0.57026   0.31973   0.75017   0.00000  Uiso   1.00
C642   C     0.82002   0.43005   0.25017   0.00000  Uiso   1.00
C643   C     0.68020   0.07022   0.75026   0.00000  Uiso   1.00
C644   C     0.57009   0.31991   0.24972   0.00000  Uiso   1.00
C645   C     0.92989   0.18008   0.75025   0.00000  Uiso   1.00
C646   C     0.68020   0.42978   0.75051   0.00000  Uiso   1.00
C647   C     0.82025   0.06974   0.25015   0.00000  Uiso   1.00
C648   C     0.93000   0.31999   0.75017   0.00000  Uiso   1.00
C649   C     0.97660   0.27385   0.58189   0.00000  Uiso   1.00
C650   C     0.56975   0.17978   0.25023   0.00000  Uiso   1.00
C651   C     0.82009   0.06991   0.74972   0.00000  Uiso   1.00
C652   C     0.67990   0.43007   0.25024   0.00000  Uiso   1.00
C653   C     0.57011   0.18017   0.75023   0.00000  Uiso   1.00
C654   C     0.93023   0.32024   0.25027   0.00000  Uiso   1.00
C655   C     0.63926   0.38817   0.21477   0.00000  Uiso   1.00
C656   C     0.85902   0.11337   0.78546   0.00000  Uiso   1.00
C657   C     0.58763   0.11466   0.25310   0.00000  Uiso   1.00
C658   C     0.91204   0.38506   0.74921   0.00000  Uiso   1.00
C659   C     0.86089   0.11223   0.21497   0.00000  Uiso   1.00
C660   C     0.78186   0.01078   0.41769   0.00000  Uiso   1.00
C661   C     0.64089   0.38592   0.78619   0.00000  Uiso   1.00
C662   C     0.91208   0.38510   0.25657   0.00000  Uiso   1.00
C663   C     0.58827   0.11547   0.74530   0.00000  Uiso   1.00
C664   C     0.61552   0.08860   0.74455   0.00000  Uiso   1.00
C665   C     0.88489   0.41209   0.25659   0.00000  Uiso   1.00
C666   C     0.61421   0.35850   0.78606   0.00000  Uiso   1.00
C667   C     0.88618   0.14100   0.21542   0.00000  Uiso   1.00
C668   C     0.88472   0.41194   0.74697   0.00000  Uiso   1.00
C669   C     0.61477   0.08769   0.25367   0.00000  Uiso   1.00
C670   C     0.88771   0.13889   0.78592   0.00000  Uiso   1.00
C671   C     0.71776   0.49222   0.58172   0.00000  Uiso   1.00
C672   C     0.61299   0.36060   0.21449   0.00000  Uiso   1.00
C673   C     0.88942   0.13803   0.71479   0.00000  Uiso   1.00
C674   C     0.60927   0.36313   0.28549   0.00000  Uiso   1.00
C675   C     0.83762   0.36466   0.75304   0.00000  Uiso   1.00
C676   C     0.66204   0.13506   0.24913   0.00000  Uiso   1.00
C677   C     0.61119   0.36191   0.71497   0.00000  Uiso   1.00
C678   C     0.89112   0.13569   0.28614   0.00000  Uiso   1.00
C679   C     0.66218   0.13515   0.75643   0.00000  Uiso   1.00
C680   C     0.83813   0.36505   0.24613   0.00000  Uiso   1.00
C681   C     0.86562   0.33844   0.24436   0.00000  Uiso   1.00
C682   C     0.72575   0.02312   0.91819   0.00000  Uiso   1.00
C683   C     0.63503   0.16220   0.75661   0.00000  Uiso   1.00
C684   C     0.86441   0.10830   0.28600   0.00000  Uiso   1.00
C685   C     0.63651   0.39065   0.71538   0.00000  Uiso   1.00
C686   C     0.63472   0.16195   0.24691   0.00000  Uiso   1.00
C687   C     0.86476   0.33768   0.75361   0.00000  Uiso   1.00
C688   C     0.63799   0.38862   0.28592   0.00000  Uiso   1.00
C689   C     0.86312   0.11048   0.71450   0.00000  Uiso   1.00
C690   C     0.52258   0.22510   0.45909   0.00000  Uiso   1.00
C691   C     0.97632   0.27378   0.54103   0.00000  Uiso   1.00
C692   C     0.78232   0.00985   0.45861   0.00000  Uiso   1.00
H693   H     0.56205   0.18095   0.46569   0.00000  Uiso   1.00
H694   H     0.68692   0.06799   0.03440   0.00000  Uiso   1.00
H695   H     0.62370   0.29926   0.67863   0.00000  Uiso   1.00
H696   H     0.91644   0.12311   0.33867   0.00000  Uiso   1.00
H697   H     0.88047   0.16541   0.36975   0.00000  Uiso   1.00
H698   H     0.87381   0.19104   0.32551   0.00000  Uiso   1.00
H699   H     0.91648   0.19403   0.35153   0.00000  Uiso   1.00
H700   H     0.70204   0.16213   0.78865   0.00000  Uiso   1.00
H701   H     0.72921   0.18178   0.73225   0.00000  Uiso   1.00
H702   H     0.71057   0.14403   0.70512   0.00000  Uiso   1.00
H703   H     0.74900   0.13705   0.73708   0.00000  Uiso   1.00
H704   H     0.78592   0.37258   0.22304   0.00000  Uiso   1.00
H705   H     0.58946   0.27525   0.96506   0.00000  Uiso   1.00
H706   H     0.75473   0.33048   0.26471   0.00000  Uiso   1.00
H707   H     0.77679   0.36431   0.29436   0.00000  Uiso   1.00
H708   H     0.79714   0.31992   0.28871   0.00000  Uiso   1.00
H709   H     0.83387   0.29140   0.24560   0.00000  Uiso   1.00
H710   H     0.85020   0.26838   0.18447   0.00000  Uiso   1.00
H711   H     0.88526   0.30272   0.17988   0.00000  Uiso   1.00
H712   H     0.83733   0.31521   0.17721   0.00000  Uiso   1.00
H713   H     0.62713   0.21314   0.78281   0.00000  Uiso   1.00
H714   H     0.63797   0.24132   0.72398   0.00000  Uiso   1.00
H715   H     0.66438   0.20302   0.70673   0.00000  Uiso   1.00
H716   H     0.91091   0.22511   0.03414   0.00000  Uiso   1.00
H717   H     0.68387   0.23440   0.74131   0.00000  Uiso   1.00
H718   H     0.85090   0.06294   0.32015   0.00000  Uiso   1.00
H719   H     0.82252   0.13773   0.33483   0.00000  Uiso   1.00
H720   H     0.80207   0.09428   0.34625   0.00000  Uiso   1.00
H721   H     0.83884   0.11140   0.37565   0.00000  Uiso   1.00
H722   H     0.64595   0.39472   0.65575   0.00000  Uiso   1.00
H723   H     0.62964   0.45555   0.64758   0.00000  Uiso   1.00
H724   H     0.63047   0.46278   0.69922   0.00000  Uiso   1.00
H725   H     0.59384   0.43682   0.67706   0.00000  Uiso   1.00
H726   H     0.66752   0.20802   0.25430   0.00000  Uiso   1.00
H727   H     0.68658   0.06768   0.96563   0.00000  Uiso   1.00
H728   H     0.64944   0.24032   0.19892   0.00000  Uiso   1.00
H729   H     0.61334   0.20804   0.19001   0.00000  Uiso   1.00
H730   H     0.66066   0.19501   0.18251   0.00000  Uiso   1.00
H731   H     0.87113   0.28554   0.77780   0.00000  Uiso   1.00
H732   H     0.81647   0.26680   0.73186   0.00000  Uiso   1.00
H733   H     0.86319   0.25959   0.71741   0.00000  Uiso   1.00
H734   H     0.83868   0.29905   0.69994   0.00000  Uiso   1.00
H735   H     0.63129   0.41082   0.34094   0.00000  Uiso   1.00
H736   H     0.69254   0.39738   0.36360   0.00000  Uiso   1.00
H737   H     0.70158   0.37408   0.31863   0.00000  Uiso   1.00
H738   H     0.81214   0.43100   0.03439   0.00000  Uiso   1.00
H739   H     0.66863   0.35582   0.35222   0.00000  Uiso   1.00
H740   H     0.82642   0.09496   0.67099   0.00000  Uiso   1.00
H741   H     0.87553   0.05771   0.63811   0.00000  Uiso   1.00
H742   H     0.85523   0.03712   0.68077   0.00000  Uiso   1.00
H743   H     0.89955   0.05920   0.68338   0.00000  Uiso   1.00
H744   H     0.92489   0.29711   0.40709   0.00000  Uiso   1.00
H745   H     0.97259   0.34754   0.41063   0.00000  Uiso   1.00
H746   H     0.94574   0.34534   0.36670   0.00000  Uiso   1.00
H747   H     0.99117   0.32659   0.36721   0.00000  Uiso   1.00
H748   H     0.54448   0.17507   0.59649   0.00000  Uiso   1.00
H749   H     0.91137   0.22357   0.96535   0.00000  Uiso   1.00
H750   H     0.59886   0.21279   0.57841   0.00000  Uiso   1.00
H751   H     0.59921   0.19646   0.62783   0.00000  Uiso   1.00
H752   H     0.58592   0.24280   0.61757   0.00000  Uiso   1.00
H753   H     0.67534   0.45320   0.40677   0.00000  Uiso   1.00
H754   H     0.64950   0.01707   0.41045   0.00000  Uiso   1.00
H755   H     0.64105   0.49278   0.36578   0.00000  Uiso   1.00
H756   H     0.67696   0.02621   0.36775   0.00000  Uiso   1.00
H757   H     0.82914   0.03788   0.59488   0.00000  Uiso   1.00
H758   H     0.84704   0.47192   0.58099   0.00000  Uiso   1.00
H759   H     0.82257   0.46187   0.62550   0.00000  Uiso   1.00
H760   H     0.58991   0.27378   0.03395   0.00000  Uiso   1.00
H761   H     0.86233   0.49079   0.62630   0.00000  Uiso   1.00
H762   H     0.54513   0.17554   0.40349   0.00000  Uiso   1.00
H763   H     0.59897   0.21376   0.42210   0.00000  Uiso   1.00
H764   H     0.58602   0.24381   0.38288   0.00000  Uiso   1.00
H765   H     0.59990   0.19764   0.37267   0.00000  Uiso   1.00
H766   H     0.92676   0.29948   0.59407   0.00000  Uiso   1.00
H767   H     0.97490   0.34870   0.58681   0.00000  Uiso   1.00
H768   H     0.99565   0.32829   0.62941   0.00000  Uiso   1.00
H769   H     0.95061   0.34793   0.63249   0.00000  Uiso   1.00
H770   H     0.82557   0.04573   0.40641   0.00000  Uiso   1.00
H771   H     0.66454   0.38006   0.16177   0.00000  Uiso   1.00
H772   H     0.85054   0.48146   0.41037   0.00000  Uiso   1.00
H773   H     0.85961   0.00572   0.36574   0.00000  Uiso   1.00
H774   H     0.82322   0.47280   0.36754   0.00000  Uiso   1.00
H775   H     0.67029   0.46424   0.59571   0.00000  Uiso   1.00
H776   H     0.65508   0.03021   0.57743   0.00000  Uiso   1.00
H777   H     0.67834   0.04134   0.62228   0.00000  Uiso   1.00
H778   H     0.63757   0.01382   0.62289   0.00000  Uiso   1.00
H779   H     0.67481   0.04698   0.90708   0.00000  Uiso   1.00
H780   H     0.72241   0.09750   0.91065   0.00000  Uiso   1.00
H781   H     0.69560   0.09525   0.86669   0.00000  Uiso   1.00
H782   H     0.60740   0.41247   0.14651   0.00000  Uiso   1.00
H783   H     0.74106   0.07658   0.86725   0.00000  Uiso   1.00
H784   H     0.79469   0.42520   0.09650   0.00000  Uiso   1.00
H785   H     0.84896   0.46307   0.07838   0.00000  Uiso   1.00
H786   H     0.84937   0.44676   0.12780   0.00000  Uiso   1.00
H787   H     0.83595   0.49305   0.11754   0.00000  Uiso   1.00
H788   H     0.92532   0.20322   0.90672   0.00000  Uiso   1.00
H789   H     0.89954   0.26709   0.91058   0.00000  Uiso   1.00
H790   H     0.89104   0.24291   0.86585   0.00000  Uiso   1.00
H791   H     0.92698   0.27630   0.86788   0.00000  Uiso   1.00
H792   H     0.57911   0.28791   0.09486   0.00000  Uiso   1.00
H793   H     0.64789   0.43764   0.13322   0.00000  Uiso   1.00
H794   H     0.59711   0.22197   0.08099   0.00000  Uiso   1.00
H795   H     0.57266   0.21190   0.12552   0.00000  Uiso   1.00
H796   H     0.61238   0.24088   0.12629   0.00000  Uiso   1.00
H797   H     0.79527   0.42562   0.90350   0.00000  Uiso   1.00
H798   H     0.84904   0.46394   0.92210   0.00000  Uiso   1.00
H799   H     0.83603   0.49397   0.88289   0.00000  Uiso   1.00
H800   H     0.85000   0.44782   0.87267   0.00000  Uiso   1.00
H801   H     0.67667   0.04935   0.09407   0.00000  Uiso   1.00
H802   H     0.72471   0.09866   0.08680   0.00000  Uiso   1.00
H803   H     0.74551   0.07829   0.12940   0.00000  Uiso   1.00
H804   H     0.93705   0.31811   0.53440   0.00000  Uiso   1.00
H805   H     0.62355   0.44927   0.17694   0.00000  Uiso   1.00
H806   H     0.70042   0.09784   0.13248   0.00000  Uiso   1.00
H807   H     0.57550   0.29584   0.90641   0.00000  Uiso   1.00
H808   H     0.60060   0.23161   0.91031   0.00000  Uiso   1.00
H809   H     0.60961   0.25593   0.86570   0.00000  Uiso   1.00
H810   H     0.57327   0.22294   0.86748   0.00000  Uiso   1.00
H811   H     0.92026   0.21434   0.09592   0.00000  Uiso   1.00
H812   H     0.90531   0.28019   0.07668   0.00000  Uiso   1.00
H813   H     0.92829   0.29170   0.12157   0.00000  Uiso   1.00
H814   H     0.88746   0.26425   0.12213   0.00000  Uiso   1.00
H815   H     0.85694   0.10149   0.84474   0.00000  Uiso   1.00
H816   H     0.81265   0.15264   0.83023   0.00000  Uiso   1.00
H817   H     0.79461   0.11322   0.85500   0.00000  Uiso   1.00
H818   H     0.78732   0.11834   0.80361   0.00000  Uiso   1.00
H819   H     0.54596   0.08614   0.28114   0.00000  Uiso   1.00
H820   H     0.52272   0.06872   0.22208   0.00000  Uiso   1.00
H821   H     0.54278   0.10772   0.19807   0.00000  Uiso   1.00
H822   H     0.50226   0.11303   0.22745   0.00000  Uiso   1.00
H823   H     0.95592   0.41317   0.72515   0.00000  Uiso   1.00
H824   H     0.83946   0.02519   0.46507   0.00000  Uiso   1.00
H825   H     0.95826   0.43100   0.79364   0.00000  Uiso   1.00
H826   H     0.99707   0.40368   0.77972   0.00000  Uiso   1.00
H827   H     0.95983   0.38337   0.80624   0.00000  Uiso   1.00
H828   H     0.83597   0.12110   0.16158   0.00000  Uiso   1.00
H829   H     0.89130   0.08462   0.14658   0.00000  Uiso   1.00
H830   H     0.84912   0.06203   0.13443   0.00000  Uiso   1.00
H831   H     0.87323   0.04983   0.17810   0.00000  Uiso   1.00
H832   H     0.66590   0.37372   0.83899   0.00000  Uiso   1.00
H833   H     0.62959   0.41610   0.86951   0.00000  Uiso   1.00
H834   H     0.62320   0.44147   0.82504   0.00000  Uiso   1.00
H835   H     0.66078   0.47551   0.53413   0.00000  Uiso   1.00
H836   H     0.66566   0.44470   0.85140   0.00000  Uiso   1.00
H837   H     0.95178   0.41223   0.28888   0.00000  Uiso   1.00
H838   H     0.97929   0.43171   0.23262   0.00000  Uiso   1.00
H839   H     0.96063   0.39402   0.20543   0.00000  Uiso   1.00
H840   H     0.99894   0.38693   0.23754   0.00000  Uiso   1.00
H841   H     0.53673   0.12300   0.71979   0.00000  Uiso   1.00
H842   H     0.51488   0.06708   0.76039   0.00000  Uiso   1.00
H843   H     0.51100   0.11221   0.78063   0.00000  Uiso   1.00
H844   H     0.54863   0.08301   0.79446   0.00000  Uiso   1.00
H845   H     0.58330   0.04220   0.74862   0.00000  Uiso   1.00
H846   H     0.93671   0.31780   0.46563   0.00000  Uiso   1.00
H847   H     0.59801   0.01639   0.68829   0.00000  Uiso   1.00
H848   H     0.63412   0.04937   0.68170   0.00000  Uiso   1.00
H849   H     0.58657   0.06322   0.67885   0.00000  Uiso   1.00
H850   H     0.87696   0.46321   0.28246   0.00000  Uiso   1.00
H851   H     0.88795   0.49107   0.22344   0.00000  Uiso   1.00
H852   H     0.91433   0.45263   0.20649   0.00000  Uiso   1.00
H853   H     0.93380   0.48417   0.24092   0.00000  Uiso   1.00
H854   H     0.60060   0.31330   0.82041   0.00000  Uiso   1.00
H855   H     0.57197   0.38810   0.83444   0.00000  Uiso   1.00
H856   H     0.55158   0.34466   0.84608   0.00000  Uiso   1.00
H857   H     0.56199   0.18086   0.53439   0.00000  Uiso   1.00
H858   H     0.58817   0.36207   0.87554   0.00000  Uiso   1.00
H859   H     0.89531   0.14558   0.15579   0.00000  Uiso   1.00
H860   H     0.87926   0.20682   0.14861   0.00000  Uiso   1.00
H861   H     0.87895   0.21293   0.20043   0.00000  Uiso   1.00
H862   H     0.84306   0.18709   0.17683   0.00000  Uiso   1.00
H863   H     0.91750   0.45801   0.75444   0.00000  Uiso   1.00
H864   H     0.89967   0.49025   0.69897   0.00000  Uiso   1.00
H865   H     0.86348   0.45809   0.69002   0.00000  Uiso   1.00
H866   H     0.91076   0.44490   0.68262   0.00000  Uiso   1.00
H867   H     0.62117   0.03557   0.27791   0.00000  Uiso   1.00
H868   H     0.66128   0.47384   0.46534   0.00000  Uiso   1.00
H869   H     0.56647   0.01677   0.23206   0.00000  Uiso   1.00
H870   H     0.61317   0.00957   0.21755   0.00000  Uiso   1.00
H871   H     0.58862   0.04900   0.20008   0.00000  Uiso   1.00
H872   H     0.88058   0.16152   0.84068   0.00000  Uiso   1.00
H873   H     0.94172   0.14828   0.86393   0.00000  Uiso   1.00
H874   H     0.95097   0.12452   0.81930   0.00000  Uiso   1.00
H875   H     0.91780   0.10666   0.85287   0.00000  Uiso   1.00
H876   H     0.57620   0.34521   0.17100   0.00000  Uiso   1.00
H877   H     0.62536   0.30807   0.13794   0.00000  Uiso   1.00
H878   H     0.60497   0.28731   0.18046   0.00000  Uiso   1.00
H879   H     0.83990   0.02377   0.53396   0.00000  Uiso   1.00
H880   H     0.64929   0.30934   0.18326   0.00000  Uiso   1.00
H881   H     0.91491   0.12969   0.66194   0.00000  Uiso   1.00
H882   H     0.85789   0.16211   0.64626   0.00000  Uiso   1.00
H883   H     0.89847   0.18719   0.63307   0.00000  Uiso   1.00
H884   H     0.87394   0.19901   0.67662   0.00000  Uiso   1.00
H885   H     0.60761   0.35085   0.34469   0.00000  Uiso   1.00
H886   H     0.56325   0.40211   0.33096   0.00000  Uiso   1.00
H887   H     0.54536   0.36251   0.35554   0.00000  Uiso   1.00
H888   H     0.53772   0.36803   0.30425   0.00000  Uiso   1.00
H889   H     0.79592   0.33611   0.78100   0.00000  Uiso   1.00
H890   H     0.81219   0.43108   0.96570   0.00000  Uiso   1.00
H891   H     0.77275   0.31873   0.72189   0.00000  Uiso   1.00
H892   H     0.79284   0.35776   0.69795   0.00000  Uiso   1.00
H893   H     0.75229   0.36305   0.72728   0.00000  Uiso   1.00
H894   H     0.70587   0.16315   0.22496   0.00000  Uiso   1.00
H895   H     0.70838   0.18106   0.29341   0.00000  Uiso   1.00
H896   H     0.74713   0.15367   0.27946   0.00000  Uiso   1.00
H897   H     0.70991   0.13344   0.30608   0.00000  Uiso   1.00
H898   H     0.58660   0.37046   0.66135   0.00000  Uiso   1.00
H899   H     0.64200   0.33381   0.64698   0.00000  Uiso   1.00
H900   H     0.59987   0.31121   0.63470   0.00000  Uiso   1.00
N901   N     0.65476   0.40075   0.17920   0.00000  Uiso   1.00
N902   N     0.89459   0.44901   0.26460   0.00000  Uiso   1.00
N903   N     0.60430   0.34117   0.82165   0.00000  Uiso   1.00
N904   N     0.89428   0.16079   0.18085   0.00000  Uiso   1.00
N905   N     0.89399   0.44934   0.74101   0.00000  Uiso   1.00
N906   N     0.60466   0.05048   0.25951   0.00000  Uiso   1.00
N907   N     0.90080   0.15346   0.82166   0.00000  Uiso   1.00
N908   N     0.60347   0.34453   0.17832   0.00000  Uiso   1.00
N909   N     0.90508   0.15045   0.67924   0.00000  Uiso   1.00
N910   N     0.59122   0.35273   0.32054   0.00000  Uiso   1.00
N911   N     0.80029   0.35496   0.75924   0.00000  Uiso   1.00
N912   N     0.84072   0.10320   0.82044   0.00000  Uiso   1.00
N913   N     0.69976   0.14472   0.24663   0.00000  Uiso   1.00
N914   N     0.59549   0.34980   0.67936   0.00000  Uiso   1.00
N915   N     0.90928   0.14498   0.32139   0.00000  Uiso   1.00
N916   N     0.69904   0.14426   0.76578   0.00000  Uiso   1.00
N917   N     0.80104   0.35461   0.23958   0.00000  Uiso   1.00
N918   N     0.85703   0.30208   0.23302   0.00000  Uiso   1.00
N919   N     0.64476   0.19906   0.76487   0.00000  Uiso   1.00
N920   N     0.85467   0.09079   0.32154   0.00000  Uiso   1.00
N921   N     0.64489   0.41012   0.68067   0.00000  Uiso   1.00
N922   N     0.64397   0.19935   0.24093   0.00000  Uiso   1.00
N923   N     0.55031   0.10498   0.25935   0.00000  Uiso   1.00
N924   N     0.85464   0.30046   0.75940   0.00000  Uiso   1.00
N925   N     0.65136   0.40291   0.32168   0.00000  Uiso   1.00
N926   N     0.85368   0.09432   0.67835   0.00000  Uiso   1.00
N927   N     0.95127   0.29580   0.39666   0.00000  Uiso   1.00
N928   N     0.54706   0.20232   0.60332   0.00000  Uiso   1.00
N929   N     0.68790   0.47629   0.39611   0.00000  Uiso   1.00
N930   N     0.81497   0.01498   0.60343   0.00000  Uiso   1.00
N931   N     0.54750   0.20286   0.39680   0.00000  Uiso   1.00
N932   N     0.95341   0.29771   0.60355   0.00000  Uiso   1.00
N933   N     0.81277   0.02278   0.39584   0.00000  Uiso   1.00
N934   N     0.94976   0.39472   0.74679   0.00000  Uiso   1.00
N935   N     0.68494   0.48713   0.60325   0.00000  Uiso   1.00
N936   N     0.70120   0.04572   0.89666   0.00000  Uiso   1.00
N937   N     0.79720   0.45246   0.10332   0.00000  Uiso   1.00
N938   N     0.93790   0.22631   0.89611   0.00000  Uiso   1.00
N939   N     0.56498   0.26498   0.10342   0.00000  Uiso   1.00
N940   N     0.79759   0.45295   0.89680   0.00000  Uiso   1.00
N941   N     0.70332   0.04763   0.10354   0.00000  Uiso   1.00
N942   N     0.56274   0.27287   0.89584   0.00000  Uiso   1.00
N943   N     0.93491   0.23730   0.10320   0.00000  Uiso   1.00
N944   N     0.84496   0.10033   0.17939   0.00000  Uiso   1.00
N945   N     0.65879   0.39547   0.82151   0.00000  Uiso   1.00
N946   N     0.94889   0.39429   0.26605   0.00000  Uiso   1.00
N947   N     0.55129   0.10553   0.73748   0.00000  Uiso   1.00
N948   N     0.60645   0.05190   0.73507   0.00000  Uiso   1.00
O949   O     0.75000   0.00000   0.25000   0.00000  Uiso   1.00
O950   O     0.75000   0.46964   0.66245   0.00000  Uiso   1.00
O951   O     0.96963   0.25000   0.33755   0.00000  Uiso   1.00
O952   O     0.53036   0.25000   0.66245   0.00000  Uiso   1.00
O953   O     0.50000   0.21963   0.83755   0.00000  Uiso   1.00
O954   O     0.50000   0.28036   0.16245   0.00000  Uiso   1.00
O955   O     0.78036   0.00000   0.83755   0.00000  Uiso   1.00
O956   O     0.71963  -0.00000   0.16245   0.00000  Uiso   1.00
O957   O     0.50000   0.28036   0.83755   0.00000  Uiso   1.00
O958   O     0.50000   0.21964   0.16245   0.00000  Uiso   1.00
O959   O     0.71963  -0.00000   0.83755   0.00000  Uiso   1.00
O960   O     0.75000   0.00000   0.75000   0.00000  Uiso   1.00
O961   O     0.78036   0.00000   0.16245   0.00000  Uiso   1.00
O962   O     0.70724   0.07308   0.27302   0.00000  Uiso   1.00
O963   O     0.79275   0.42693   0.72698   0.00000  Uiso   1.00
O964   O     0.92692   0.20725   0.27302   0.00000  Uiso   1.00
O965   O     0.57307   0.29275   0.72698   0.00000  Uiso   1.00
O966   O     0.79275   0.42693   0.27302   0.00000  Uiso   1.00
O967   O     0.70724   0.07308   0.72698   0.00000  Uiso   1.00
O968   O     0.57307   0.29275   0.27302   0.00000  Uiso   1.00
O969   O     0.92692   0.20725   0.72698   0.00000  Uiso   1.00
O970   O     0.70724   0.42692   0.72698   0.00000  Uiso   1.00
O971   O     0.50000   0.25000   0.25000   0.00000  Uiso   1.00
O972   O     0.79275   0.07308   0.27302   0.00000  Uiso   1.00
O973   O     0.92692   0.29276   0.72698   0.00000  Uiso   1.00
O974   O     0.57307   0.20724   0.27302   0.00000  Uiso   1.00
O975   O     0.79275   0.07308   0.72698   0.00000  Uiso   1.00
O976   O     0.70724   0.42692   0.27302   0.00000  Uiso   1.00
O977   O     0.57307   0.20724   0.72698   0.00000  Uiso   1.00
O978   O     0.92692   0.29276   0.27302   0.00000  Uiso   1.00
O979   O     0.95724   0.32308   0.77302   0.00000  Uiso   1.00
O980   O     0.54275   0.17692   0.22698   0.00000  Uiso   1.00
O981   O     0.67692   0.45724   0.77302   0.00000  Uiso   1.00
O982   O     0.50000   0.25000   0.75000   0.00000  Uiso   1.00
O983   O     0.82307   0.04276   0.22698   0.00000  Uiso   1.00
O984   O     0.54275   0.17692   0.77302   0.00000  Uiso   1.00
O985   O     0.95724   0.32308   0.22698   0.00000  Uiso   1.00
O986   O     0.82307   0.04276   0.77302   0.00000  Uiso   1.00
O987   O     0.67692   0.45724   0.22698   0.00000  Uiso   1.00
O988   O     0.95724   0.17693   0.22698   0.00000  Uiso   1.00
O989   O     0.54275   0.32307   0.77302   0.00000  Uiso   1.00
O990   O     0.67692   0.04276   0.22698   0.00000  Uiso   1.00
O991   O     0.82307   0.45725   0.77302   0.00000  Uiso   1.00
O992   O     0.54275   0.32307   0.22698   0.00000  Uiso   1.00
O993   O     0.75000   0.46964   0.33755   0.00000  Uiso   1.00
O994   O     0.95724   0.17693   0.77302   0.00000  Uiso   1.00
O995   O     0.82307   0.45725   0.22698   0.00000  Uiso   1.00
O996   O     0.67692   0.04276   0.77302   0.00000  Uiso   1.00
O997   O     0.75000   0.03037   0.66245   0.00000  Uiso   1.00
O998   O     0.53036   0.25000   0.33755   0.00000  Uiso   1.00
O999   O     0.96963   0.25000   0.66245   0.00000  Uiso   1.00
O1000  O     0.75000   0.03037   0.33755   0.00000  Uiso   1.00
Zn1001 Zn    0.70659   0.00000   0.21735   0.00000  Uiso   1.00
Zn1002 Zn    0.54340   0.25000   0.28265   0.00000  Uiso   1.00
Zn1003 Zn    0.75000   0.45660   0.71735   0.00000  Uiso   1.00
Zn1004 Zn    0.75000   0.04341   0.28265   0.00000  Uiso   1.00
Zn1005 Zn    0.54340   0.25000   0.71735   0.00000  Uiso   1.00
Zn1006 Zn    0.95659   0.25000   0.28265   0.00000  Uiso   1.00
Zn1007 Zn    0.75000   0.04341   0.71735   0.00000  Uiso   1.00
Zn1008 Zn    0.75000   0.45660   0.28265   0.00000  Uiso   1.00
Zn1009 Zn    0.79340   0.00000   0.78265   0.00000  Uiso   1.00
Zn1010 Zn    0.50000   0.20660   0.21735   0.00000  Uiso   1.00
Zn1011 Zn    0.50000   0.29340   0.78265   0.00000  Uiso   1.00
Zn1012 Zn    0.79340   0.00000   0.21735   0.00000  Uiso   1.00
Zn1013 Zn    0.70659  -0.00000   0.78265   0.00000  Uiso   1.00
Zn1014 Zn    0.50000   0.29340   0.21735   0.00000  Uiso   1.00
Zn1015 Zn    0.50000   0.20660   0.78265   0.00000  Uiso   1.00
Zn1016 Zn    0.95659   0.25000   0.71735   0.00000  Uiso   1.00
C1017  C     0.47579   0.77317   0.41819   0.00000  Uiso   1.00
C1018  C     0.27383   0.97627   0.08180   0.00000  Uiso   1.00
C1019  C     0.21795   0.99096   0.54079   0.00000  Uiso   1.00
C1020  C     0.47595   0.77345   0.45905   0.00000  Uiso   1.00
C1021  C     0.02259   0.72507   0.54100   0.00000  Uiso   1.00
C1022  C     0.21836   0.98940   0.45872   0.00000  Uiso   1.00
C1023  C     0.28266   0.50865   0.54075   0.00000  Uiso   1.00
C1024  C     0.27263   0.97515   0.95909   0.00000  Uiso   1.00
C1025  C     0.22628   0.52374   0.04103   0.00000  Uiso   1.00
C1026  C     0.03234   0.75982   0.95861   0.00000  Uiso   1.00
C1027  C     0.46802   0.74078   0.04078   0.00000  Uiso   1.00
C1028  C     0.22590   0.52340   0.95905   0.00000  Uiso   1.00
C1029  C     0.46873   0.73858   0.91782   0.00000  Uiso   1.00
C1030  C     0.27265   0.97512   0.04100   0.00000  Uiso   1.00
C1031  C     0.46841   0.73927   0.95872   0.00000  Uiso   1.00
C1032  C     0.03269   0.75858   0.04075   0.00000  Uiso   1.00
C1033  C     0.09771   0.84843   0.24982   0.00000  Uiso   1.00
C1034  C     0.40193   0.65186   0.75039   0.00000  Uiso   1.00
C1035  C     0.15181   0.59799   0.25116   0.00000  Uiso   1.00
C1036  C     0.34778   0.90162   0.74973   0.00000  Uiso   1.00
C1037  C     0.40184   0.65190   0.25081   0.00000  Uiso   1.00
C1038  C     0.09920   0.84693   0.75046   0.00000  Uiso   1.00
C1039  C     0.34808   0.90201   0.25087   0.00000  Uiso   1.00
C1040  C     0.03264   0.75796   0.08173   0.00000  Uiso   1.00
C1041  C     0.15225   0.59849   0.75022   0.00000  Uiso   1.00
C1042  C     0.09824   0.65223   0.75066   0.00000  Uiso   1.00
C1043  C     0.40227   0.84846   0.25019   0.00000  Uiso   1.00
C1044  C     0.15187   0.90187   0.75081   0.00000  Uiso   1.00
C1045  C     0.34916   0.59697   0.25043   0.00000  Uiso   1.00
C1046  C     0.40180   0.84798   0.75117   0.00000  Uiso   1.00
C1047  C     0.09778   0.65162   0.24973   0.00000  Uiso   1.00
C1048  C     0.34769   0.59845   0.74981   0.00000  Uiso   1.00
C1049  C     0.15196   0.90183   0.25037   0.00000  Uiso   1.00
C1050  C     0.49918   0.74920   0.47951   0.00000  Uiso   1.00
C1051  C     0.27387   0.97641   0.91829   0.00000  Uiso   1.00
C1052  C     0.49927   0.74927   0.52058   0.00000  Uiso   1.00
C1053  C     0.25035   0.99963   0.47915   0.00000  Uiso   1.00
C1054  C     0.25034   0.99969   0.52028   0.00000  Uiso   1.00
C1055  C     0.24919   0.99920   0.97951   0.00000  Uiso   1.00
C1056  C     0.24927   0.99927   0.02058   0.00000  Uiso   1.00
C1057  C     0.00039   0.74953   0.97915   0.00000  Uiso   1.00
C1058  C     0.00039   0.74956   0.02028   0.00000  Uiso   1.00
C1059  C     0.13211   0.92631   0.15798   0.00000  Uiso   1.00
C1060  C     0.30710   0.62295   0.82753   0.00000  Uiso   1.00
C1061  C     0.02866   0.59829   0.22487   0.00000  Uiso   1.00
C1062  C     0.22655   0.52381   0.08189   0.00000  Uiso   1.00
C1063  C     0.46693   0.90363   0.78347   0.00000  Uiso   1.00
C1064  C     0.36580   0.57286   0.15870   0.00000  Uiso   1.00
C1065  C     0.14334   0.92595   0.84275   0.00000  Uiso   1.00
C1066  C     0.47294   0.90211   0.23364   0.00000  Uiso   1.00
C1067  C     0.03058   0.59130   0.77001   0.00000  Uiso   1.00
C1068  C     0.10634   0.54495   0.69380   0.00000  Uiso   1.00
C1069  C     0.40832   0.97008   0.23210   0.00000  Uiso   1.00
C1070  C     0.07767   0.86011   0.84543   0.00000  Uiso   1.00
C1071  C     0.37272   0.69360   0.17658   0.00000  Uiso   1.00
C1072  C     0.39181   0.96111   0.70102   0.00000  Uiso   1.00
C1073  C     0.03187   0.76079   0.91769   0.00000  Uiso   1.00
C1074  C     0.09267   0.53067   0.22547   0.00000  Uiso   1.00
C1075  C     0.42919   0.63207   0.84026   0.00000  Uiso   1.00
C1076  C     0.12171   0.81048   0.16976   0.00000  Uiso   1.00
C1077  C     0.38256   0.67597   0.65780   0.00000  Uiso   1.00
C1078  C     0.05766   0.87244   0.32805   0.00000  Uiso   1.00
C1079  C     0.27869   0.84831   0.72472   0.00000  Uiso   1.00
C1080  C     0.21699   0.65366   0.28327   0.00000  Uiso   1.00
C1081  C     0.11642   0.82218   0.65901   0.00000  Uiso   1.00
C1082  C     0.39405   0.67537   0.34294   0.00000  Uiso   1.00
C1083  C     0.22295   0.65216   0.73328   0.00000  Uiso   1.00
C1084  C     0.46780   0.74213   0.08170   0.00000  Uiso   1.00
C1085  C     0.28160   0.84172   0.27360   0.00000  Uiso   1.00
C1086  C     0.35755   0.79692   0.19146   0.00000  Uiso   1.00
C1087  C     0.15839   0.72033   0.73246   0.00000  Uiso   1.00
C1088  C     0.32820   0.60966   0.34559   0.00000  Uiso   1.00
C1089  C     0.12355   0.94303   0.67602   0.00000  Uiso   1.00
C1090  C     0.14168   0.71115   0.20096   0.00000  Uiso   1.00
C1091  C     0.34269   0.78069   0.72532   0.00000  Uiso   1.00
C1092  C     0.17990   0.88138   0.33983   0.00000  Uiso   1.00
C1093  C     0.37194   0.56025   0.66992   0.00000  Uiso   1.00
C1094  C     0.46608   0.83064   0.38482   0.00000  Uiso   1.00
C1095  C     0.00008   0.75001   0.39820   0.00000  Uiso   1.00
C1096  C     0.08464   0.71429   0.60683   0.00000  Uiso   1.00
C1097  C     0.16261   0.50466   0.38454   0.00000  Uiso   1.00
C1098  C     0.33782   0.98319   0.60927   0.00000  Uiso   1.00
C1099  C     0.08497   0.71523   0.39358   0.00000  Uiso   1.00
C1100  C     0.46959   0.83245   0.61346   0.00000  Uiso   1.00
C1101  C     0.33776   0.99411   0.38439   0.00000  Uiso   1.00
C1102  C     0.16294   0.51985   0.60657   0.00000  Uiso   1.00
C1103  C     0.21595   0.58058   0.88483   0.00000  Uiso   1.00
C1104  C     0.33475   0.96453   0.10680   0.00000  Uiso   1.00
C1105  C     0.41262   0.75473   0.88463   0.00000  Uiso   1.00
C1106  C     0.00033   0.75014   0.60185   0.00000  Uiso   1.00
C1107  C     0.08788   0.73323   0.10927   0.00000  Uiso   1.00
C1108  C     0.33504   0.96539   0.89358   0.00000  Uiso   1.00
C1109  C     0.21944   0.58240   0.11345   0.00000  Uiso   1.00
C1110  C     0.08778   0.74426   0.88435   0.00000  Uiso   1.00
C1111  C     0.41295   0.77008   0.10598   0.00000  Uiso   1.00
C1112  C     0.25022   0.99985   0.39788   0.00000  Uiso   1.00
C1113  C     0.02377   0.72620   0.58180   0.00000  Uiso   1.00
C1114  C     0.25016   0.50007   0.60176   0.00000  Uiso   1.00
C1115  C     0.25008   0.50001   0.89820   0.00000  Uiso   1.00
C1116  C     0.25033   0.50015   0.10185   0.00000  Uiso   1.00
C1117  C     0.00022   0.74985   0.89788   0.00000  Uiso   1.00
C1118  C     0.00018   0.75004   0.10175   0.00000  Uiso   1.00
C1119  C     0.04444   0.70047   0.47997   0.00000  Uiso   1.00
C1120  C     0.45417   0.79816   0.52013   0.00000  Uiso   1.00
C1121  C     0.31413   0.51833   0.47948   0.00000  Uiso   1.00
C1122  C     0.18630   0.98189   0.51987   0.00000  Uiso   1.00
C1123  C     0.45394   0.79795   0.47994   0.00000  Uiso   1.00
C1124  C     0.21871   0.98862   0.41782   0.00000  Uiso   1.00
C1125  C     0.04441   0.70042   0.52012   0.00000  Uiso   1.00
C1126  C     0.18659   0.98082   0.47966   0.00000  Uiso   1.00
C1127  C     0.31438   0.51744   0.51973   0.00000  Uiso   1.00
C1128  C     0.29454   0.95056   0.97997   0.00000  Uiso   1.00
C1129  C     0.20408   0.54807   0.02013   0.00000  Uiso   1.00
C1130  C     0.06414   0.76833   0.97947   0.00000  Uiso   1.00
C1131  C     0.43639   0.73161   0.01987   0.00000  Uiso   1.00
C1132  C     0.20385   0.54787   0.97994   0.00000  Uiso   1.00
C1133  C     0.29452   0.95052   0.02012   0.00000  Uiso   1.00
C1134  C     0.43667   0.73059   0.97966   0.00000  Uiso   1.00
C1135  C     0.28262   0.50801   0.58174   0.00000  Uiso   1.00
C1136  C     0.06440   0.76742   0.01972   0.00000  Uiso   1.00
C1137  C     0.25011   0.99997   0.35570   0.00000  Uiso   1.00
C1138  C     0.25004   0.50003   0.64417   0.00000  Uiso   1.00
C1139  C     0.00001   0.74985   0.35583   0.00000  Uiso   1.00
C1140  C     0.00007   0.74988   0.64418   0.00000  Uiso   1.00
C1141  C     0.00011   0.74997   0.85570   0.00000  Uiso   1.00
C1142  C     0.00004   0.75003   0.14417   0.00000  Uiso   1.00
C1143  C     0.25001   0.99985   0.85584   0.00000  Uiso   1.00
C1144  C     0.25007   0.99989   0.14418   0.00000  Uiso   1.00
C1145  C     0.18000   0.56999   0.25016   0.00000  Uiso   1.00
C1146  C     0.02383   0.72637   0.41829   0.00000  Uiso   1.00
C1147  C     0.31975   0.92978   0.75023   0.00000  Uiso   1.00
C1148  C     0.43019   0.67979   0.25050   0.00000  Uiso   1.00
C1149  C     0.07026   0.81973   0.75017   0.00000  Uiso   1.00
C1150  C     0.32002   0.93005   0.25017   0.00000  Uiso   1.00
C1151  C     0.18020   0.57022   0.75026   0.00000  Uiso   1.00
C1152  C     0.07009   0.81991   0.24972   0.00000  Uiso   1.00
C1153  C     0.42989   0.68008   0.75025   0.00000  Uiso   1.00
C1154  C     0.18020   0.92978   0.75051   0.00000  Uiso   1.00
C1155  C     0.32025   0.56974   0.25015   0.00000  Uiso   1.00
C1156  C     0.43000   0.81999   0.75017   0.00000  Uiso   1.00
C1157  C     0.47660   0.77385   0.58189   0.00000  Uiso   1.00
C1158  C     0.06975   0.67978   0.25023   0.00000  Uiso   1.00
C1159  C     0.32009   0.56991   0.74972   0.00000  Uiso   1.00
C1160  C     0.17990   0.93007   0.25024   0.00000  Uiso   1.00
C1161  C     0.07011   0.68017   0.75023   0.00000  Uiso   1.00
C1162  C     0.43023   0.82024   0.25027   0.00000  Uiso   1.00
C1163  C     0.13926   0.88817   0.21477   0.00000  Uiso   1.00
C1164  C     0.35902   0.61337   0.78546   0.00000  Uiso   1.00
C1165  C     0.08763   0.61466   0.25310   0.00000  Uiso   1.00
C1166  C     0.41204   0.88506   0.74921   0.00000  Uiso   1.00
C1167  C     0.36089   0.61223   0.21497   0.00000  Uiso   1.00
C1168  C     0.28186   0.51078   0.41769   0.00000  Uiso   1.00
C1169  C     0.14089   0.88592   0.78619   0.00000  Uiso   1.00
C1170  C     0.41208   0.88510   0.25657   0.00000  Uiso   1.00
C1171  C     0.08827   0.61547   0.74530   0.00000  Uiso   1.00
C1172  C     0.11552   0.58860   0.74455   0.00000  Uiso   1.00
C1173  C     0.38489   0.91209   0.25659   0.00000  Uiso   1.00
C1174  C     0.11421   0.85850   0.78606   0.00000  Uiso   1.00
C1175  C     0.38618   0.64100   0.21542   0.00000  Uiso   1.00
C1176  C     0.38472   0.91194   0.74697   0.00000  Uiso   1.00
C1177  C     0.11477   0.58769   0.25367   0.00000  Uiso   1.00
C1178  C     0.38771   0.63889   0.78592   0.00000  Uiso   1.00
C1179  C     0.21776   0.99222   0.58172   0.00000  Uiso   1.00
C1180  C     0.11299   0.86060   0.21449   0.00000  Uiso   1.00
C1181  C     0.38942   0.63803   0.71479   0.00000  Uiso   1.00
C1182  C     0.10927   0.86313   0.28549   0.00000  Uiso   1.00
C1183  C     0.33762   0.86466   0.75304   0.00000  Uiso   1.00
C1184  C     0.16204   0.63506   0.24913   0.00000  Uiso   1.00
C1185  C     0.11119   0.86191   0.71497   0.00000  Uiso   1.00
C1186  C     0.39112   0.63569   0.28614   0.00000  Uiso   1.00
C1187  C     0.16218   0.63515   0.75643   0.00000  Uiso   1.00
C1188  C     0.33813   0.86505   0.24613   0.00000  Uiso   1.00
C1189  C     0.36562   0.83844   0.24436   0.00000  Uiso   1.00
C1190  C     0.22575   0.52312   0.91819   0.00000  Uiso   1.00
C1191  C     0.13503   0.66220   0.75661   0.00000  Uiso   1.00
C1192  C     0.36441   0.60830   0.28600   0.00000  Uiso   1.00
C1193  C     0.13651   0.89065   0.71538   0.00000  Uiso   1.00
C1194  C     0.13472   0.66195   0.24691   0.00000  Uiso   1.00
C1195  C     0.36476   0.83768   0.75361   0.00000  Uiso   1.00
C1196  C     0.13799   0.88862   0.28592   0.00000  Uiso   1.00
C1197  C     0.36312   0.61048   0.71450   0.00000  Uiso   1.00
C1198  C     0.02258   0.72510   0.45909   0.00000  Uiso   1.00
C1199  C     0.47632   0.77378   0.54103   0.00000  Uiso   1.00
C1200  C     0.28232   0.50985   0.45861   0.00000  Uiso   1.00
H1201  H     0.06205   0.68095   0.46569   0.00000  Uiso   1.00
H1202  H     0.18692   0.56799   0.03440   0.00000  Uiso   1.00
H1203  H     0.12370   0.79926   0.67863   0.00000  Uiso   1.00
H1204  H     0.41644   0.62311   0.33867   0.00000  Uiso   1.00
H1205  H     0.38047   0.66541   0.36975   0.00000  Uiso   1.00
H1206  H     0.37381   0.69104   0.32551   0.00000  Uiso   1.00
H1207  H     0.41648   0.69403   0.35153   0.00000  Uiso   1.00
H1208  H     0.20204   0.66213   0.78865   0.00000  Uiso   1.00
H1209  H     0.22921   0.68178   0.73225   0.00000  Uiso   1.00
H1210  H     0.21057   0.64403   0.70512   0.00000  Uiso   1.00
H1211  H     0.24900   0.63705   0.73708   0.00000  Uiso   1.00
H1212  H     0.28592   0.87258   0.22304   0.00000  Uiso   1.00
H1213  H     0.08946   0.77525   0.96506   0.00000  Uiso   1.00
H1214  H     0.25473   0.83048   0.26471   0.00000  Uiso   1.00
H1215  H     0.27679   0.86431   0.29436   0.00000  Uiso   1.00
H1216  H     0.29714   0.81992   0.28871   0.00000  Uiso   1.00
H1217  H     0.33387   0.79140   0.24560   0.00000  Uiso   1.00
H1218  H     0.35020   0.76838   0.18447   0.00000  Uiso   1.00
H1219  H     0.38526   0.80272   0.17988   0.00000  Uiso   1.00
H1220  H     0.33733   0.81521   0.17721   0.00000  Uiso   1.00
H1221  H     0.12713   0.71314   0.78281   0.00000  Uiso   1.00
H1222  H     0.13797   0.74132   0.72398   0.00000  Uiso   1.00
H1223  H     0.16438   0.70302   0.70673   0.00000  Uiso   1.00
H1224  H     0.41091   0.72511   0.03414   0.00000  Uiso   1.00
H1225  H     0.18387   0.73440   0.74131   0.00000  Uiso   1.00
H1226  H     0.35090   0.56294   0.32015   0.00000  Uiso   1.00
H1227  H     0.32252   0.63773   0.33483   0.00000  Uiso   1.00
H1228  H     0.30207   0.59428   0.34625   0.00000  Uiso   1.00
H1229  H     0.33884   0.61140   0.37565   0.00000  Uiso   1.00
H1230  H     0.14595   0.89472   0.65575   0.00000  Uiso   1.00
H1231  H     0.12964   0.95555   0.64758   0.00000  Uiso   1.00
H1232  H     0.13047   0.96278   0.69922   0.00000  Uiso   1.00
H1233  H     0.09384   0.93682   0.67706   0.00000  Uiso   1.00
H1234  H     0.16752   0.70802   0.25430   0.00000  Uiso   1.00
H1235  H     0.18658   0.56768   0.96563   0.00000  Uiso   1.00
H1236  H     0.14944   0.74032   0.19892   0.00000  Uiso   1.00
H1237  H     0.11334   0.70804   0.19001   0.00000  Uiso   1.00
H1238  H     0.16066   0.69501   0.18251   0.00000  Uiso   1.00
H1239  H     0.37113   0.78554   0.77780   0.00000  Uiso   1.00
H1240  H     0.31647   0.76680   0.73186   0.00000  Uiso   1.00
H1241  H     0.36319   0.75959   0.71741   0.00000  Uiso   1.00
H1242  H     0.33868   0.79905   0.69994   0.00000  Uiso   1.00
H1243  H     0.13129   0.91082   0.34094   0.00000  Uiso   1.00
H1244  H     0.19254   0.89738   0.36360   0.00000  Uiso   1.00
H1245  H     0.20158   0.87408   0.31863   0.00000  Uiso   1.00
H1246  H     0.31214   0.93100   0.03439   0.00000  Uiso   1.00
H1247  H     0.16863   0.85582   0.35222   0.00000  Uiso   1.00
H1248  H     0.32642   0.59496   0.67099   0.00000  Uiso   1.00
H1249  H     0.37553   0.55771   0.63811   0.00000  Uiso   1.00
H1250  H     0.35523   0.53712   0.68077   0.00000  Uiso   1.00
H1251  H     0.39955   0.55920   0.68338   0.00000  Uiso   1.00
H1252  H     0.42489   0.79711   0.40709   0.00000  Uiso   1.00
H1253  H     0.47259   0.84754   0.41063   0.00000  Uiso   1.00
H1254  H     0.44574   0.84534   0.36670   0.00000  Uiso   1.00
H1255  H     0.49117   0.82659   0.36721   0.00000  Uiso   1.00
H1256  H     0.04448   0.67507   0.59649   0.00000  Uiso   1.00
H1257  H     0.41137   0.72357   0.96535   0.00000  Uiso   1.00
H1258  H     0.09886   0.71279   0.57841   0.00000  Uiso   1.00
H1259  H     0.09921   0.69646   0.62783   0.00000  Uiso   1.00
H1260  H     0.08592   0.74280   0.61757   0.00000  Uiso   1.00
H1261  H     0.17534   0.95320   0.40677   0.00000  Uiso   1.00
H1262  H     0.14950   0.51707   0.41045   0.00000  Uiso   1.00
H1263  H     0.14105   0.99278   0.36578   0.00000  Uiso   1.00
H1264  H     0.17696   0.52621   0.36775   0.00000  Uiso   1.00
H1265  H     0.32914   0.53788   0.59488   0.00000  Uiso   1.00
H1266  H     0.34704   0.97192   0.58099   0.00000  Uiso   1.00
H1267  H     0.32257   0.96187   0.62550   0.00000  Uiso   1.00
H1268  H     0.08991   0.77378   0.03395   0.00000  Uiso   1.00
H1269  H     0.36233   0.99079   0.62630   0.00000  Uiso   1.00
H1270  H     0.04513   0.67554   0.40349   0.00000  Uiso   1.00
H1271  H     0.09897   0.71376   0.42210   0.00000  Uiso   1.00
H1272  H     0.08602   0.74381   0.38288   0.00000  Uiso   1.00
H1273  H     0.09990   0.69764   0.37267   0.00000  Uiso   1.00
H1274  H     0.42676   0.79948   0.59407   0.00000  Uiso   1.00
H1275  H     0.47490   0.84870   0.58681   0.00000  Uiso   1.00
H1276  H     0.49565   0.82829   0.62941   0.00000  Uiso   1.00
H1277  H     0.45061   0.84793   0.63249   0.00000  Uiso   1.00
H1278  H     0.32557   0.54573   0.40641   0.00000  Uiso   1.00
H1279  H     0.16454   0.88006   0.16177   0.00000  Uiso   1.00
H1280  H     0.35054   0.98146   0.41037   0.00000  Uiso   1.00
H1281  H     0.35961   0.50572   0.36574   0.00000  Uiso   1.00
H1282  H     0.32322   0.97280   0.36754   0.00000  Uiso   1.00
H1283  H     0.17029   0.96424   0.59571   0.00000  Uiso   1.00
H1284  H     0.15508   0.53021   0.57743   0.00000  Uiso   1.00
H1285  H     0.17834   0.54134   0.62228   0.00000  Uiso   1.00
H1286  H     0.13757   0.51382   0.62289   0.00000  Uiso   1.00
H1287  H     0.17481   0.54698   0.90708   0.00000  Uiso   1.00
H1288  H     0.22241   0.59750   0.91065   0.00000  Uiso   1.00
H1289  H     0.19560   0.59525   0.86669   0.00000  Uiso   1.00
H1290  H     0.10740   0.91247   0.14651   0.00000  Uiso   1.00
H1291  H     0.24106   0.57658   0.86725   0.00000  Uiso   1.00
H1292  H     0.29469   0.92520   0.09650   0.00000  Uiso   1.00
H1293  H     0.34896   0.96307   0.07838   0.00000  Uiso   1.00
H1294  H     0.34937   0.94676   0.12780   0.00000  Uiso   1.00
H1295  H     0.33595   0.99305   0.11754   0.00000  Uiso   1.00
H1296  H     0.42532   0.70322   0.90672   0.00000  Uiso   1.00
H1297  H     0.39954   0.76709   0.91058   0.00000  Uiso   1.00
H1298  H     0.39104   0.74291   0.86585   0.00000  Uiso   1.00
H1299  H     0.42698   0.77630   0.86788   0.00000  Uiso   1.00
H1300  H     0.07911   0.78791   0.09486   0.00000  Uiso   1.00
H1301  H     0.14789   0.93764   0.13322   0.00000  Uiso   1.00
H1302  H     0.09711   0.72197   0.08099   0.00000  Uiso   1.00
H1303  H     0.07266   0.71190   0.12552   0.00000  Uiso   1.00
H1304  H     0.11238   0.74088   0.12629   0.00000  Uiso   1.00
H1305  H     0.29527   0.92562   0.90350   0.00000  Uiso   1.00
H1306  H     0.34904   0.96394   0.92210   0.00000  Uiso   1.00
H1307  H     0.33603   0.99397   0.88289   0.00000  Uiso   1.00
H1308  H     0.35000   0.94782   0.87267   0.00000  Uiso   1.00
H1309  H     0.17667   0.54935   0.09407   0.00000  Uiso   1.00
H1310  H     0.22471   0.59866   0.08680   0.00000  Uiso   1.00
H1311  H     0.24551   0.57829   0.12940   0.00000  Uiso   1.00
H1312  H     0.43705   0.81811   0.53440   0.00000  Uiso   1.00
H1313  H     0.12355   0.94927   0.17694   0.00000  Uiso   1.00
H1314  H     0.20042   0.59784   0.13248   0.00000  Uiso   1.00
H1315  H     0.07550   0.79584   0.90641   0.00000  Uiso   1.00
H1316  H     0.10060   0.73161   0.91031   0.00000  Uiso   1.00
H1317  H     0.10961   0.75593   0.86570   0.00000  Uiso   1.00
H1318  H     0.07327   0.72294   0.86748   0.00000  Uiso   1.00
H1319  H     0.42026   0.71434   0.09592   0.00000  Uiso   1.00
H1320  H     0.40531   0.78019   0.07668   0.00000  Uiso   1.00
H1321  H     0.42829   0.79170   0.12157   0.00000  Uiso   1.00
H1322  H     0.38746   0.76425   0.12213   0.00000  Uiso   1.00
H1323  H     0.35694   0.60149   0.84474   0.00000  Uiso   1.00
H1324  H     0.31265   0.65264   0.83023   0.00000  Uiso   1.00
H1325  H     0.29461   0.61322   0.85500   0.00000  Uiso   1.00
H1326  H     0.28732   0.61834   0.80361   0.00000  Uiso   1.00
H1327  H     0.04596   0.58614   0.28114   0.00000  Uiso   1.00
H1328  H     0.02272   0.56872   0.22208   0.00000  Uiso   1.00
H1329  H     0.04278   0.60772   0.19807   0.00000  Uiso   1.00
H1330  H     0.00226   0.61303   0.22745   0.00000  Uiso   1.00
H1331  H     0.45592   0.91317   0.72515   0.00000  Uiso   1.00
H1332  H     0.33946   0.52519   0.46507   0.00000  Uiso   1.00
H1333  H     0.45826   0.93100   0.79364   0.00000  Uiso   1.00
H1334  H     0.49707   0.90368   0.77972   0.00000  Uiso   1.00
H1335  H     0.45983   0.88337   0.80624   0.00000  Uiso   1.00
H1336  H     0.33597   0.62110   0.16158   0.00000  Uiso   1.00
H1337  H     0.39130   0.58462   0.14658   0.00000  Uiso   1.00
H1338  H     0.34912   0.56203   0.13443   0.00000  Uiso   1.00
H1339  H     0.37323   0.54983   0.17810   0.00000  Uiso   1.00
H1340  H     0.16590   0.87372   0.83899   0.00000  Uiso   1.00
H1341  H     0.12959   0.91610   0.86951   0.00000  Uiso   1.00
H1342  H     0.12320   0.94147   0.82504   0.00000  Uiso   1.00
H1343  H     0.16078   0.97551   0.53413   0.00000  Uiso   1.00
H1344  H     0.16566   0.94470   0.85140   0.00000  Uiso   1.00
H1345  H     0.45178   0.91223   0.28888   0.00000  Uiso   1.00
H1346  H     0.47929   0.93171   0.23262   0.00000  Uiso   1.00
H1347  H     0.46063   0.89402   0.20543   0.00000  Uiso   1.00
H1348  H     0.49894   0.88693   0.23754   0.00000  Uiso   1.00
H1349  H     0.03673   0.62300   0.71979   0.00000  Uiso   1.00
H1350  H     0.01488   0.56708   0.76039   0.00000  Uiso   1.00
H1351  H     0.01100   0.61221   0.78063   0.00000  Uiso   1.00
H1352  H     0.04863   0.58301   0.79446   0.00000  Uiso   1.00
H1353  H     0.08330   0.54220   0.74862   0.00000  Uiso   1.00
H1354  H     0.43671   0.81780   0.46563   0.00000  Uiso   1.00
H1355  H     0.09801   0.51639   0.68829   0.00000  Uiso   1.00
H1356  H     0.13412   0.54937   0.68170   0.00000  Uiso   1.00
H1357  H     0.08657   0.56322   0.67885   0.00000  Uiso   1.00
H1358  H     0.37696   0.96321   0.28246   0.00000  Uiso   1.00
H1359  H     0.38795   0.99107   0.22344   0.00000  Uiso   1.00
H1360  H     0.41433   0.95263   0.20649   0.00000  Uiso   1.00
H1361  H     0.43380   0.98417   0.24092   0.00000  Uiso   1.00
H1362  H     0.10060   0.81330   0.82041   0.00000  Uiso   1.00
H1363  H     0.07197   0.88810   0.83444   0.00000  Uiso   1.00
H1364  H     0.05158   0.84466   0.84608   0.00000  Uiso   1.00
H1365  H     0.06199   0.68086   0.53439   0.00000  Uiso   1.00
H1366  H     0.08817   0.86207   0.87554   0.00000  Uiso   1.00
H1367  H     0.39531   0.64558   0.15579   0.00000  Uiso   1.00
H1368  H     0.37926   0.70682   0.14861   0.00000  Uiso   1.00
H1369  H     0.37895   0.71293   0.20043   0.00000  Uiso   1.00
H1370  H     0.34306   0.68709   0.17683   0.00000  Uiso   1.00
H1371  H     0.41750   0.95801   0.75444   0.00000  Uiso   1.00
H1372  H     0.39967   0.99025   0.69897   0.00000  Uiso   1.00
H1373  H     0.36348   0.95809   0.69002   0.00000  Uiso   1.00
H1374  H     0.41076   0.94490   0.68262   0.00000  Uiso   1.00
H1375  H     0.12117   0.53557   0.27791   0.00000  Uiso   1.00
H1376  H     0.16128   0.97384   0.46534   0.00000  Uiso   1.00
H1377  H     0.06647   0.51677   0.23206   0.00000  Uiso   1.00
H1378  H     0.11317   0.50957   0.21755   0.00000  Uiso   1.00
H1379  H     0.08862   0.54900   0.20008   0.00000  Uiso   1.00
H1380  H     0.38058   0.66152   0.84068   0.00000  Uiso   1.00
H1381  H     0.44172   0.64828   0.86393   0.00000  Uiso   1.00
H1382  H     0.45097   0.62452   0.81930   0.00000  Uiso   1.00
H1383  H     0.41780   0.60666   0.85287   0.00000  Uiso   1.00
H1384  H     0.07620   0.84521   0.17100   0.00000  Uiso   1.00
H1385  H     0.12536   0.80807   0.13794   0.00000  Uiso   1.00
H1386  H     0.10497   0.78731   0.18046   0.00000  Uiso   1.00
H1387  H     0.33990   0.52377   0.53396   0.00000  Uiso   1.00
H1388  H     0.14929   0.80934   0.18326   0.00000  Uiso   1.00
H1389  H     0.41491   0.62969   0.66194   0.00000  Uiso   1.00
H1390  H     0.35789   0.66211   0.64626   0.00000  Uiso   1.00
H1391  H     0.39847   0.68719   0.63307   0.00000  Uiso   1.00
H1392  H     0.37394   0.69901   0.67662   0.00000  Uiso   1.00
H1393  H     0.10761   0.85085   0.34469   0.00000  Uiso   1.00
H1394  H     0.06325   0.90211   0.33096   0.00000  Uiso   1.00
H1395  H     0.04536   0.86251   0.35554   0.00000  Uiso   1.00
H1396  H     0.03772   0.86803   0.30425   0.00000  Uiso   1.00
H1397  H     0.29592   0.83611   0.78100   0.00000  Uiso   1.00
H1398  H     0.31219   0.93108   0.96570   0.00000  Uiso   1.00
H1399  H     0.27275   0.81873   0.72189   0.00000  Uiso   1.00
H1400  H     0.29284   0.85776   0.69795   0.00000  Uiso   1.00
H1401  H     0.25229   0.86305   0.72728   0.00000  Uiso   1.00
H1402  H     0.20587   0.66315   0.22496   0.00000  Uiso   1.00
H1403  H     0.20838   0.68106   0.29341   0.00000  Uiso   1.00
H1404  H     0.24713   0.65367   0.27946   0.00000  Uiso   1.00
H1405  H     0.20991   0.63344   0.30608   0.00000  Uiso   1.00
H1406  H     0.08660   0.87046   0.66135   0.00000  Uiso   1.00
H1407  H     0.14200   0.83381   0.64698   0.00000  Uiso   1.00
H1408  H     0.09987   0.81121   0.63470   0.00000  Uiso   1.00
N1409  N     0.15476   0.90075   0.17920   0.00000  Uiso   1.00
N1410  N     0.39459   0.94901   0.26460   0.00000  Uiso   1.00
N1411  N     0.10430   0.84117   0.82165   0.00000  Uiso   1.00
N1412  N     0.39428   0.66079   0.18085   0.00000  Uiso   1.00
N1413  N     0.39399   0.94934   0.74101   0.00000  Uiso   1.00
N1414  N     0.10466   0.55048   0.25951   0.00000  Uiso   1.00
N1415  N     0.40080   0.65346   0.82166   0.00000  Uiso   1.00
N1416  N     0.10347   0.84453   0.17832   0.00000  Uiso   1.00
N1417  N     0.40508   0.65045   0.67924   0.00000  Uiso   1.00
N1418  N     0.09122   0.85273   0.32054   0.00000  Uiso   1.00
N1419  N     0.30029   0.85496   0.75924   0.00000  Uiso   1.00
N1420  N     0.34072   0.60320   0.82044   0.00000  Uiso   1.00
N1421  N     0.19976   0.64472   0.24663   0.00000  Uiso   1.00
N1422  N     0.09549   0.84980   0.67936   0.00000  Uiso   1.00
N1423  N     0.40928   0.64498   0.32139   0.00000  Uiso   1.00
N1424  N     0.19904   0.64426   0.76578   0.00000  Uiso   1.00
N1425  N     0.30104   0.85461   0.23958   0.00000  Uiso   1.00
N1426  N     0.35703   0.80208   0.23302   0.00000  Uiso   1.00
N1427  N     0.14476   0.69906   0.76487   0.00000  Uiso   1.00
N1428  N     0.35467   0.59079   0.32154   0.00000  Uiso   1.00
N1429  N     0.14489   0.91012   0.68067   0.00000  Uiso   1.00
N1430  N     0.14397   0.69935   0.24093   0.00000  Uiso   1.00
N1431  N     0.05031   0.60498   0.25935   0.00000  Uiso   1.00
N1432  N     0.35464   0.80046   0.75940   0.00000  Uiso   1.00
N1433  N     0.15136   0.90291   0.32168   0.00000  Uiso   1.00
N1434  N     0.35368   0.59432   0.67835   0.00000  Uiso   1.00
N1435  N     0.45127   0.79580   0.39666   0.00000  Uiso   1.00
N1436  N     0.04706   0.70232   0.60332   0.00000  Uiso   1.00
N1437  N     0.18790   0.97629   0.39611   0.00000  Uiso   1.00
N1438  N     0.31497   0.51498   0.60343   0.00000  Uiso   1.00
N1439  N     0.04750   0.70286   0.39680   0.00000  Uiso   1.00
N1440  N     0.45341   0.79771   0.60355   0.00000  Uiso   1.00
N1441  N     0.31277   0.52278   0.39584   0.00000  Uiso   1.00
N1442  N     0.44976   0.89472   0.74679   0.00000  Uiso   1.00
N1443  N     0.18494   0.98713   0.60325   0.00000  Uiso   1.00
N1444  N     0.20120   0.54572   0.89666   0.00000  Uiso   1.00
N1445  N     0.29720   0.95246   0.10332   0.00000  Uiso   1.00
N1446  N     0.43790   0.72631   0.89611   0.00000  Uiso   1.00
N1447  N     0.06498   0.76498   0.10342   0.00000  Uiso   1.00
N1448  N     0.29759   0.95295   0.89680   0.00000  Uiso   1.00
N1449  N     0.20332   0.54763   0.10354   0.00000  Uiso   1.00
N1450  N     0.06274   0.77287   0.89584   0.00000  Uiso   1.00
N1451  N     0.43491   0.73730   0.10320   0.00000  Uiso   1.00
N1452  N     0.34496   0.60033   0.17939   0.00000  Uiso   1.00
N1453  N     0.15879   0.89547   0.82151   0.00000  Uiso   1.00
N1454  N     0.44889   0.89429   0.26605   0.00000  Uiso   1.00
N1455  N     0.05129   0.60553   0.73748   0.00000  Uiso   1.00
N1456  N     0.10645   0.55190   0.73507   0.00000  Uiso   1.00
O1457  O     0.25000   0.50000   0.25000   0.00000  Uiso   1.00
O1458  O     0.25000   0.96964   0.66245   0.00000  Uiso   1.00
O1459  O     0.46963   0.75000   0.33755   0.00000  Uiso   1.00
O1460  O     0.03036   0.75000   0.66245   0.00000  Uiso   1.00
O1461  O     0.00000   0.71963   0.83755   0.00000  Uiso   1.00
O1462  O     0.00000   0.78036   0.16245   0.00000  Uiso   1.00
O1463  O     0.28036   0.50000   0.83755   0.00000  Uiso   1.00
O1464  O     0.21963   0.50000   0.16245   0.00000  Uiso   1.00
O1465  O     0.00000   0.78036   0.83755   0.00000  Uiso   1.00
O1466  O    -0.00000   0.71964   0.16245   0.00000  Uiso   1.00
O1467  O     0.21963   0.50000   0.83755   0.00000  Uiso   1.00
O1468  O     0.25000   0.50000   0.75000   0.00000  Uiso   1.00
O1469  O     0.28036   0.50000   0.16245   0.00000  Uiso   1.00
O1470  O     0.20724   0.57308   0.27302   0.00000  Uiso   1.00
O1471  O     0.29275   0.92693   0.72698   0.00000  Uiso   1.00
O1472  O     0.42692   0.70725   0.27302   0.00000  Uiso   1.00
O1473  O     0.07307   0.79275   0.72698   0.00000  Uiso   1.00
O1474  O     0.29275   0.92693   0.27302   0.00000  Uiso   1.00
O1475  O     0.20724   0.57308   0.72698   0.00000  Uiso   1.00
O1476  O     0.07307   0.79275   0.27302   0.00000  Uiso   1.00
O1477  O     0.42692   0.70725   0.72698   0.00000  Uiso   1.00
O1478  O     0.20724   0.92692   0.72698   0.00000  Uiso   1.00
O1479  O     0.00000   0.75000   0.25000   0.00000  Uiso   1.00
O1480  O     0.29275   0.57308   0.27302   0.00000  Uiso   1.00
O1481  O     0.42692   0.79276   0.72698   0.00000  Uiso   1.00
O1482  O     0.07307   0.70724   0.27302   0.00000  Uiso   1.00
O1483  O     0.29275   0.57308   0.72698   0.00000  Uiso   1.00
O1484  O     0.20724   0.92692   0.27302   0.00000  Uiso   1.00
O1485  O     0.07307   0.70724   0.72698   0.00000  Uiso   1.00
O1486  O     0.42692   0.79276   0.27302   0.00000  Uiso   1.00
O1487  O     0.45724   0.82308   0.77302   0.00000  Uiso   1.00
O1488  O     0.04275   0.67692   0.22698   0.00000  Uiso   1.00
O1489  O     0.17692   0.95724   0.77302   0.00000  Uiso   1.00
O1490  O     0.00000   0.75000   0.75000   0.00000  Uiso   1.00
O1491  O     0.32307   0.54276   0.22698   0.00000  Uiso   1.00
O1492  O     0.04275   0.67692   0.77302   0.00000  Uiso   1.00
O1493  O     0.45724   0.82308   0.22698   0.00000  Uiso   1.00
O1494  O     0.32307   0.54276   0.77302   0.00000  Uiso   1.00
O1495  O     0.17692   0.95724   0.22698   0.00000  Uiso   1.00
O1496  O     0.45724   0.67693   0.22698   0.00000  Uiso   1.00
O1497  O     0.04275   0.82307   0.77302   0.00000  Uiso   1.00
O1498  O     0.17692   0.54276   0.22698   0.00000  Uiso   1.00
O1499  O     0.32307   0.95725   0.77302   0.00000  Uiso   1.00
O1500  O     0.04275   0.82307   0.22698   0.00000  Uiso   1.00
O1501  O     0.25000   0.96964   0.33755   0.00000  Uiso   1.00
O1502  O     0.45724   0.67693   0.77302   0.00000  Uiso   1.00
O1503  O     0.32307   0.95725   0.22698   0.00000  Uiso   1.00
O1504  O     0.17692   0.54276   0.77302   0.00000  Uiso   1.00
O1505  O     0.25000   0.53037   0.66245   0.00000  Uiso   1.00
O1506  O     0.03036   0.75000   0.33755   0.00000  Uiso   1.00
O1507  O     0.46963   0.75000   0.66245   0.00000  Uiso   1.00
O1508  O     0.25000   0.53037   0.33755   0.00000  Uiso   1.00
Zn1509 Zn    0.20659   0.50000   0.21735   0.00000  Uiso   1.00
Zn1510 Zn    0.04340   0.75000   0.28265   0.00000  Uiso   1.00
Zn1511 Zn    0.25000   0.95660   0.71735   0.00000  Uiso   1.00
Zn1512 Zn    0.25000   0.54341   0.28265   0.00000  Uiso   1.00
Zn1513 Zn    0.04340   0.75000   0.71735   0.00000  Uiso   1.00
Zn1514 Zn    0.45659   0.75000   0.28265   0.00000  Uiso   1.00
Zn1515 Zn    0.25000   0.54341   0.71735   0.00000  Uiso   1.00
Zn1516 Zn    0.25000   0.95660   0.28265   0.00000  Uiso   1.00
Zn1517 Zn    0.29340   0.50000   0.78265   0.00000  Uiso   1.00
Zn1518 Zn   -0.00000   0.70660   0.21735   0.00000  Uiso   1.00
Zn1519 Zn    0.00000   0.79340   0.78265   0.00000  Uiso   1.00
Zn1520 Zn    0.29340   0.50000   0.21735   0.00000  Uiso   1.00
Zn1521 Zn    0.20659   0.50000   0.78265   0.00000  Uiso   1.00
Zn1522 Zn    0.00000   0.79340   0.21735   0.00000  Uiso   1.00
Zn1523 Zn   -0.00000   0.70660   0.78265   0.00000  Uiso   1.00
Zn1524 Zn    0.45659   0.75000   0.71735   0.00000  Uiso   1.00
C1525  C     0.97579   0.77317   0.41819   0.00000  Uiso   1.00
C1526  C     0.77383   0.97627   0.08180   0.00000  Uiso   1.00
C1527  C     0.71795   0.99096   0.54079   0.00000  Uiso   1.00
C1528  C     0.97595   0.77345   0.45905   0.00000  Uiso   1.00
C1529  C     0.52259   0.72507   0.54100   0.00000  Uiso   1.00
C1530  C     0.71836   0.98940   0.45872   0.00000  Uiso   1.00
C1531  C     0.78266   0.50865   0.54075   0.00000  Uiso   1.00
C1532  C     0.77263   0.97515   0.95909   0.00000  Uiso   1.00
C1533  C     0.72628   0.52374   0.04103   0.00000  Uiso   1.00
C1534  C     0.53234   0.75982   0.95861   0.00000  Uiso   1.00
C1535  C     0.96802   0.74078   0.04078   0.00000  Uiso   1.00
C1536  C     0.72590   0.52340   0.95905   0.00000  Uiso   1.00
C1537  C     0.96873   0.73858   0.91782   0.00000  Uiso   1.00
C1538  C     0.77265   0.97512   0.04100   0.00000  Uiso   1.00
C1539  C     0.96841   0.73927   0.95872   0.00000  Uiso   1.00
C1540  C     0.53269   0.75858   0.04075   0.00000  Uiso   1.00
C1541  C     0.59771   0.84843   0.24982   0.00000  Uiso   1.00
C1542  C     0.90193   0.65186   0.75039   0.00000  Uiso   1.00
C1543  C     0.65181   0.59799   0.25116   0.00000  Uiso   1.00
C1544  C     0.84778   0.90162   0.74973   0.00000  Uiso   1.00
C1545  C     0.90184   0.65190   0.25081   0.00000  Uiso   1.00
C1546  C     0.59920   0.84693   0.75046   0.00000  Uiso   1.00
C1547  C     0.84808   0.90201   0.25087   0.00000  Uiso   1.00
C1548  C     0.53264   0.75796   0.08173   0.00000  Uiso   1.00
C1549  C     0.65225   0.59849   0.75022   0.00000  Uiso   1.00
C1550  C     0.59824   0.65223   0.75066   0.00000  Uiso   1.00
C1551  C     0.90227   0.84846   0.25019   0.00000  Uiso   1.00
C1552  C     0.65187   0.90187   0.75081   0.00000  Uiso   1.00
C1553  C     0.84916   0.59697   0.25043   0.00000  Uiso   1.00
C1554  C     0.90180   0.84798   0.75117   0.00000  Uiso   1.00
C1555  C     0.59778   0.65162   0.24973   0.00000  Uiso   1.00
C1556  C     0.84769   0.59845   0.74981   0.00000  Uiso   1.00
C1557  C     0.65196   0.90183   0.25037   0.00000  Uiso   1.00
C1558  C     0.99918   0.74920   0.47951   0.00000  Uiso   1.00
C1559  C     0.77387   0.97641   0.91829   0.00000  Uiso   1.00
C1560  C     0.99927   0.74927   0.52058   0.00000  Uiso   1.00
C1561  C     0.75035   0.99963   0.47915   0.00000  Uiso   1.00
C1562  C     0.75034   0.99969   0.52028   0.00000  Uiso   1.00
C1563  C     0.74919   0.99920   0.97951   0.00000  Uiso   1.00
C1564  C     0.74927   0.99927   0.02058   0.00000  Uiso   1.00
C1565  C     0.50039   0.74953   0.97915   0.00000  Uiso   1.00
C1566  C     0.50039   0.74956   0.02028   0.00000  Uiso   1.00
C1567  C     0.63211   0.92631   0.15798   0.00000  Uiso   1.00
C1568  C     0.80710   0.62295   0.82753   0.00000  Uiso   1.00
C1569  C     0.52866   0.59829   0.22487   0.00000  Uiso   1.00
C1570  C     0.72655   0.52381   0.08189   0.00000  Uiso   1.00
C1571  C     0.96693   0.90363   0.78347   0.00000  Uiso   1.00
C1572  C     0.86580   0.57286   0.15870   0.00000  Uiso   1.00
C1573  C     0.64334   0.92595   0.84275   0.00000  Uiso   1.00
C1574  C     0.97294   0.90211   0.23364   0.00000  Uiso   1.00
C1575  C     0.53058   0.59130   0.77001   0.00000  Uiso   1.00
C1576  C     0.60634   0.54495   0.69380   0.00000  Uiso   1.00
C1577  C     0.90832   0.97008   0.23210   0.00000  Uiso   1.00
C1578  C     0.57767   0.86011   0.84543   0.00000  Uiso   1.00
C1579  C     0.87272   0.69360   0.17658   0.00000  Uiso   1.00
C1580  C     0.89181   0.96111   0.70102   0.00000  Uiso   1.00
C1581  C     0.53187   0.76079   0.91769   0.00000  Uiso   1.00
C1582  C     0.59267   0.53067   0.22547   0.00000  Uiso   1.00
C1583  C     0.92919   0.63207   0.84026   0.00000  Uiso   1.00
C1584  C     0.62171   0.81048   0.16976   0.00000  Uiso   1.00
C1585  C     0.88256   0.67597   0.65780   0.00000  Uiso   1.00
C1586  C     0.55766   0.87244   0.32805   0.00000  Uiso   1.00
C1587  C     0.77869   0.84831   0.72472   0.00000  Uiso   1.00
C1588  C     0.71699   0.65366   0.28327   0.00000  Uiso   1.00
C1589  C     0.61642   0.82218   0.65901   0.00000  Uiso   1.00
C1590  C     0.89405   0.67537   0.34294   0.00000  Uiso   1.00
C1591  C     0.72295   0.65216   0.73328   0.00000  Uiso   1.00
C1592  C     0.96780   0.74213   0.08170   0.00000  Uiso   1.00
C1593  C     0.78160   0.84172   0.27360   0.00000  Uiso   1.00
C1594  C     0.85755   0.79692   0.19146   0.00000  Uiso   1.00
C1595  C     0.65839   0.72033   0.73246   0.00000  Uiso   1.00
C1596  C     0.82820   0.60966   0.34559   0.00000  Uiso   1.00
C1597  C     0.62355   0.94303   0.67602   0.00000  Uiso   1.00
C1598  C     0.64168   0.71115   0.20096   0.00000  Uiso   1.00
C1599  C     0.84269   0.78069   0.72532   0.00000  Uiso   1.00
C1600  C     0.67990   0.88138   0.33983   0.00000  Uiso   1.00
C1601  C     0.87194   0.56025   0.66992   0.00000  Uiso   1.00
C1602  C     0.96608   0.83064   0.38482   0.00000  Uiso   1.00
C1603  C     0.50008   0.75001   0.39820   0.00000  Uiso   1.00
C1604  C     0.58464   0.71429   0.60683   0.00000  Uiso   1.00
C1605  C     0.66261   0.50466   0.38454   0.00000  Uiso   1.00
C1606  C     0.83782   0.98319   0.60927   0.00000  Uiso   1.00
C1607  C     0.58497   0.71523   0.39358   0.00000  Uiso   1.00
C1608  C     0.96959   0.83245   0.61346   0.00000  Uiso   1.00
C1609  C     0.83776   0.99411   0.38439   0.00000  Uiso   1.00
C1610  C     0.66294   0.51985   0.60657   0.00000  Uiso   1.00
C1611  C     0.71595   0.58058   0.88483   0.00000  Uiso   1.00
C1612  C     0.83475   0.96453   0.10680   0.00000  Uiso   1.00
C1613  C     0.91262   0.75473   0.88463   0.00000  Uiso   1.00
C1614  C     0.50033   0.75014   0.60185   0.00000  Uiso   1.00
C1615  C     0.58788   0.73323   0.10927   0.00000  Uiso   1.00
C1616  C     0.83504   0.96539   0.89358   0.00000  Uiso   1.00
C1617  C     0.71944   0.58240   0.11345   0.00000  Uiso   1.00
C1618  C     0.58778   0.74426   0.88435   0.00000  Uiso   1.00
C1619  C     0.91295   0.77008   0.10598   0.00000  Uiso   1.00
C1620  C     0.75022   0.99985   0.39788   0.00000  Uiso   1.00
C1621  C     0.52377   0.72620   0.58180   0.00000  Uiso   1.00
C1622  C     0.75016   0.50007   0.60176   0.00000  Uiso   1.00
C1623  C     0.75008   0.50001   0.89820   0.00000  Uiso   1.00
C1624  C     0.75033   0.50015   0.10185   0.00000  Uiso   1.00
C1625  C     0.50022   0.74985   0.89788   0.00000  Uiso   1.00
C1626  C     0.50018   0.75004   0.10175   0.00000  Uiso   1.00
C1627  C     0.54444   0.70047   0.47997   0.00000  Uiso   1.00
C1628  C     0.95417   0.79816   0.52013   0.00000  Uiso   1.00
C1629  C     0.81413   0.51833   0.47948   0.00000  Uiso   1.00
C1630  C     0.68630   0.98189   0.51987   0.00000  Uiso   1.00
C1631  C     0.95394   0.79795   0.47994   0.00000  Uiso   1.00
C1632  C     0.71871   0.98862   0.41782   0.00000  Uiso   1.00
C1633  C     0.54441   0.70042   0.52012   0.00000  Uiso   1.00
C1634  C     0.68659   0.98082   0.47966   0.00000  Uiso   1.00
C1635  C     0.81438   0.51744   0.51973   0.00000  Uiso   1.00
C1636  C     0.79454   0.95056   0.97997   0.00000  Uiso   1.00
C1637  C     0.70408   0.54807   0.02013   0.00000  Uiso   1.00
C1638  C     0.56414   0.76833   0.97947   0.00000  Uiso   1.00
C1639  C     0.93639   0.73161   0.01987   0.00000  Uiso   1.00
C1640  C     0.70385   0.54787   0.97994   0.00000  Uiso   1.00
C1641  C     0.79452   0.95052   0.02012   0.00000  Uiso   1.00
C1642  C     0.93667   0.73059   0.97966   0.00000  Uiso   1.00
C1643  C     0.78262   0.50801   0.58174   0.00000  Uiso   1.00
C1644  C     0.56440   0.76742   0.01972   0.00000  Uiso   1.00
C1645  C     0.75011   0.99997   0.35570   0.00000  Uiso   1.00
C1646  C     0.75004   0.50003   0.64417   0.00000  Uiso   1.00
C1647  C     0.50001   0.74985   0.35583   0.00000  Uiso   1.00
C1648  C     0.50007   0.74988   0.64418   0.00000  Uiso   1.00
C1649  C     0.50011   0.74997   0.85570   0.00000  Uiso   1.00
C1650  C     0.50004   0.75003   0.14417   0.00000  Uiso   1.00
C1651  C     0.75001   0.99985   0.85584   0.00000  Uiso   1.00
C1652  C     0.75007   0.99989   0.14418   0.00000  Uiso   1.00
C1653  C     0.68000   0.56999   0.25016   0.00000  Uiso   1.00
C1654  C     0.52383   0.72637   0.41829   0.00000  Uiso   1.00
C1655  C     0.81975   0.92978   0.75023   0.00000  Uiso   1.00
C1656  C     0.93019   0.67979   0.25050   0.00000  Uiso   1.00
C1657  C     0.57026   0.81973   0.75017   0.00000  Uiso   1.00
C1658  C     0.82002   0.93005   0.25017   0.00000  Uiso   1.00
C1659  C     0.68020   0.57022   0.75026   0.00000  Uiso   1.00
C1660  C     0.57009   0.81991   0.24972   0.00000  Uiso   1.00
C1661  C     0.92989   0.68008   0.75025   0.00000  Uiso   1.00
C1662  C     0.68020   0.92978   0.75051   0.00000  Uiso   1.00
C1663  C     0.82025   0.56974   0.25015   0.00000  Uiso   1.00
C1664  C     0.93000   0.81999   0.75017   0.00000  Uiso   1.00
C1665  C     0.97660   0.77385   0.58189   0.00000  Uiso   1.00
C1666  C     0.56975   0.67978   0.25023   0.00000  Uiso   1.00
C1667  C     0.82009   0.56991   0.74972   0.00000  Uiso   1.00
C1668  C     0.67990   0.93007   0.25024   0.00000  Uiso   1.00
C1669  C     0.57011   0.68017   0.75023   0.00000  Uiso   1.00
C1670  C     0.93023   0.82024   0.25027   0.00000  Uiso   1.00
C1671  C     0.63926   0.88817   0.21477   0.00000  Uiso   1.00
C1672  C     0.85902   0.61337   0.78546   0.00000  Uiso   1.00
C1673  C     0.58763   0.61466   0.25310   0.00000  Uiso   1.00
C1674  C     0.91204   0.88506   0.74921   0.00000  Uiso   1.00
C1675  C     0.86089   0.61223   0.21497   0.00000  Uiso   1.00
C1676  C     0.78186   0.51078   0.41769   0.00000  Uiso   1.00
C1677  C     0.64089   0.88592   0.78619   0.00000  Uiso   1.00
C1678  C     0.91208   0.88510   0.25657   0.00000  Uiso   1.00
C1679  C     0.58827   0.61547   0.74530   0.00000  Uiso   1.00
C1680  C     0.61552   0.58860   0.74455   0.00000  Uiso   1.00
C1681  C     0.88489   0.91209   0.25659   0.00000  Uiso   1.00
C1682  C     0.61421   0.85850   0.78606   0.00000  Uiso   1.00
C1683  C     0.88618   0.64100   0.21542   0.00000  Uiso   1.00
C1684  C     0.88472   0.91194   0.74697   0.00000  Uiso   1.00
C1685  C     0.61477   0.58769   0.25367   0.00000  Uiso   1.00
C1686  C     0.88771   0.63889   0.78592   0.00000  Uiso   1.00
C1687  C     0.71776   0.99222   0.58172   0.00000  Uiso   1.00
C1688  C     0.61299   0.86060   0.21449   0.00000  Uiso   1.00
C1689  C     0.88942   0.63803   0.71479   0.00000  Uiso   1.00
C1690  C     0.60927   0.86313   0.28549   0.00000  Uiso   1.00
C1691  C     0.83762   0.86466   0.75304   0.00000  Uiso   1.00
C1692  C     0.66204   0.63506   0.24913   0.00000  Uiso   1.00
C1693  C     0.61119   0.86191   0.71497   0.00000  Uiso   1.00
C1694  C     0.89112   0.63569   0.28614   0.00000  Uiso   1.00
C1695  C     0.66218   0.63515   0.75643   0.00000  Uiso   1.00
C1696  C     0.83813   0.86505   0.24613   0.00000  Uiso   1.00
C1697  C     0.86562   0.83844   0.24436   0.00000  Uiso   1.00
C1698  C     0.72575   0.52312   0.91819   0.00000  Uiso   1.00
C1699  C     0.63503   0.66220   0.75661   0.00000  Uiso   1.00
C1700  C     0.86441   0.60830   0.28600   0.00000  Uiso   1.00
C1701  C     0.63651   0.89065   0.71538   0.00000  Uiso   1.00
C1702  C     0.63472   0.66195   0.24691   0.00000  Uiso   1.00
C1703  C     0.86476   0.83768   0.75361   0.00000  Uiso   1.00
C1704  C     0.63799   0.88862   0.28592   0.00000  Uiso   1.00
C1705  C     0.86312   0.61048   0.71450   0.00000  Uiso   1.00
C1706  C     0.52258   0.72510   0.45909   0.00000  Uiso   1.00
C1707  C     0.97632   0.77378   0.54103   0.00000  Uiso   1.00
C1708  C     0.78232   0.50985   0.45861   0.00000  Uiso   1.00
H1709  H     0.56205   0.68095   0.46569   0.00000  Uiso   1.00
H1710  H     0.68692   0.56799   0.03440   0.00000  Uiso   1.00
H1711  H     0.62370   0.79926   0.67863   0.00000  Uiso   1.00
H1712  H     0.91644   0.62311   0.33867   0.00000  Uiso   1.00
H1713  H     0.88047   0.66541   0.36975   0.00000  Uiso   1.00
H1714  H     0.87381   0.69104   0.32551   0.00000  Uiso   1.00
H1715  H     0.91648   0.69403   0.35153   0.00000  Uiso   1.00
H1716  H     0.70204   0.66213   0.78865   0.00000  Uiso   1.00
H1717  H     0.72921   0.68178   0.73225   0.00000  Uiso   1.00
H1718  H     0.71057   0.64403   0.70512   0.00000  Uiso   1.00
H1719  H     0.74900   0.63705   0.73708   0.00000  Uiso   1.00
H1720  H     0.78592   0.87258   0.22304   0.00000  Uiso   1.00
H1721  H     0.58946   0.77525   0.96506   0.00000  Uiso   1.00
H1722  H     0.75473   0.83048   0.26471   0.00000  Uiso   1.00
H1723  H     0.77679   0.86431   0.29436   0.00000  Uiso   1.00
H1724  H     0.79714   0.81992   0.28871   0.00000  Uiso   1.00
H1725  H     0.83387   0.79140   0.24560   0.00000  Uiso   1.00
H1726  H     0.85020   0.76838   0.18447   0.00000  Uiso   1.00
H1727  H     0.88526   0.80272   0.17988   0.00000  Uiso   1.00
H1728  H     0.83733   0.81521   0.17721   0.00000  Uiso   1.00
H1729  H     0.62713   0.71314   0.78281   0.00000  Uiso   1.00
H1730  H     0.63797   0.74132   0.72398   0.00000  Uiso   1.00
H1731  H     0.66438   0.70302   0.70673   0.00000  Uiso   1.00
H1732  H     0.91091   0.72511   0.03414   0.00000  Uiso   1.00
H1733  H     0.68387   0.73440   0.74131   0.00000  Uiso   1.00
H1734  H     0.85090   0.56294   0.32015   0.00000  Uiso   1.00
H1735  H     0.82252   0.63773   0.33483   0.00000  Uiso   1.00
H1736  H     0.80207   0.59428   0.34625   0.00000  Uiso   1.00
H1737  H     0.83884   0.61140   0.37565   0.00000  Uiso   1.00
H1738  H     0.64595   0.89472   0.65575   0.00000  Uiso   1.00
H1739  H     0.62964   0.95555   0.64758   0.00000  Uiso   1.00
H1740  H     0.63047   0.96278   0.69922   0.00000  Uiso   1.00
H1741  H     0.59384   0.93682   0.67706   0.00000  Uiso   1.00
H1742  H     0.66752   0.70802   0.25430   0.00000  Uiso   1.00
H1743  H     0.68658   0.56768   0.96563   0.00000  Uiso   1.00
H1744  H     0.64944   0.74032   0.19892   0.00000  Uiso   1.00
H1745  H     0.61334   0.70804   0.19001   0.00000  Uiso   1.00
H1746  H     0.66066   0.69501   0.18251   0.00000  Uiso   1.00
H1747  H     0.87113   0.78554   0.77780   0.00000  Uiso   1.00
H1748  H     0.81647   0.76680   0.73186   0.00000  Uiso   1.00
H1749  H     0.86319   0.75959   0.71741   0.00000  Uiso   1.00
H1750  H     0.83868   0.79905   0.69994   0.00000  Uiso   1.00
H1751  H     0.63129   0.91082   0.34094   0.00000  Uiso   1.00
H1752  H     0.69254   0.89738   0.36360   0.00000  Uiso   1.00
H1753  H     0.70158   0.87408   0.31863   0.00000  Uiso   1.00
H1754  H     0.81214   0.93100   0.03439   0.00000  Uiso   1.00
H1755  H     0.66863   0.85582   0.35222   0.00000  Uiso   1.00
H1756  H     0.82642   0.59496   0.67099   0.00000  Uiso   1.00
H1757  H     0.87553   0.55771   0.63811   0.00000  Uiso   1.00
H1758  H     0.85523   0.53712   0.68077   0.00000  Uiso   1.00
H1759  H     0.89955   0.55920   0.68338   0.00000  Uiso   1.00
H1760  H     0.92489   0.79711   0.40709   0.00000  Uiso   1.00
H1761  H     0.97259   0.84754   0.41063   0.00000  Uiso   1.00
H1762  H     0.94574   0.84534   0.36670   0.00000  Uiso   1.00
H1763  H     0.99117   0.82659   0.36721   0.00000  Uiso   1.00
H1764  H     0.54448   0.67507   0.59649   0.00000  Uiso   1.00
H1765  H     0.91137   0.72357   0.96535   0.00000  Uiso   1.00
H1766  H     0.59886   0.71279   0.57841   0.00000  Uiso   1.00
H1767  H     0.59921   0.69646   0.62783   0.00000  Uiso   1.00
H1768  H     0.58592   0.74280   0.61757   0.00000  Uiso   1.00
H1769  H     0.67534   0.95320   0.40677   0.00000  Uiso   1.00
H1770  H     0.64950   0.51707   0.41045   0.00000  Uiso   1.00
H1771  H     0.64105   0.99278   0.36578   0.00000  Uiso   1.00
H1772  H     0.67696   0.52621   0.36775   0.00000  Uiso   1.00
H1773  H     0.82914   0.53788   0.59488   0.00000  Uiso   1.00
H1774  H     0.84704   0.97192   0.58099   0.00000  Uiso   1.00
H1775  H     0.82257   0.96187   0.62550   0.00000  Uiso   1.00
H1776  H     0.58991   0.77378   0.03395   0.00000  Uiso   1.00
H1777  H     0.86233   0.99079   0.62630   0.00000  Uiso   1.00
H1778  H     0.54513   0.67554   0.40349   0.00000  Uiso   1.00
H1779  H     0.59897   0.71376   0.42210   0.00000  Uiso   1.00
H1780  H     0.58602   0.74381   0.38288   0.00000  Uiso   1.00
H1781  H     0.59990   0.69764   0.37267   0.00000  Uiso   1.00
H1782  H     0.92676   0.79948   0.59407   0.00000  Uiso   1.00
H1783  H     0.97490   0.84870   0.58681   0.00000  Uiso   1.00
H1784  H     0.99565   0.82829   0.62941   0.00000  Uiso   1.00
H1785  H     0.95061   0.84793   0.63249   0.00000  Uiso   1.00
H1786  H     0.82557   0.54573   0.40641   0.00000  Uiso   1.00
H1787  H     0.66454   0.88006   0.16177   0.00000  Uiso   1.00
H1788  H     0.85054   0.98146   0.41037   0.00000  Uiso   1.00
H1789  H     0.85961   0.50572   0.36574   0.00000  Uiso   1.00
H1790  H     0.82322   0.97280   0.36754   0.00000  Uiso   1.00
H1791  H     0.67029   0.96424   0.59571   0.00000  Uiso   1.00
H1792  H     0.65508   0.53021   0.57743   0.00000  Uiso   1.00
H1793  H     0.67834   0.54134   0.62228   0.00000  Uiso   1.00
H1794  H     0.63757   0.51382   0.62289   0.00000  Uiso   1.00
H1795  H     0.67481   0.54698   0.90708   0.00000  Uiso   1.00
H1796  H     0.72241   0.59750   0.91065   0.00000  Uiso   1.00
H1797  H     0.69560   0.59525   0.86669   0.00000  Uiso   1.00
H1798  H     0.60740   0.91247   0.14651   0.00000  Uiso   1.00
H1799  H     0.74106   0.57658   0.86725   0.00000  Uiso   1.00
H1800  H     0.79469   0.92520   0.09650   0.00000  Uiso   1.00
H1801  H     0.84896   0.96307   0.07838   0.00000  Uiso   1.00
H1802  H     0.84937   0.94676   0.12780   0.00000  Uiso   1.00
H1803  H     0.83595   0.99305   0.11754   0.00000  Uiso   1.00
H1804  H     0.92532   0.70322   0.90672   0.00000  Uiso   1.00
H1805  H     0.89954   0.76709   0.91058   0.00000  Uiso   1.00
H1806  H     0.89104   0.74291   0.86585   0.00000  Uiso   1.00
H1807  H     0.92698   0.77630   0.86788   0.00000  Uiso   1.00
H1808  H     0.57911   0.78791   0.09486   0.00000  Uiso   1.00
H1809  H     0.64789   0.93764   0.13322   0.00000  Uiso   1.00
H1810  H     0.59711   0.72197   0.08099   0.00000  Uiso   1.00
H1811  H     0.57266   0.71190   0.12552   0.00000  Uiso   1.00
H1812  H     0.61238   0.74088   0.12629   0.00000  Uiso   1.00
H1813  H     0.79527   0.92562   0.90350   0.00000  Uiso   1.00
H1814  H     0.84904   0.96394   0.92210   0.00000  Uiso   1.00
H1815  H     0.83603   0.99397   0.88289   0.00000  Uiso   1.00
H1816  H     0.85000   0.94782   0.87267   0.00000  Uiso   1.00
H1817  H     0.67667   0.54935   0.09407   0.00000  Uiso   1.00
H1818  H     0.72471   0.59866   0.08680   0.00000  Uiso   1.00
H1819  H     0.74551   0.57829   0.12940   0.00000  Uiso   1.00
H1820  H     0.93705   0.81811   0.53440   0.00000  Uiso   1.00
H1821  H     0.62355   0.94927   0.17694   0.00000  Uiso   1.00
H1822  H     0.70042   0.59784   0.13248   0.00000  Uiso   1.00
H1823  H     0.57550   0.79584   0.90641   0.00000  Uiso   1.00
H1824  H     0.60060   0.73161   0.91031   0.00000  Uiso   1.00
H1825  H     0.60961   0.75593   0.86570   0.00000  Uiso   1.00
H1826  H     0.57327   0.72294   0.86748   0.00000  Uiso   1.00
H1827  H     0.92026   0.71434   0.09592   0.00000  Uiso   1.00
H1828  H     0.90531   0.78019   0.07668   0.00000  Uiso   1.00
H1829  H     0.92829   0.79170   0.12157   0.00000  Uiso   1.00
H1830  H     0.88746   0.76425   0.12213   0.00000  Uiso   1.00
H1831  H     0.85694   0.60149   0.84474   0.00000  Uiso   1.00
H1832  H     0.81265   0.65264   0.83023   0.00000  Uiso   1.00
H1833  H     0.79461   0.61322   0.85500   0.00000  Uiso   1.00
H1834  H     0.78732   0.61834   0.80361   0.00000  Uiso   1.00
H1835  H     0.54596   0.58614   0.28114   0.00000  Uiso   1.00
H1836  H     0.52272   0.56872   0.22208   0.00000  Uiso   1.00
H1837  H     0.54278   0.60772   0.19807   0.00000  Uiso   1.00
H1838  H     0.50226   0.61303   0.22745   0.00000  Uiso   1.00
H1839  H     0.95592   0.91317   0.72515   0.00000  Uiso   1.00
H1840  H     0.83946   0.52519   0.46507   0.00000  Uiso   1.00
H1841  H     0.95826   0.93100   0.79364   0.00000  Uiso   1.00
H1842  H     0.99707   0.90368   0.77972   0.00000  Uiso   1.00
H1843  H     0.95983   0.88337   0.80624   0.00000  Uiso   1.00
H1844  H     0.83597   0.62110   0.16158   0.00000  Uiso   1.00
H1845  H     0.89130   0.58462   0.14658   0.00000  Uiso   1.00
H1846  H     0.84912   0.56203   0.13443   0.00000  Uiso   1.00
H1847  H     0.87323   0.54983   0.17810   0.00000  Uiso   1.00
H1848  H     0.66590   0.87372   0.83899   0.00000  Uiso   1.00
H1849  H     0.62959   0.91610   0.86951   0.00000  Uiso   1.00
H1850  H     0.62320   0.94147   0.82504   0.00000  Uiso   1.00
H1851  H     0.66078   0.97551   0.53413   0.00000  Uiso   1.00
H1852  H     0.66566   0.94470   0.85140   0.00000  Uiso   1.00
H1853  H     0.95178   0.91223   0.28888   0.00000  Uiso   1.00
H1854  H     0.97929   0.93171   0.23262   0.00000  Uiso   1.00
H1855  H     0.96063   0.89402   0.20543   0.00000  Uiso   1.00
H1856  H     0.99894   0.88693   0.23754   0.00000  Uiso   1.00
H1857  H     0.53673   0.62300   0.71979   0.00000  Uiso   1.00
H1858  H     0.51488   0.56708   0.76039   0.00000  Uiso   1.00
H1859  H     0.51100   0.61221   0.78063   0.00000  Uiso   1.00
H1860  H     0.54863   0.58301   0.79446   0.00000  Uiso   1.00
H1861  H     0.58330   0.54220   0.74862   0.00000  Uiso   1.00
H1862  H     0.93671   0.81780   0.46563   0.00000  Uiso   1.00
H1863  H     0.59801   0.51639   0.68829   0.00000  Uiso   1.00
H1864  H     0.63412   0.54937   0.68170   0.00000  Uiso   1.00
H1865  H     0.58657   0.56322   0.67885   0.00000  Uiso   1.00
H1866  H     0.87696   0.96321   0.28246   0.00000  Uiso   1.00
H1867  H     0.88795   0.99107   0.22344   0.00000  Uiso   1.00
H1868  H     0.91433   0.95263   0.20649   0.00000  Uiso   1.00
H1869  H     0.93380   0.98417   0.24092   0.00000  Uiso   1.00
H1870  H     0.60060   0.81330   0.82041   0.00000  Uiso   1.00
H1871  H     0.57197   0.88810   0.83444   0.00000  Uiso   1.00
H1872  H     0.55158   0.84466   0.84608   0.00000  Uiso   1.00
H1873  H     0.56199   0.68086   0.53439   0.00000  Uiso   1.00
H1874  H     0.58817   0.86207   0.87554   0.00000  Uiso   1.00
H1875  H     0.89531   0.64558   0.15579   0.00000  Uiso   1.00
H1876  H     0.87926   0.70682   0.14861   0.00000  Uiso   1.00
H1877  H     0.87895   0.71293   0.20043   0.00000  Uiso   1.00
H1878  H     0.84306   0.68709   0.17683   0.00000  Uiso   1.00
H1879  H     0.91750   0.95801   0.75444   0.00000  Uiso   1.00
H1880  H     0.89967   0.99025   0.69897   0.00000  Uiso   1.00
H1881  H     0.86348   0.95809   0.69002   0.00000  Uiso   1.00
H1882  H     0.91076   0.94490   0.68262   0.00000  Uiso   1.00
H1883  H     0.62117   0.53557   0.27791   0.00000  Uiso   1.00
H1884  H     0.66128   0.97384   0.46534   0.00000  Uiso   1.00
H1885  H     0.56647   0.51677   0.23206   0.00000  Uiso   1.00
H1886  H     0.61317   0.50957   0.21755   0.00000  Uiso   1.00
H1887  H     0.58862   0.54900   0.20008   0.00000  Uiso   1.00
H1888  H     0.88058   0.66152   0.84068   0.00000  Uiso   1.00
H1889  H     0.94172   0.64828   0.86393   0.00000  Uiso   1.00
H1890  H     0.95097   0.62452   0.81930   0.00000  Uiso   1.00
H1891  H     0.91780   0.60666   0.85287   0.00000  Uiso   1.00
H1892  H     0.57620   0.84521   0.17100   0.00000  Uiso   1.00
H1893  H     0.62536   0.80807   0.13794   0.00000  Uiso   1.00
H1894  H     0.60497   0.78731   0.18046   0.00000  Uiso   1.00
H1895  H     0.83990   0.52377   0.53396   0.00000  Uiso   1.00
H1896  H     0.64929   0.80934   0.18326   0.00000  Uiso   1.00
H1897  H     0.91491   0.62969   0.66194   0.00000  Uiso   1.00
H1898  H     0.85789   0.66211   0.64626   0.00000  Uiso   1.00
H1899  H     0.89847   0.68719   0.63307   0.00000  Uiso   1.00
H1900  H     0.87394   0.69901   0.67662   0.00000  Uiso   1.00
H1901  H     0.60761   0.85085   0.34469   0.00000  Uiso   1.00
H1902  H     0.56325   0.90211   0.33096   0.00000  Uiso   1.00
H1903  H     0.54536   0.86251   0.35554   0.00000  Uiso   1.00
H1904  H     0.53772   0.86803   0.30425   0.00000  Uiso   1.00
H1905  H     0.79592   0.83611   0.78100   0.00000  Uiso   1.00
H1906  H     0.81219   0.93108   0.96570   0.00000  Uiso   1.00
H1907  H     0.77275   0.81873   0.72189   0.00000  Uiso   1.00
H1908  H     0.79284   0.85776   0.69795   0.00000  Uiso   1.00
H1909  H     0.75229   0.86305   0.72728   0.00000  Uiso   1.00
H1910  H     0.70587   0.66315   0.22496   0.00000  Uiso   1.00
H1911  H     0.70838   0.68106   0.29341   0.00000  Uiso   1.00
H1912  H     0.74713   0.65367   0.27946   0.00000  Uiso   1.00
H1913  H     0.70991   0.63344   0.30608   0.00000  Uiso   1.00
H1914  H     0.58660   0.87046   0.66135   0.00000  Uiso   1.00
H1915  H     0.64200   0.83381   0.64698   0.00000  Uiso   1.00
H1916  H     0.59987   0.81121   0.63470   0.00000  Uiso   1.00
N1917  N     0.65476   0.90075   0.17920   0.00000  Uiso   1.00
N1918  N     0.89459   0.94901   0.26460   0.00000  Uiso   1.00
N1919  N     0.60430   0.84117   0.82165   0.00000  Uiso   1.00
N1920  N     0.89428   0.66079   0.18085   0.00000  Uiso   1.00
N1921  N     0.89399   0.94934   0.74101   0.00000  Uiso   1.00
N1922  N     0.60466   0.55048   0.25951   0.00000  Uiso   1.00
N1923  N     0.90080   0.65346   0.82166   0.00000  Uiso   1.00
N1924  N     0.60347   0.84453   0.17832   0.00000  Uiso   1.00
N1925  N     0.90508   0.65045   0.67924   0.00000  Uiso   1.00
N1926  N     0.59122   0.85273   0.32054   0.00000  Uiso   1.00
N1927  N     0.80029   0.85496   0.75924   0.00000  Uiso   1.00
N1928  N     0.84072   0.60320   0.82044   0.00000  Uiso   1.00
N1929  N     0.69976   0.64472   0.24663   0.00000  Uiso   1.00
N1930  N     0.59549   0.84980   0.67936   0.00000  Uiso   1.00
N1931  N     0.90928   0.64498   0.32139   0.00000  Uiso   1.00
N1932  N     0.69904   0.64426   0.76578   0.00000  Uiso   1.00
N1933  N     0.80104   0.85461   0.23958   0.00000  Uiso   1.00
N1934  N     0.85703   0.80208   0.23302   0.00000  Uiso   1.00
N1935  N     0.64476   0.69906   0.76487   0.00000  Uiso   1.00
N1936  N     0.85467   0.59079   0.32154   0.00000  Uiso   1.00
N1937  N     0.64489   0.91012   0.68067   0.00000  Uiso   1.00
N1938  N     0.64397   0.69935   0.24093   0.00000  Uiso   1.00
N1939  N     0.55031   0.60498   0.25935   0.00000  Uiso   1.00
N1940  N     0.85464   0.80046   0.75940   0.00000  Uiso   1.00
N1941  N     0.65136   0.90291   0.32168   0.00000  Uiso   1.00
N1942  N     0.85368   0.59432   0.67835   0.00000  Uiso   1.00
N1943  N     0.95127   0.79580   0.39666   0.00000  Uiso   1.00
N1944  N     0.54706   0.70232   0.60332   0.00000  Uiso   1.00
N1945  N     0.68790   0.97629   0.39611   0.00000  Uiso   1.00
N1946  N     0.81497   0.51498   0.60343   0.00000  Uiso   1.00
N1947  N     0.54750   0.70286   0.39680   0.00000  Uiso   1.00
N1948  N     0.95341   0.79771   0.60355   0.00000  Uiso   1.00
N1949  N     0.81277   0.52278   0.39584   0.00000  Uiso   1.00
N1950  N     0.94976   0.89472   0.74679   0.00000  Uiso   1.00
N1951  N     0.68494   0.98713   0.60325   0.00000  Uiso   1.00
N1952  N     0.70120   0.54572   0.89666   0.00000  Uiso   1.00
N1953  N     0.79720   0.95246   0.10332   0.00000  Uiso   1.00
N1954  N     0.93790   0.72631   0.89611   0.00000  Uiso   1.00
N1955  N     0.56498   0.76498   0.10342   0.00000  Uiso   1.00
N1956  N     0.79759   0.95295   0.89680   0.00000  Uiso   1.00
N1957  N     0.70332   0.54763   0.10354   0.00000  Uiso   1.00
N1958  N     0.56274   0.77287   0.89584   0.00000  Uiso   1.00
N1959  N     0.93491   0.73730   0.10320   0.00000  Uiso   1.00
N1960  N     0.84496   0.60033   0.17939   0.00000  Uiso   1.00
N1961  N     0.65879   0.89547   0.82151   0.00000  Uiso   1.00
N1962  N     0.94889   0.89429   0.26605   0.00000  Uiso   1.00
N1963  N     0.55129   0.60553   0.73748   0.00000  Uiso   1.00
N1964  N     0.60645   0.55190   0.73507   0.00000  Uiso   1.00
O1965  O     0.75000   0.50000   0.25000   0.00000  Uiso   1.00
O1966  O     0.75000   0.96964   0.66245   0.00000  Uiso   1.00
O1967  O     0.96963   0.75000   0.33755   0.00000  Uiso   1.00
O1968  O     0.53036   0.75000   0.66245   0.00000  Uiso   1.00
O1969  O     0.50000   0.71963   0.83755   0.00000  Uiso   1.00
O1970  O     0.50000   0.78036   0.16245   0.00000  Uiso   1.00
O1971  O     0.78036   0.50000   0.83755   0.00000  Uiso   1.00
O1972  O     0.71963   0.50000   0.16245   0.00000  Uiso   1.00
O1973  O     0.50000   0.78036   0.83755   0.00000  Uiso   1.00
O1974  O     0.50000   0.71964   0.16245   0.00000  Uiso   1.00
O1975  O     0.71963   0.50000   0.83755   0.00000  Uiso   1.00
O1976  O     0.75000   0.50000   0.75000   0.00000  Uiso   1.00
O1977  O     0.78036   0.50000   0.16245   0.00000  Uiso   1.00
O1978  O     0.70724   0.57308   0.27302   0.00000  Uiso   1.00
O1979  O     0.79275   0.92693   0.72698   0.00000  Uiso   1.00
O1980  O     0.92692   0.70725   0.27302   0.00000  Uiso   1.00
O1981  O     0.57307   0.79275   0.72698   0.00000  Uiso   1.00
O1982  O     0.79275   0.92693   0.27302   0.00000  Uiso   1.00
O1983  O     0.70724   0.57308   0.72698   0.00000  Uiso   1.00
O1984  O     0.57307   0.79275   0.27302   0.00000  Uiso   1.00
O1985  O     0.92692   0.70725   0.72698   0.00000  Uiso   1.00
O1986  O     0.70724   0.92692   0.72698   0.00000  Uiso   1.00
O1987  O     0.50000   0.75000   0.25000   0.00000  Uiso   1.00
O1988  O     0.79275   0.57308   0.27302   0.00000  Uiso   1.00
O1989  O     0.92692   0.79276   0.72698   0.00000  Uiso   1.00
O1990  O     0.57307   0.70724   0.27302   0.00000  Uiso   1.00
O1991  O     0.79275   0.57308   0.72698   0.00000  Uiso   1.00
O1992  O     0.70724   0.92692   0.27302   0.00000  Uiso   1.00
O1993  O     0.57307   0.70724   0.72698   0.00000  Uiso   1.00
O1994  O     0.92692   0.79276   0.27302   0.00000  Uiso   1.00
O1995  O     0.95724   0.82308   0.77302   0.00000  Uiso   1.00
O1996  O     0.54275   0.67692   0.22698   0.00000  Uiso   1.00
O1997  O     0.67692   0.95724   0.77302   0.00000  Uiso   1.00
O1998  O     0.50000   0.75000   0.75000   0.00000  Uiso   1.00
O1999  O     0.82307   0.54276   0.22698   0.00000  Uiso   1.00
O2000  O     0.54275   0.67692   0.77302   0.00000  Uiso   1.00
O2001  O     0.95724   0.82308   0.22698   0.00000  Uiso   1.00
O2002  O     0.82307   0.54276   0.77302   0.00000  Uiso   1.00
O2003  O     0.67692   0.95724   0.22698   0.00000  Uiso   1.00
O2004  O     0.95724   0.67693   0.22698   0.00000  Uiso   1.00
O2005  O     0.54275   0.82307   0.77302   0.00000  Uiso   1.00
O2006  O     0.67692   0.54276   0.22698   0.00000  Uiso   1.00
O2007  O     0.82307   0.95725   0.77302   0.00000  Uiso   1.00
O2008  O     0.54275   0.82307   0.22698   0.00000  Uiso   1.00
O2009  O     0.75000   0.96964   0.33755   0.00000  Uiso   1.00
O2010  O     0.95724   0.67693   0.77302   0.00000  Uiso   1.00
O2011  O     0.82307   0.95725   0.22698   0.00000  Uiso   1.00
O2012  O     0.67692   0.54276   0.77302   0.00000  Uiso   1.00
O2013  O     0.75000   0.53037   0.66245   0.00000  Uiso   1.00
O2014  O     0.53036   0.75000   0.33755   0.00000  Uiso   1.00
O2015  O     0.96963   0.75000   0.66245   0.00000  Uiso   1.00
O2016  O     0.75000   0.53037   0.33755   0.00000  Uiso   1.00
Zn2017 Zn    0.70659   0.50000   0.21735   0.00000  Uiso   1.00
Zn2018 Zn    0.54340   0.75000   0.28265   0.00000  Uiso   1.00
Zn2019 Zn    0.75000   0.95660   0.71735   0.00000  Uiso   1.00
Zn2020 Zn    0.75000   0.54341   0.28265   0.00000  Uiso   1.00
Zn2021 Zn    0.54340   0.75000   0.71735   0.00000  Uiso   1.00
Zn2022 Zn    0.95659   0.75000   0.28265   0.00000  Uiso   1.00
Zn2023 Zn    0.75000   0.54341   0.71735   0.00000  Uiso   1.00
Zn2024 Zn    0.75000   0.95660   0.28265   0.00000  Uiso   1.00
Zn2025 Zn    0.79340   0.50000   0.78265   0.00000  Uiso   1.00
Zn2026 Zn    0.50000   0.70660   0.21735   0.00000  Uiso   1.00
Zn2027 Zn    0.50000   0.79340   0.78265   0.00000  Uiso   1.00
Zn2028 Zn    0.79340   0.50000   0.21735   0.00000  Uiso   1.00
Zn2029 Zn    0.70659   0.50000   0.78265   0.00000  Uiso   1.00
Zn2030 Zn    0.50000   0.79340   0.21735   0.00000  Uiso   1.00
Zn2031 Zn    0.50000   0.70660   0.78265   0.00000  Uiso   1.00
Zn2032 Zn    0.95659   0.75000   0.71735   0.00000  Uiso   1.00
loop_
_geom_bond_atom_site_label_1
_geom_bond_atom_site_label_2
_geom_bond_distance
_geom_bond_site_symmetry_2
_ccdc_geom_bond_type
C1     N419    1.428   .     S
C1     C4      1.408   .     A
C1     C587    1.408   .     S
C2     C14     1.407   .     A
C2     N429    1.428   .     S
C2     C1116   1.407   .     S
C3     C163    1.411   .     A
C3     C106    1.405   .     A
C3     C38     1.416   .     A
C4     C34     1.416   .     A
C4     C107    1.404   .     A
C5     C97     1.408   .     A
C5     C109    1.403   .     A
C5     C544    1.417   1_455 S
C6     C110    1.403   .     A
C6     C37     1.418   .     A
C6     C108    1.410   .     A
C7     C111    1.405   .     A
C7     C119    1.413   .     A
C7     C1054   1.417   1_545 S
C8     C35     1.408   .     A
C8     C112    1.403   .     A
C8     C39     1.416   .     A
C9     C46     1.408   .     A
C9     C113    1.404   .     A
C9     C1056   1.417   1_545 S
C10    C41     1.417   .     A
C10    C114    1.404   .     A
C10    C57     1.411   .     A
C11    C115    1.405   .     A
C11    C68     1.411   .     A
C11    C550    1.416   .     S
C12    C174    1.408   .     A
C12    C116    1.404   .     A
C12    C1055   1.416   1_545 S
C13    N430    1.428   .     S
C13    C15     1.410   .     A
C13    C609    1.403   .     S
C14    C117    1.403   .     A
C14    C40     1.417   .     A
C15    C118    1.403   .     A
C15    C549    1.418   .     S
C16    C120    1.405   .     A
C16    C24     1.413   .     A
C16    C42     1.417   .     A
C17    C164    1.411   .     A
C17    C166    1.409   .     A
C17    C136    1.455   .     S
C18    C137    1.456   .     S
C18    C165    1.405   .     A
C18    C162    1.412   .     A
C19    C129    1.454   .     S
C19    C161    1.410   .     A
C19    C168    1.412   .     A
C20    C131    1.454   .     S
C20    C160    1.407   .     A
C20    C167    1.410   .     A
C21    C170    1.410   .     A
C21    C159    1.407   .     A
C21    C132    1.457   .     S
C22    C133    1.455   .     S
C22    C158    1.411   .     A
C22    C169    1.410   .     A
C23    C134    1.452   .     S
C23    C157    1.411   .     A
C23    C172    1.413   .     A
C24    N431    1.424   .     S
C24    C102    1.403   .     A
C25    C171    1.409   .     A
C25    C156    1.406   .     A
C25    C135    1.455   .     S
C26    C155    1.409   .     A
C26    C145    1.451   .     S
C26    C175    1.411   .     A
C27    C154    1.408   .     A
C27    C146    1.454   .     S
C27    C173    1.405   .     A
C28    C153    1.410   .     A
C28    C177    1.407   .     A
C28    C138    1.457   .     S
C29    C151    1.410   .     A
C29    C139    1.455   .     S
C29    C176    1.411   .     A
C30    C150    1.412   .     A
C30    C179    1.410   .     A
C30    C140    1.454   .     S
C31    C178    1.407   .     A
C31    C149    1.410   .     A
C31    C142    1.454   .     S
C32    C181    1.411   .     A
C32    C148    1.409   .     A
C32    C143    1.455   .     S
C33    C147    1.405   .     A
C33    C144    1.456   .     S
C33    C180    1.412   .     A
C34    C36     1.415   .     A
C34    C690    1.416   .     S
C35    N432    1.428   .     S
C35    C1115   1.408   .     S
C36    C183    1.417   .     A
C36    C513    1.417   .     S
C37    C38     1.417   .     A
C37    C1200   1.417   .     S
C38    C1023   1.417   .     S
C39    C1028   1.416   .     S
C39    C40     1.415   1_556 S
C40    C1025   1.417   .     S
C40    C39     1.415   1_554 S
C41    C523    1.418   1_455 S
C41    C42     1.417   1_556 S
C42    C519    1.416   1_455 S
C42    C41     1.417   1_554 S
C43    H297    1.111   .     S
C43    H274    1.111   .     S
C43    N393    1.448   .     S
C43    H285    1.110   .     S
C44    H309    1.109   .     S
C44    H310    1.111   .     S
C44    N404    1.447   .     S
C44    H308    1.111   .     S
C45    H313    1.113   .     S
C45    H312    1.110   .     S
C45    H314    1.109   .     S
C45    N415    1.450   .     S
C46    C100    1.407   .     A
C46    N433    1.428   .     S
C47    H319    1.110   .     S
C47    H317    1.109   .     S
C47    N426    1.450   .     S
C47    H318    1.110   .     S
C48    H322    1.110   .     S
C48    N436    1.450   .     S
C48    H321    1.109   .     S
C48    H323    1.110   .     S
C49    H326    1.113   .     S
C49    N437    1.450   .     S
C49    H328    1.109   .     S
C49    H325    1.110   .     S
C50    H331    1.113   .     S
C50    H332    1.109   .     S
C50    H330    1.110   .     S
C50    N438    1.450   .     S
C51    N439    1.449   .     S
C51    H336    1.112   .     S
C51    H334    1.110   .     S
C51    H335    1.110   .     S
C52    H339    1.107   .     S
C52    H341    1.112   .     S
C52    H340    1.110   .     S
C52    N440    1.445   .     S
C53    H344    1.112   .     S
C53    H345    1.109   .     S
C53    H343    1.111   .     S
C53    N394    1.449   .     S
C54    N395    1.449   .     S
C54    H347    1.112   .     S
C54    H350    1.109   .     S
C54    H348    1.111   .     S
C55    H352    1.104   .     S
C55    N396    1.445   .     S
C55    H353    1.110   .     S
C55    H354    1.111   .     S
C56    H356    1.109   .     S
C56    H357    1.110   .     S
C56    H358    1.111   .     S
C56    N397    1.445   .     S
C57    C101    1.404   .     A
C57    N434    1.428   .     S
C58    N398    1.449   .     S
C58    H362    1.110   .     S
C58    H363    1.112   .     S
C58    H361    1.109   .     S
C59    H366    1.110   .     S
C59    H367    1.109   .     S
C59    H365    1.110   .     S
C59    N399    1.450   .     S
C60    N400    1.445   .     S
C60    H369    1.108   .     S
C60    H370    1.110   .     S
C60    H372    1.112   .     S
C61    H375    1.110   .     S
C61    H374    1.111   .     S
C61    H376    1.111   .     S
C61    N401    1.448   .     S
C62    H378    1.111   .     S
C62    H379    1.109   .     S
C62    N402    1.447   .     S
C62    H380    1.111   .     S
C63    H384    1.113   .     S
C63    H385    1.109   .     S
C63    H383    1.110   .     S
C63    N403    1.450   .     S
C64    N405    1.450   .     S
C64    H388    1.110   .     S
C64    H389    1.110   .     S
C64    H387    1.109   .     S
C65    H187    1.110   .     S
C65    H392    1.110   .     S
C65    N406    1.450   .     S
C65    H391    1.109   .     S
C66    H189    1.110   .     S
C66    H190    1.113   .     S
C66    N407    1.450   .     S
C66    H191    1.109   .     S
C67    H195    1.109   .     S
C67    H194    1.113   .     S
C67    N408    1.450   .     S
C67    H193    1.110   .     S
C68    N435    1.423   .     S
C68    C610    1.403   .     S
C69    H198    1.110   .     S
C69    H200    1.109   .     S
C69    H199    1.109   .     S
C69    N409    1.450   .     S
C70    H204    1.112   .     S
C70    H202    1.107   .     S
C70    N410    1.445   .     S
C70    H203    1.110   .     S
C71    H207    1.112   .     S
C71    N411    1.449   .     S
C71    H209    1.109   .     S
C71    H206    1.111   .     S
C72    H213    1.109   .     S
C72    H211    1.112   .     S
C72    N412    1.449   .     S
C72    H212    1.111   .     S
C73    H215    1.104   .     S
C73    N413    1.445   .     S
C73    H217    1.112   .     S
C73    H216    1.109   .     S
C74    N414    1.445   .     S
C74    H220    1.109   .     S
C74    H221    1.110   .     S
C74    H222    1.111   .     S
C75    H225    1.110   .     S
C75    H224    1.109   .     S
C75    N416    1.449   .     S
C75    H226    1.112   .     S
C76    H228    1.110   .     S
C76    N417    1.450   .     S
C76    H229    1.110   .     S
C76    H231    1.109   .     S
C77    H235    1.112   .     S
C77    N418    1.445   .     S
C77    H233    1.108   .     S
C77    H234    1.110   .     S
C78    H238    1.110   .     S
C78    H239    1.110   .     S
C78    H237    1.111   .     S
C78    N419    1.446   .     S
C79    C130    1.408   .     A
C79    C123    1.460   .     S
C79    C509    1.408   1_455 S
C80    N420    1.449   .     S
C80    H243    1.110   .     S
C80    H242    1.110   .     S
C80    H244    1.110   .     S
C81    H246    1.111   .     S
C81    H248    1.111   .     S
C81    H1263   1.110   1_545 S
C81    N1437   1.447   1_545 S
C82    H253    1.108   .     S
C82    H250    1.111   .     S
C82    H251    1.111   .     S
C82    N1438   1.447   .     S
C83    H256    1.111   .     S
C83    H255    1.110   .     S
C83    H257    1.110   .     S
C83    N423    1.449   .     S
C84    N424    1.446   .     S
C84    H259    1.111   .     S
C84    H261    1.110   .     S
C84    H260    1.111   .     S
C85    H264    1.111   .     S
C85    H266    1.111   .     S
C85    H1281   1.110   .     S
C85    N1441   1.447   .     S
C86    H268    1.111   .     S
C86    H269    1.111   .     S
C86    H270    1.107   .     S
C86    N1443   1.448   1_545 S
C87    H275    1.110   .     S
C87    N428    1.446   .     S
C87    H272    1.111   .     S
C87    H273    1.110   .     S
C88    H277    1.110   .     S
C88    H279    1.110   .     S
C88    H278    1.110   .     S
C88    N429    1.449   .     S
C89    H281    1.111   .     S
C89    N430    1.447   .     S
C89    H283    1.111   .     S
C89    H282    1.110   .     S
C90    C97     1.407   .     A
C90    C124    1.459   .     S
C90    C649    1.407   1_455 S
C91    H287    1.111   .     S
C91    N431    1.447   .     S
C91    H288    1.108   .     S
C91    H286    1.111   .     S
C92    H292    1.110   .     S
C92    H290    1.110   .     S
C92    N432    1.449   .     S
C92    H291    1.111   .     S
C93    H295    1.111   .     S
C93    N433    1.446   .     S
C93    H294    1.111   .     S
C93    H298    1.110   .     S
C94    H302    1.111   .     S
C94    H300    1.111   .     S
C94    N434    1.447   .     S
C94    H301    1.110   .     S
C95    H305    1.111   .     S
C95    N435    1.447   .     S
C95    H306    1.107   .     S
C95    H304    1.111   .     S
C96    C121    1.454   .     S
C96    C108    1.403   .     A
C96    C1168   1.404   .     S
C97    N420    1.428   .     S
C98    C122    1.462   .     S
C98    C119    1.403   .     A
C98    C1179   1.403   1_545 S
C99    C174    1.408   .     A
C99    C1051   1.408   1_545 S
C99    C1143   1.460   1_545 S
C100   C1018   1.407   1_545 S
C100   C1144   1.459   1_545 S
C101   C125    1.454   .     S
C101   C521    1.403   1_455 S
C102   C126    1.462   .     S
C102   C576    1.403   1_455 S
C103   H185    1.080   .     S
C103   C109    1.384   .     A
C103   C182    1.403   .     A
C104   C183    1.404   .     A
C104   C107    1.385   .     A
C104   H296    1.081   .     S
C105   C184    1.404   .     A
C105   H316    1.081   .     S
C105   C111    1.388   .     A
C106   H327    1.080   .     S
C106   C110    1.386   .     A
C107   H338    1.081   .     S
C108   N421    1.428   .     S
C109   H349    1.080   .     S
C110   H360    1.081   .     S
C111   H371    1.081   .     S
C112   H382    1.080   .     S
C112   C117    1.384   1_556 S
C113   H186    1.081   .     S
C113   C116    1.385   1_554 S
C114   H197    1.081   .     S
C114   C120    1.388   1_556 S
C115   H208    1.080   .     S
C115   C118    1.386   1_554 S
C116   H219    1.081   .     S
C116   C113    1.385   1_556 S
C117   H230    1.080   .     S
C117   C112    1.384   1_554 S
C118   H241    1.081   .     S
C118   C115    1.386   1_556 S
C119   N422    1.424   .     S
C120   H252    1.081   .     S
C120   C114    1.388   1_554 S
C121   O485    1.276   .     A
C121   O1508   1.277   .     S
C122   O489    1.279   .     A
C122   O1458   1.279   1_545 S
C123   O490    1.276   .     A
C123   O951    1.278   1_455 S
C124   O444    1.275   .     A
C124   O999    1.279   1_455 S
C125   O445    1.276   .     A
C125   O449    1.277   .     A
C126   O446    1.279   .     A
C126   O450    1.279   .     S
C127   O1467   1.278   .     A
C127   O1463   1.276   .     A
C127   C1115   1.460   .     S
C128   O1469   1.275   .     A
C128   O1464   1.279   .     A
C128   C1116   1.459   .     S
C129   O454    1.276   .     A
C129   O482    1.285   .     A
C130   N423    1.428   .     S
C130   C182    1.408   .     A
C131   O483    1.284   .     A
C131   O455    1.277   .     A
C132   O480    1.283   .     A
C132   O456    1.277   .     A
C133   O481    1.283   .     A
C133   O457    1.276   .     A
C134   O487    1.281   .     A
C134   O458    1.275   .     A
C135   O459    1.277   .     A
C135   O488    1.281   .     A
C136   O460    1.282   .     A
C136   O484    1.276   .     A
C137   O461    1.282   .     A
C137   O486    1.277   .     A
C138   O462    1.283   .     A
C138   O473    1.277   .     A
C139   O464    1.283   .     A
C139   O475    1.276   .     A
C140   O465    1.284   .     A
C140   O471    1.276   .     A
C141   C183    1.408   .     A
C141   N424    1.428   .     S
C141   C598    1.407   .     S
C142   O472    1.277   .     A
C142   O466    1.284   .     A
C143   O478    1.283   .     A
C143   O467    1.276   .     A
C144   O479    1.282   .     A
C144   O468    1.277   .     A
C145   O476    1.277   .     A
C145   O469    1.279   .     A
C146   O477    1.277   .     A
C146   O470    1.281   .     A
C147   C164    1.396   .     A
C147   N393    1.426   .     S
C148   C162    1.407   .     A
C148   N404    1.427   .     S
C149   N415    1.427   .     S
C149   C161    1.400   .     A
C150   C160    1.404   .     A
C150   N426    1.428   .     S
C151   N436    1.427   .     S
C151   C159    1.404   .     A
C152   N425    1.428   .     S
C152   C184    1.411   .     A
C152   C1112   1.404   1_545 S
C153   N437    1.427   .     S
C153   C158    1.402   .     A
C154   N438    1.427   .     S
C154   C157    1.402   .     A
C155   C156    1.401   .     A
C155   N439    1.428   .     S
C156   N440    1.424   .     S
C157   N394    1.427   .     S
C158   N395    1.427   .     S
C159   N396    1.425   .     S
C160   N397    1.427   .     S
C161   N398    1.427   .     S
C162   N399    1.427   .     S
C163   N427    1.424   .     S
C163   C1114   1.403   .     S
C164   N400    1.423   .     S
C165   N401    1.426   .     S
C165   C181    1.396   .     A
C166   C180    1.407   .     A
C166   N402    1.428   .     S
C167   C179    1.400   .     A
C167   N403    1.427   .     S
C168   N405    1.428   .     S
C168   C178    1.404   .     A
C169   N406    1.427   .     S
C169   C177    1.404   .     A
C170   C176    1.402   .     A
C170   N407    1.427   .     S
C171   C175    1.402   .     A
C171   N408    1.427   .     S
C172   N409    1.428   .     S
C172   C173    1.401   .     A
C173   N410    1.425   .     S
C174   N428    1.428   .     S
C175   N411    1.427   .     S
C176   N412    1.427   .     S
C177   N413    1.425   .     S
C178   N414    1.427   .     S
C179   N416    1.427   .     S
C180   N417    1.427   .     S
C181   N418    1.423   .     S
C182   C542    1.416   1_455 S
C184   C1053   1.417   1_545 S
H188   N407    1.032   .     S
H192   N408    1.032   .     S
H196   N409    1.031   .     S
H201   N410    1.029   .     S
H205   N411    1.032   .     S
H210   N412    1.031   .     S
H214   N413    1.029   .     S
H218   N414    1.028   .     S
H223   N416    1.032   .     S
H227   N417    1.031   .     S
H232   N418    1.030   .     S
H236   N419    1.031   .     S
H240   N420    1.031   .     S
H245   N421    1.031   .     S
H247   C1097   1.110   .     S
H249   N422    1.030   .     S
H254   N423    1.031   .     S
H258   N424    1.031   .     S
H262   N425    1.030   .     S
H263   N393    1.031   .     S
H265   C1101   1.110   1_545 S
H267   N427    1.030   .     S
H271   N428    1.031   .     S
H276   N429    1.031   .     S
H280   N430    1.031   .     S
H284   N431    1.030   .     S
H289   N432    1.031   .     S
H293   N433    1.031   .     S
H299   N434    1.031   .     S
H303   N435    1.030   .     S
H307   N404    1.029   .     S
H311   N415    1.032   .     S
H315   N426    1.031   .     S
H320   N436    1.031   .     S
H324   N437    1.032   .     S
H329   N438    1.032   .     S
H333   N439    1.031   .     S
H337   N440    1.030   .     S
H342   N394    1.032   .     S
H346   N395    1.031   .     S
H351   N396    1.029   .     S
H355   N397    1.028   .     S
H359   N398    1.032   .     S
H364   N399    1.031   .     S
H368   N400    1.030   .     S
H373   N401    1.031   .     S
H377   N402    1.029   .     S
H381   N403    1.032   .     S
H386   N405    1.031   .     S
H390   N406    1.031   .     S
N421   C1097   1.447   .     S
N422   C1098   1.447   1_545 S
N425   C1101   1.447   1_545 S
N427   C1102   1.448   .     S
O441   Zn1516  1.947   1_545 S
O441   Zn493   1.947   .     S
O441   Zn496   1.950   .     S
O441   Zn504   1.945   .     S
O442   Zn495   1.951   .     S
O442   C1138   1.279   .     S
O443   Zn498   1.952   .     S
O443   C631    1.278   .     S
O444   Zn497   1.952   .     S
O445   Zn507   1.952   .     S
O446   Zn506   1.952   .     S
O447   Zn501   1.951   .     S
O447   C1143   1.276   1_545 A
O448   C1144   1.279   1_545 A
O448   Zn493   1.951   .     S
O449   Zn503   1.951   .     S
O450   Zn502   1.951   .     S
O451   C1143   1.278   1_545 A
O451   Zn505   1.952   .     S
O452   Zn499   1.947   .     S
O452   Zn1511  1.950   1_545 S
O452   Zn501   1.947   .     S
O452   Zn505   1.945   .     S
O453   C1144   1.275   1_545 A
O453   Zn504   1.952   .     S
O454   Zn496   1.932   .     S
O455   Zn495   1.932   .     S
O456   Zn498   1.937   .     S
O457   Zn497   1.937   .     S
O458   Zn500   1.932   .     S
O459   Zn499   1.932   .     S
O460   Zn494   1.936   .     S
O461   Zn508   1.936   .     S
O462   Zn495   1.935   .     S
O463   Zn506   1.947   .     S
O463   Zn494   1.947   .     S
O463   Zn1006  1.945   1_455 S
O463   Zn502   1.950   .     S
O464   Zn496   1.935   .     S
O465   Zn508   1.934   .     S
O466   Zn494   1.934   .     S
O467   Zn499   1.936   .     S
O468   Zn500   1.936   .     S
O469   Zn497   1.933   .     S
O470   Zn498   1.933   .     S
O471   Zn1011  1.932   .     S
O472   Zn502   1.932   .     S
O473   Zn1521  1.937   .     S
O474   Zn497   1.945   .     S
O474   Zn503   1.950   .     S
O474   Zn507   1.947   .     S
O474   Zn1016  1.947   1_455 S
O475   Zn504   1.937   .     S
O476   Zn507   1.932   .     S
O477   Zn1014  1.932   .     S
O478   Zn501   1.936   .     S
O479   Zn1509  1.936   .     S
O480   Zn1010  1.935   .     S
O481   Zn503   1.935   .     S
O482   Zn493   1.934   .     S
O483   Zn1517  1.934   .     S
O484   Zn506   1.936   .     S
O485   Zn500   1.952   .     S
O486   Zn1015  1.936   .     S
O487   Zn1520  1.933   .     S
O488   Zn505   1.933   .     S
O489   Zn499   1.952   .     S
O490   Zn494   1.951   .     S
O491   Zn508   1.951   .     S
O491   C632    1.279   .     S
O492   Zn496   1.951   .     S
O492   C1137   1.277   1_545 S
Zn493  O1495   1.936   1_545 S
Zn495  O1468   1.950   .     S
Zn498  O971    1.945   .     S
Zn500  O1457   1.947   .     S
Zn501  O1499   1.934   1_545 S
Zn502  O988    1.935   1_455 S
Zn503  O979    1.932   1_455 S
Zn504  O1503   1.933   1_545 S
Zn505  O1489   1.937   1_545 S
Zn506  O985    1.932   1_455 S
Zn507  O994    1.936   1_455 S
Zn508  O982    1.947   .     S
C509   N927    1.428   .     S
C509   C512    1.408   .     A
C509   C79     1.408   1_655 S
C510   C522    1.407   .     A
C510   N937    1.428   .     S
C510   C1624   1.407   .     S
C511   C671    1.411   .     A
C511   C614    1.405   .     A
C511   C546    1.416   .     A
C512   C542    1.416   .     A
C512   C615    1.404   .     A
C513   C605    1.408   .     A
C513   C617    1.403   .     A
C514   C618    1.403   .     A
C514   C545    1.418   .     A
C514   C616    1.410   .     A
C515   C619    1.405   .     A
C515   C627    1.413   .     A
C515   C1562   1.417   1_545 S
C516   C543    1.408   .     A
C516   C620    1.403   .     A
C516   C547    1.416   .     A
C517   C554    1.408   .     A
C517   C621    1.404   .     A
C517   C1564   1.417   1_545 S
C518   C549    1.417   .     A
C518   C622    1.404   .     A
C518   C565    1.411   .     A
C519   C623    1.405   .     A
C519   C576    1.411   .     A
C519   C42     1.416   1_655 S
C520   C682    1.408   .     A
C520   C624    1.404   .     A
C520   C1563   1.416   1_545 S
C521   N938    1.428   .     S
C521   C523    1.410   .     A
C521   C101    1.403   1_655 S
C522   C625    1.403   .     A
C522   C548    1.417   .     A
C523   C626    1.403   .     A
C523   C41     1.418   1_655 S
C524   C628    1.405   .     A
C524   C532    1.413   .     A
C524   C550    1.417   .     A
C525   C672    1.411   .     A
C525   C674    1.409   .     A
C525   C644    1.455   .     S
C526   C645    1.456   .     S
C526   C673    1.405   .     A
C526   C670    1.412   .     A
C527   C637    1.454   .     S
C527   C669    1.410   .     A
C527   C676    1.412   .     A
C528   C639    1.454   .     S
C528   C668    1.407   .     A
C528   C675    1.410   .     A
C529   C678    1.410   .     A
C529   C667    1.407   .     A
C529   C640    1.457   .     S
C530   C641    1.455   .     S
C530   C666    1.411   .     A
C530   C677    1.410   .     A
C531   C642    1.452   .     S
C531   C665    1.411   .     A
C531   C680    1.413   .     A
C532   N939    1.424   .     S
C532   C610    1.403   .     A
C533   C679    1.409   .     A
C533   C664    1.406   .     A
C533   C643    1.455   .     S
C534   C663    1.409   .     A
C534   C653    1.451   .     S
C534   C683    1.411   .     A
C535   C662    1.408   .     A
C535   C654    1.454   .     S
C535   C681    1.405   .     A
C536   C661    1.410   .     A
C536   C685    1.407   .     A
C536   C646    1.457   .     S
C537   C659    1.410   .     A
C537   C647    1.455   .     S
C537   C684    1.411   .     A
C538   C658    1.412   .     A
C538   C687    1.410   .     A
C538   C648    1.454   .     S
C539   C686    1.407   .     A
C539   C657    1.410   .     A
C539   C650    1.454   .     S
C540   C689    1.411   .     A
C540   C656    1.409   .     A
C540   C651    1.455   .     S
C541   C655    1.405   .     A
C541   C652    1.456   .     S
C541   C688    1.412   .     A
C542   C544    1.415   .     A
C542   C182    1.416   1_655 S
C543   N940    1.428   .     S
C543   C1623   1.408   .     S
C544   C691    1.417   .     A
C544   C5      1.417   1_655 S
C545   C546    1.417   .     A
C545   C1708   1.417   .     S
C546   C1531   1.417   .     S
C547   C1536   1.416   .     S
C547   C548    1.415   1_556 S
C548   C1533   1.417   .     S
C548   C547    1.415   1_554 S
C549   C550    1.417   1_556 S
C550   C549    1.417   1_554 S
C551   H805    1.111   .     S
C551   H782    1.111   .     S
C551   N901    1.448   .     S
C551   H793    1.110   .     S
C552   H817    1.109   .     S
C552   H818    1.111   .     S
C552   N912    1.447   .     S
C552   H816    1.111   .     S
C553   H821    1.113   .     S
C553   H820    1.110   .     S
C553   H822    1.109   .     S
C553   N923    1.450   .     S
C554   C608    1.407   .     A
C554   N941    1.428   .     S
C555   H827    1.110   .     S
C555   H825    1.109   .     S
C555   N934    1.450   .     S
C555   H826    1.110   .     S
C556   H830    1.110   .     S
C556   N944    1.450   .     S
C556   H829    1.109   .     S
C556   H831    1.110   .     S
C557   H834    1.113   .     S
C557   N945    1.450   .     S
C557   H836    1.109   .     S
C557   H833    1.110   .     S
C558   H839    1.113   .     S
C558   H840    1.109   .     S
C558   H838    1.110   .     S
C558   N946    1.450   .     S
C559   N947    1.449   .     S
C559   H844    1.112   .     S
C559   H842    1.110   .     S
C559   H843    1.110   .     S
C560   H847    1.107   .     S
C560   H849    1.112   .     S
C560   H848    1.110   .     S
C560   N948    1.445   .     S
C561   H852    1.112   .     S
C561   H853    1.109   .     S
C561   H851    1.111   .     S
C561   N902    1.449   .     S
C562   N903    1.449   .     S
C562   H855    1.112   .     S
C562   H858    1.109   .     S
C562   H856    1.111   .     S
C563   H860    1.104   .     S
C563   N904    1.445   .     S
C563   H861    1.110   .     S
C563   H862    1.111   .     S
C564   H864    1.109   .     S
C564   H865    1.110   .     S
C564   H866    1.111   .     S
C564   N905    1.445   .     S
C565   C609    1.404   .     A
C565   N942    1.428   .     S
C566   N906    1.449   .     S
C566   H870    1.110   .     S
C566   H871    1.112   .     S
C566   H869    1.109   .     S
C567   H874    1.110   .     S
C567   H875    1.109   .     S
C567   H873    1.110   .     S
C567   N907    1.450   .     S
C568   N908    1.445   .     S
C568   H877    1.108   .     S
C568   H878    1.110   .     S
C568   H880    1.112   .     S
C569   H883    1.110   .     S
C569   H882    1.111   .     S
C569   H884    1.111   .     S
C569   N909    1.448   .     S
C570   H886    1.111   .     S
C570   H887    1.109   .     S
C570   N910    1.447   .     S
C570   H888    1.111   .     S
C571   H892    1.113   .     S
C571   H893    1.109   .     S
C571   H891    1.110   .     S
C571   N911    1.450   .     S
C572   N913    1.450   .     S
C572   H896    1.110   .     S
C572   H897    1.110   .     S
C572   H895    1.109   .     S
C573   H695    1.110   .     S
C573   H900    1.110   .     S
C573   N914    1.450   .     S
C573   H899    1.109   .     S
C574   H697    1.110   .     S
C574   H698    1.113   .     S
C574   N915    1.450   .     S
C574   H699    1.109   .     S
C575   H703    1.109   .     S
C575   H702    1.113   .     S
C575   N916    1.450   .     S
C575   H701    1.110   .     S
C576   N943    1.423   .     S
C576   C102    1.403   1_655 S
C577   H706    1.110   .     S
C577   H708    1.109   .     S
C577   H707    1.109   .     S
C577   N917    1.450   .     S
C578   H712    1.112   .     S
C578   H710    1.107   .     S
C578   N918    1.445   .     S
C578   H711    1.110   .     S
C579   H715    1.112   .     S
C579   N919    1.449   .     S
C579   H717    1.109   .     S
C579   H714    1.111   .     S
C580   H721    1.109   .     S
C580   H719    1.112   .     S
C580   N920    1.449   .     S
C580   H720    1.111   .     S
C581   H723    1.104   .     S
C581   N921    1.445   .     S
C581   H725    1.112   .     S
C581   H724    1.109   .     S
C582   N922    1.445   .     S
C582   H728    1.109   .     S
C582   H729    1.110   .     S
C582   H730    1.111   .     S
C583   H733    1.110   .     S
C583   H732    1.109   .     S
C583   N924    1.449   .     S
C583   H734    1.112   .     S
C584   H736    1.110   .     S
C584   N925    1.450   .     S
C584   H737    1.110   .     S
C584   H739    1.109   .     S
C585   H743    1.112   .     S
C585   N926    1.445   .     S
C585   H741    1.108   .     S
C585   H742    1.110   .     S
C586   H746    1.110   .     S
C586   H747    1.110   .     S
C586   H745    1.111   .     S
C586   N927    1.446   .     S
C587   C638    1.408   .     A
C587   C631    1.460   .     S
C588   N928    1.449   .     S
C588   H751    1.110   .     S
C588   H750    1.110   .     S
C588   H752    1.110   .     S
C589   H754    1.111   .     S
C589   H756    1.111   .     S
C589   H1771   1.110   1_545 S
C589   N1945   1.447   1_545 S
C590   H761    1.108   .     S
C590   H758    1.111   .     S
C590   H759    1.111   .     S
C590   N1946   1.447   .     S
C591   H764    1.111   .     S
C591   H763    1.110   .     S
C591   H765    1.110   .     S
C591   N931    1.449   .     S
C592   N932    1.446   .     S
C592   H767    1.111   .     S
C592   H769    1.110   .     S
C592   H768    1.111   .     S
C593   H772    1.111   .     S
C593   H774    1.111   .     S
C593   H1789   1.110   .     S
C593   N1949   1.447   .     S
C594   H776    1.111   .     S
C594   H777    1.111   .     S
C594   H778    1.107   .     S
C594   N1951   1.448   1_545 S
C595   H783    1.110   .     S
C595   N936    1.446   .     S
C595   H780    1.111   .     S
C595   H781    1.110   .     S
C596   H785    1.110   .     S
C596   H787    1.110   .     S
C596   H786    1.110   .     S
C596   N937    1.449   .     S
C597   H789    1.111   .     S
C597   N938    1.447   .     S
C597   H791    1.111   .     S
C597   H790    1.110   .     S
C598   C605    1.407   .     A
C598   C632    1.459   .     S
C599   H795    1.111   .     S
C599   N939    1.447   .     S
C599   H796    1.108   .     S
C599   H794    1.111   .     S
C600   H800    1.110   .     S
C600   H798    1.110   .     S
C600   N940    1.449   .     S
C600   H799    1.111   .     S
C601   H803    1.111   .     S
C601   N941    1.446   .     S
C601   H802    1.111   .     S
C601   H806    1.110   .     S
C602   H810    1.111   .     S
C602   H808    1.111   .     S
C602   N942    1.447   .     S
C602   H809    1.110   .     S
C603   H813    1.111   .     S
C603   N943    1.447   .     S
C603   H814    1.107   .     S
C603   H812    1.111   .     S
C604   C629    1.454   .     S
C604   C616    1.403   .     A
C604   C1676   1.404   .     S
C605   N928    1.428   .     S
C606   C630    1.462   .     S
C606   C627    1.403   .     A
C606   C1687   1.403   1_545 S
C607   C682    1.408   .     A
C607   C1559   1.408   1_545 S
C607   C1651   1.460   1_545 S
C608   C1526   1.407   1_545 S
C608   C1652   1.459   1_545 S
C609   C633    1.454   .     S
C610   C634    1.462   .     S
C611   H693    1.080   .     S
C611   C617    1.384   .     A
C611   C690    1.403   .     A
C612   C691    1.404   .     A
C612   C615    1.385   .     A
C612   H804    1.081   .     S
C613   C692    1.404   .     A
C613   H824    1.081   .     S
C613   C619    1.388   .     A
C614   H835    1.080   .     S
C614   C618    1.386   .     A
C615   H846    1.081   .     S
C616   N929    1.428   .     S
C617   H857    1.080   .     S
C618   H868    1.081   .     S
C619   H879    1.081   .     S
C620   H890    1.080   .     S
C620   C625    1.384   1_556 S
C621   H694    1.081   .     S
C621   C624    1.385   1_554 S
C622   H705    1.081   .     S
C622   C628    1.388   1_556 S
C623   H716    1.080   .     S
C623   C626    1.386   1_554 S
C624   H727    1.081   .     S
C624   C621    1.385   1_556 S
C625   H738    1.080   .     S
C625   C620    1.384   1_554 S
C626   H749    1.081   .     S
C626   C623    1.386   1_556 S
C627   N930    1.424   .     S
C628   H760    1.081   .     S
C628   C622    1.388   1_554 S
C629   O993    1.276   .     A
C629   O2016   1.277   .     S
C630   O997    1.279   .     A
C630   O1966   1.279   1_545 S
C631   O998    1.276   .     A
C632   O952    1.275   .     A
C633   O953    1.276   .     A
C633   O957    1.277   .     A
C634   O954    1.279   .     A
C634   O958    1.279   .     S
C635   O1975   1.278   .     A
C635   O1971   1.276   .     A
C635   C1623   1.460   .     S
C636   O1977   1.275   .     A
C636   O1972   1.279   .     A
C636   C1624   1.459   .     S
C637   O962    1.276   .     A
C637   O990    1.285   .     A
C638   N931    1.428   .     S
C638   C690    1.408   .     A
C639   O991    1.284   .     A
C639   O963    1.277   .     A
C640   O988    1.283   .     A
C640   O964    1.277   .     A
C641   O989    1.283   .     A
C641   O965    1.276   .     A
C642   O995    1.281   .     A
C642   O966    1.275   .     A
C643   O967    1.277   .     A
C643   O996    1.281   .     A
C644   O968    1.282   .     A
C644   O992    1.276   .     A
C645   O969    1.282   .     A
C645   O994    1.277   .     A
C646   O970    1.283   .     A
C646   O981    1.277   .     A
C647   O972    1.283   .     A
C647   O983    1.276   .     A
C648   O973    1.284   .     A
C648   O979    1.276   .     A
C649   C691    1.408   .     A
C649   N932    1.428   .     S
C649   C90     1.407   1_655 S
C650   O980    1.277   .     A
C650   O974    1.284   .     A
C651   O986    1.283   .     A
C651   O975    1.276   .     A
C652   O987    1.282   .     A
C652   O976    1.277   .     A
C653   O984    1.277   .     A
C653   O977    1.279   .     A
C654   O985    1.277   .     A
C654   O978    1.281   .     A
C655   C672    1.396   .     A
C655   N901    1.426   .     S
C656   C670    1.407   .     A
C656   N912    1.427   .     S
C657   N923    1.427   .     S
C657   C669    1.400   .     A
C658   C668    1.404   .     A
C658   N934    1.428   .     S
C659   N944    1.427   .     S
C659   C667    1.404   .     A
C660   N933    1.428   .     S
C660   C692    1.411   .     A
C660   C1620   1.404   1_545 S
C661   N945    1.427   .     S
C661   C666    1.402   .     A
C662   N946    1.427   .     S
C662   C665    1.402   .     A
C663   C664    1.401   .     A
C663   N947    1.428   .     S
C664   N948    1.424   .     S
C665   N902    1.427   .     S
C666   N903    1.427   .     S
C667   N904    1.425   .     S
C668   N905    1.427   .     S
C669   N906    1.427   .     S
C670   N907    1.427   .     S
C671   N935    1.424   .     S
C671   C1622   1.403   .     S
C672   N908    1.423   .     S
C673   N909    1.426   .     S
C673   C689    1.396   .     A
C674   C688    1.407   .     A
C674   N910    1.428   .     S
C675   C687    1.400   .     A
C675   N911    1.427   .     S
C676   N913    1.428   .     S
C676   C686    1.404   .     A
C677   N914    1.427   .     S
C677   C685    1.404   .     A
C678   C684    1.402   .     A
C678   N915    1.427   .     S
C679   C683    1.402   .     A
C679   N916    1.427   .     S
C680   N917    1.428   .     S
C680   C681    1.401   .     A
C681   N918    1.425   .     S
C682   N936    1.428   .     S
C683   N919    1.427   .     S
C684   N920    1.427   .     S
C685   N921    1.425   .     S
C686   N922    1.427   .     S
C687   N924    1.427   .     S
C688   N925    1.427   .     S
C689   N926    1.423   .     S
C692   C1561   1.417   1_545 S
H696   N915    1.032   .     S
H700   N916    1.032   .     S
H704   N917    1.031   .     S
H709   N918    1.029   .     S
H713   N919    1.032   .     S
H718   N920    1.031   .     S
H722   N921    1.029   .     S
H726   N922    1.028   .     S
H731   N924    1.032   .     S
H735   N925    1.031   .     S
H740   N926    1.030   .     S
H744   N927    1.031   .     S
H748   N928    1.031   .     S
H753   N929    1.031   .     S
H755   C1605   1.110   .     S
H757   N930    1.030   .     S
H762   N931    1.031   .     S
H766   N932    1.031   .     S
H770   N933    1.030   .     S
H771   N901    1.031   .     S
H773   C1609   1.110   1_545 S
H775   N935    1.030   .     S
H779   N936    1.031   .     S
H784   N937    1.031   .     S
H788   N938    1.031   .     S
H792   N939    1.030   .     S
H797   N940    1.031   .     S
H801   N941    1.031   .     S
H807   N942    1.031   .     S
H811   N943    1.030   .     S
H815   N912    1.029   .     S
H819   N923    1.032   .     S
H823   N934    1.031   .     S
H828   N944    1.031   .     S
H832   N945    1.032   .     S
H837   N946    1.032   .     S
H841   N947    1.031   .     S
H845   N948    1.030   .     S
H850   N902    1.032   .     S
H854   N903    1.031   .     S
H859   N904    1.029   .     S
H863   N905    1.028   .     S
H867   N906    1.032   .     S
H872   N907    1.031   .     S
H876   N908    1.030   .     S
H881   N909    1.031   .     S
H885   N910    1.029   .     S
H889   N911    1.032   .     S
H894   N913    1.031   .     S
H898   N914    1.031   .     S
N929   C1605   1.447   .     S
N930   C1606   1.447   1_545 S
N933   C1609   1.447   1_545 S
N935   C1610   1.448   .     S
O949   Zn2024  1.947   1_545 S
O949   Zn1001  1.947   .     S
O949   Zn1004  1.950   .     S
O949   Zn1012  1.945   .     S
O950   Zn1003  1.951   .     S
O950   C1646   1.279   .     S
O951   Zn1006  1.952   .     S
O951   C123    1.278   1_655 S
O952   Zn1005  1.952   .     S
O953   Zn1015  1.952   .     S
O954   Zn1014  1.952   .     S
O955   Zn1009  1.951   .     S
O955   C1651   1.276   1_545 A
O956   C1652   1.279   1_545 A
O956   Zn1001  1.951   .     S
O957   Zn1011  1.951   .     S
O958   Zn1010  1.951   .     S
O959   C1651   1.278   1_545 A
O959   Zn1013  1.952   .     S
O960   Zn1007  1.947   .     S
O960   Zn2019  1.950   1_545 S
O960   Zn1009  1.947   .     S
O960   Zn1013  1.945   .     S
O961   C1652   1.275   1_545 A
O961   Zn1012  1.952   .     S
O962   Zn1004  1.932   .     S
O963   Zn1003  1.932   .     S
O964   Zn1006  1.937   .     S
O965   Zn1005  1.937   .     S
O966   Zn1008  1.932   .     S
O967   Zn1007  1.932   .     S
O968   Zn1002  1.936   .     S
O969   Zn1016  1.936   .     S
O970   Zn1003  1.935   .     S
O971   Zn1014  1.947   .     S
O971   Zn1002  1.947   .     S
O971   Zn1010  1.950   .     S
O972   Zn1004  1.935   .     S
O973   Zn1016  1.934   .     S
O974   Zn1002  1.934   .     S
O975   Zn1007  1.936   .     S
O976   Zn1008  1.936   .     S
O977   Zn1005  1.933   .     S
O978   Zn1006  1.933   .     S
O979   Zn503   1.932   1_655 S
O980   Zn1010  1.932   .     S
O981   Zn2029  1.937   .     S
O982   Zn1005  1.945   .     S
O982   Zn1011  1.950   .     S
O982   Zn1015  1.947   .     S
O983   Zn1012  1.937   .     S
O984   Zn1015  1.932   .     S
O985   Zn506   1.932   1_655 S
O986   Zn1009  1.936   .     S
O987   Zn2017  1.936   .     S
O988   Zn502   1.935   1_655 S
O989   Zn1011  1.935   .     S
O990   Zn1001  1.934   .     S
O991   Zn2025  1.934   .     S
O992   Zn1014  1.936   .     S
O993   Zn1008  1.952   .     S
O994   Zn507   1.936   1_655 S
O995   Zn2028  1.933   .     S
O996   Zn1013  1.933   .     S
O997   Zn1007  1.952   .     S
O998   Zn1002  1.951   .     S
O999   Zn1016  1.951   .     S
O999   C124    1.279   1_655 S
O1000  Zn1004  1.951   .     S
O1000  C1645   1.277   1_545 S
Zn1001 O2003   1.936   1_545 S
Zn1003 O1976   1.950   .     S
Zn1006 O463    1.945   1_655 S
Zn1008 O1965   1.947   .     S
Zn1009 O2007   1.934   1_545 S
Zn1012 O2011   1.933   1_545 S
Zn1013 O1997   1.937   1_545 S
Zn1016 O474    1.947   1_655 S
C1017  N1435   1.428   .     S
C1017  C1020   1.408   .     A
C1017  C1603   1.408   .     S
C1018  C1030   1.407   .     A
C1018  N1445   1.428   .     S
C1018  C100    1.407   1_565 S
C1019  C1179   1.411   .     A
C1019  C1122   1.405   .     A
C1019  C1054   1.416   .     A
C1020  C1050   1.416   .     A
C1020  C1123   1.404   .     A
C1021  C1113   1.408   .     A
C1021  C1125   1.403   .     A
C1021  C1560   1.417   1_455 S
C1022  C1126   1.403   .     A
C1022  C1053   1.418   .     A
C1022  C1124   1.410   .     A
C1023  C1127   1.405   .     A
C1023  C1135   1.413   .     A
C1024  C1051   1.408   .     A
C1024  C1128   1.403   .     A
C1024  C1055   1.416   .     A
C1025  C1062   1.408   .     A
C1025  C1129   1.404   .     A
C1026  C1057   1.417   .     A
C1026  C1130   1.404   .     A
C1026  C1073   1.411   .     A
C1027  C1131   1.405   .     A
C1027  C1084   1.411   .     A
C1027  C1566   1.416   .     S
C1028  C1190   1.408   .     A
C1028  C1132   1.404   .     A
C1029  N1446   1.428   .     S
C1029  C1031   1.410   .     A
C1029  C1625   1.403   .     S
C1030  C1133   1.403   .     A
C1030  C1056   1.417   .     A
C1031  C1134   1.403   .     A
C1031  C1565   1.418   .     S
C1032  C1136   1.405   .     A
C1032  C1040   1.413   .     A
C1032  C1058   1.417   .     A
C1033  C1180   1.411   .     A
C1033  C1182   1.409   .     A
C1033  C1152   1.455   .     S
C1034  C1153   1.456   .     S
C1034  C1181   1.405   .     A
C1034  C1178   1.412   .     A
C1035  C1145   1.454   .     S
C1035  C1177   1.410   .     A
C1035  C1184   1.412   .     A
C1036  C1147   1.454   .     S
C1036  C1176   1.407   .     A
C1036  C1183   1.410   .     A
C1037  C1186   1.410   .     A
C1037  C1175   1.407   .     A
C1037  C1148   1.457   .     S
C1038  C1149   1.455   .     S
C1038  C1174   1.411   .     A
C1038  C1185   1.410   .     A
C1039  C1150   1.452   .     S
C1039  C1173   1.411   .     A
C1039  C1188   1.413   .     A
C1040  N1447   1.424   .     S
C1040  C1118   1.403   .     A
C1041  C1187   1.409   .     A
C1041  C1172   1.406   .     A
C1041  C1151   1.455   .     S
C1042  C1171   1.409   .     A
C1042  C1161   1.451   .     S
C1042  C1191   1.411   .     A
C1043  C1170   1.408   .     A
C1043  C1162   1.454   .     S
C1043  C1189   1.405   .     A
C1044  C1169   1.410   .     A
C1044  C1193   1.407   .     A
C1044  C1154   1.457   .     S
C1045  C1167   1.410   .     A
C1045  C1155   1.455   .     S
C1045  C1192   1.411   .     A
C1046  C1166   1.412   .     A
C1046  C1195   1.410   .     A
C1046  C1156   1.454   .     S
C1047  C1194   1.407   .     A
C1047  C1165   1.410   .     A
C1047  C1158   1.454   .     S
C1048  C1197   1.411   .     A
C1048  C1164   1.409   .     A
C1048  C1159   1.455   .     S
C1049  C1163   1.405   .     A
C1049  C1160   1.456   .     S
C1049  C1196   1.412   .     A
C1050  C1052   1.415   .     A
C1050  C1706   1.416   .     S
C1051  N1448   1.428   .     S
C1051  C99     1.408   1_565 S
C1052  C1199   1.417   .     A
C1052  C1529   1.417   .     S
C1053  C1054   1.417   .     A
C1053  C184    1.417   1_565 S
C1054  C7      1.417   1_565 S
C1055  C12     1.416   1_565 S
C1055  C1056   1.415   1_556 S
C1056  C9      1.417   1_565 S
C1056  C1055   1.415   1_554 S
C1057  C1539   1.418   1_455 S
C1057  C1058   1.417   1_556 S
C1058  C1535   1.416   1_455 S
C1058  C1057   1.417   1_554 S
C1059  H1313   1.111   .     S
C1059  H1290   1.111   .     S
C1059  N1409   1.448   .     S
C1059  H1301   1.110   .     S
C1060  H1325   1.109   .     S
C1060  H1326   1.111   .     S
C1060  N1420   1.447   .     S
C1060  H1324   1.111   .     S
C1061  H1329   1.113   .     S
C1061  H1328   1.110   .     S
C1061  H1330   1.109   .     S
C1061  N1431   1.450   .     S
C1062  C1116   1.407   .     A
C1062  N1449   1.428   .     S
C1063  H1335   1.110   .     S
C1063  H1333   1.109   .     S
C1063  N1442   1.450   .     S
C1063  H1334   1.110   .     S
C1064  H1338   1.110   .     S
C1064  N1452   1.450   .     S
C1064  H1337   1.109   .     S
C1064  H1339   1.110   .     S
C1065  H1342   1.113   .     S
C1065  N1453   1.450   .     S
C1065  H1344   1.109   .     S
C1065  H1341   1.110   .     S
C1066  H1347   1.113   .     S
C1066  H1348   1.109   .     S
C1066  H1346   1.110   .     S
C1066  N1454   1.450   .     S
C1067  N1455   1.449   .     S
C1067  H1352   1.112   .     S
C1067  H1350   1.110   .     S
C1067  H1351   1.110   .     S
C1068  H1355   1.107   .     S
C1068  H1357   1.112   .     S
C1068  H1356   1.110   .     S
C1068  N1456   1.445   .     S
C1069  H1360   1.112   .     S
C1069  H1361   1.109   .     S
C1069  H1359   1.111   .     S
C1069  N1410   1.449   .     S
C1070  N1411   1.449   .     S
C1070  H1363   1.112   .     S
C1070  H1366   1.109   .     S
C1070  H1364   1.111   .     S
C1071  H1368   1.104   .     S
C1071  N1412   1.445   .     S
C1071  H1369   1.110   .     S
C1071  H1370   1.111   .     S
C1072  H1372   1.109   .     S
C1072  H1373   1.110   .     S
C1072  H1374   1.111   .     S
C1072  N1413   1.445   .     S
C1073  C1117   1.404   .     A
C1073  N1450   1.428   .     S
C1074  N1414   1.449   .     S
C1074  H1378   1.110   .     S
C1074  H1379   1.112   .     S
C1074  H1377   1.109   .     S
C1075  H1382   1.110   .     S
C1075  H1383   1.109   .     S
C1075  H1381   1.110   .     S
C1075  N1415   1.450   .     S
C1076  N1416   1.445   .     S
C1076  H1385   1.108   .     S
C1076  H1386   1.110   .     S
C1076  H1388   1.112   .     S
C1077  H1391   1.110   .     S
C1077  H1390   1.111   .     S
C1077  H1392   1.111   .     S
C1077  N1417   1.448   .     S
C1078  H1394   1.111   .     S
C1078  H1395   1.109   .     S
C1078  N1418   1.447   .     S
C1078  H1396   1.111   .     S
C1079  H1400   1.113   .     S
C1079  H1401   1.109   .     S
C1079  H1399   1.110   .     S
C1079  N1419   1.450   .     S
C1080  N1421   1.450   .     S
C1080  H1404   1.110   .     S
C1080  H1405   1.110   .     S
C1080  H1403   1.109   .     S
C1081  H1203   1.110   .     S
C1081  H1408   1.110   .     S
C1081  N1422   1.450   .     S
C1081  H1407   1.109   .     S
C1082  H1205   1.110   .     S
C1082  H1206   1.113   .     S
C1082  N1423   1.450   .     S
C1082  H1207   1.109   .     S
C1083  H1211   1.109   .     S
C1083  H1210   1.113   .     S
C1083  N1424   1.450   .     S
C1083  H1209   1.110   .     S
C1084  N1451   1.423   .     S
C1084  C1626   1.403   .     S
C1085  H1214   1.110   .     S
C1085  H1216   1.109   .     S
C1085  H1215   1.109   .     S
C1085  N1425   1.450   .     S
C1086  H1220   1.112   .     S
C1086  H1218   1.107   .     S
C1086  N1426   1.445   .     S
C1086  H1219   1.110   .     S
C1087  H1223   1.112   .     S
C1087  N1427   1.449   .     S
C1087  H1225   1.109   .     S
C1087  H1222   1.111   .     S
C1088  H1229   1.109   .     S
C1088  H1227   1.112   .     S
C1088  N1428   1.449   .     S
C1088  H1228   1.111   .     S
C1089  H1231   1.104   .     S
C1089  N1429   1.445   .     S
C1089  H1233   1.112   .     S
C1089  H1232   1.109   .     S
C1090  N1430   1.445   .     S
C1090  H1236   1.109   .     S
C1090  H1237   1.110   .     S
C1090  H1238   1.111   .     S
C1091  H1241   1.110   .     S
C1091  H1240   1.109   .     S
C1091  N1432   1.449   .     S
C1091  H1242   1.112   .     S
C1092  H1244   1.110   .     S
C1092  N1433   1.450   .     S
C1092  H1245   1.110   .     S
C1092  H1247   1.109   .     S
C1093  H1251   1.112   .     S
C1093  N1434   1.445   .     S
C1093  H1249   1.108   .     S
C1093  H1250   1.110   .     S
C1094  H1254   1.110   .     S
C1094  H1255   1.110   .     S
C1094  H1253   1.111   .     S
C1094  N1435   1.446   .     S
C1095  C1146   1.408   .     A
C1095  C1139   1.460   .     S
C1095  C1525   1.408   1_455 S
C1096  N1436   1.449   .     S
C1096  H1259   1.110   .     S
C1096  H1258   1.110   .     S
C1096  H1260   1.110   .     S
C1097  H1262   1.111   .     S
C1097  H1264   1.111   .     S
C1098  H1269   1.108   .     S
C1098  H1266   1.111   .     S
C1098  H1267   1.111   .     S
C1098  N422    1.447   1_565 S
C1099  H1272   1.111   .     S
C1099  H1271   1.110   .     S
C1099  H1273   1.110   .     S
C1099  N1439   1.449   .     S
C1100  N1440   1.446   .     S
C1100  H1275   1.111   .     S
C1100  H1277   1.110   .     S
C1100  H1276   1.111   .     S
C1101  H1280   1.111   .     S
C1101  H1282   1.111   .     S
C1101  H265    1.110   1_565 S
C1101  N425    1.447   1_565 S
C1102  H1284   1.111   .     S
C1102  H1285   1.111   .     S
C1102  H1286   1.107   .     S
C1103  H1291   1.110   .     S
C1103  N1444   1.446   .     S
C1103  H1288   1.111   .     S
C1103  H1289   1.110   .     S
C1104  H1293   1.110   .     S
C1104  H1295   1.110   .     S
C1104  H1294   1.110   .     S
C1104  N1445   1.449   .     S
C1105  H1297   1.111   .     S
C1105  N1446   1.447   .     S
C1105  H1299   1.111   .     S
C1105  H1298   1.110   .     S
C1106  C1113   1.407   .     A
C1106  C1140   1.459   .     S
C1106  C1665   1.407   1_455 S
C1107  H1303   1.111   .     S
C1107  N1447   1.447   .     S
C1107  H1304   1.108   .     S
C1107  H1302   1.111   .     S
C1108  H1308   1.110   .     S
C1108  H1306   1.110   .     S
C1108  N1448   1.449   .     S
C1108  H1307   1.111   .     S
C1109  H1311   1.111   .     S
C1109  N1449   1.446   .     S
C1109  H1310   1.111   .     S
C1109  H1314   1.110   .     S
C1110  H1318   1.111   .     S
C1110  H1316   1.111   .     S
C1110  N1450   1.447   .     S
C1110  H1317   1.110   .     S
C1111  H1321   1.111   .     S
C1111  N1451   1.447   .     S
C1111  H1322   1.107   .     S
C1111  H1320   1.111   .     S
C1112  C1137   1.454   .     S
C1112  C1124   1.403   .     A
C1112  C152    1.404   1_565 S
C1113  N1436   1.428   .     S
C1114  C1138   1.462   .     S
C1114  C1135   1.403   .     A
C1115  C1190   1.408   .     A
C1117  C1141   1.454   .     S
C1117  C1537   1.403   1_455 S
C1118  C1142   1.462   .     S
C1118  C1592   1.403   1_455 S
C1119  H1201   1.080   .     S
C1119  C1125   1.384   .     A
C1119  C1198   1.403   .     A
C1120  C1199   1.404   .     A
C1120  C1123   1.385   .     A
C1120  H1312   1.081   .     S
C1121  C1200   1.404   .     A
C1121  H1332   1.081   .     S
C1121  C1127   1.388   .     A
C1122  H1343   1.080   .     S
C1122  C1126   1.386   .     A
C1123  H1354   1.081   .     S
C1124  N1437   1.428   .     S
C1125  H1365   1.080   .     S
C1126  H1376   1.081   .     S
C1127  H1387   1.081   .     S
C1128  H1398   1.080   .     S
C1128  C1133   1.384   1_556 S
C1129  H1202   1.081   .     S
C1129  C1132   1.385   1_554 S
C1130  H1213   1.081   .     S
C1130  C1136   1.388   1_556 S
C1131  H1224   1.080   .     S
C1131  C1134   1.386   1_554 S
C1132  H1235   1.081   .     S
C1132  C1129   1.385   1_556 S
C1133  H1246   1.080   .     S
C1133  C1128   1.384   1_554 S
C1134  H1257   1.081   .     S
C1134  C1131   1.386   1_556 S
C1135  N1438   1.424   .     S
C1136  H1268   1.081   .     S
C1136  C1130   1.388   1_554 S
C1137  O1501   1.276   .     A
C1137  O492    1.277   1_565 S
C1138  O1505   1.279   .     A
C1139  O1506   1.276   .     A
C1139  O1967   1.278   1_455 S
C1140  O1460   1.275   .     A
C1140  O2015   1.279   1_455 S
C1141  O1461   1.276   .     A
C1141  O1465   1.277   .     A
C1142  O1462   1.279   .     A
C1142  O1466   1.279   .     S
C1143  O451    1.278   1_565 A
C1143  O447    1.276   1_565 A
C1143  C99     1.460   1_565 S
C1144  O453    1.275   1_565 A
C1144  O448    1.279   1_565 A
C1144  C100    1.459   1_565 S
C1145  O1470   1.276   .     A
C1145  O1498   1.285   .     A
C1146  N1439   1.428   .     S
C1146  C1198   1.408   .     A
C1147  O1499   1.284   .     A
C1147  O1471   1.277   .     A
C1148  O1496   1.283   .     A
C1148  O1472   1.277   .     A
C1149  O1497   1.283   .     A
C1149  O1473   1.276   .     A
C1150  O1503   1.281   .     A
C1150  O1474   1.275   .     A
C1151  O1475   1.277   .     A
C1151  O1504   1.281   .     A
C1152  O1476   1.282   .     A
C1152  O1500   1.276   .     A
C1153  O1477   1.282   .     A
C1153  O1502   1.277   .     A
C1154  O1478   1.283   .     A
C1154  O1489   1.277   .     A
C1155  O1480   1.283   .     A
C1155  O1491   1.276   .     A
C1156  O1481   1.284   .     A
C1156  O1487   1.276   .     A
C1157  C1199   1.408   .     A
C1157  N1440   1.428   .     S
C1157  C1614   1.407   .     S
C1158  O1488   1.277   .     A
C1158  O1482   1.284   .     A
C1159  O1494   1.283   .     A
C1159  O1483   1.276   .     A
C1160  O1495   1.282   .     A
C1160  O1484   1.277   .     A
C1161  O1492   1.277   .     A
C1161  O1485   1.279   .     A
C1162  O1493   1.277   .     A
C1162  O1486   1.281   .     A
C1163  C1180   1.396   .     A
C1163  N1409   1.426   .     S
C1164  C1178   1.407   .     A
C1164  N1420   1.427   .     S
C1165  N1431   1.427   .     S
C1165  C1177   1.400   .     A
C1166  C1176   1.404   .     A
C1166  N1442   1.428   .     S
C1167  N1452   1.427   .     S
C1167  C1175   1.404   .     A
C1168  N1441   1.428   .     S
C1168  C1200   1.411   .     A
C1169  N1453   1.427   .     S
C1169  C1174   1.402   .     A
C1170  N1454   1.427   .     S
C1170  C1173   1.402   .     A
C1171  C1172   1.401   .     A
C1171  N1455   1.428   .     S
C1172  N1456   1.424   .     S
C1173  N1410   1.427   .     S
C1174  N1411   1.427   .     S
C1175  N1412   1.425   .     S
C1176  N1413   1.427   .     S
C1177  N1414   1.427   .     S
C1178  N1415   1.427   .     S
C1179  N1443   1.424   .     S
C1179  C98     1.403   1_565 S
C1180  N1416   1.423   .     S
C1181  N1417   1.426   .     S
C1181  C1197   1.396   .     A
C1182  C1196   1.407   .     A
C1182  N1418   1.428   .     S
C1183  C1195   1.400   .     A
C1183  N1419   1.427   .     S
C1184  N1421   1.428   .     S
C1184  C1194   1.404   .     A
C1185  N1422   1.427   .     S
C1185  C1193   1.404   .     A
C1186  C1192   1.402   .     A
C1186  N1423   1.427   .     S
C1187  C1191   1.402   .     A
C1187  N1424   1.427   .     S
C1188  N1425   1.428   .     S
C1188  C1189   1.401   .     A
C1189  N1426   1.425   .     S
C1190  N1444   1.428   .     S
C1191  N1427   1.427   .     S
C1192  N1428   1.427   .     S
C1193  N1429   1.425   .     S
C1194  N1430   1.427   .     S
C1195  N1432   1.427   .     S
C1196  N1433   1.427   .     S
C1197  N1434   1.423   .     S
C1198  C1558   1.416   1_455 S
H1204  N1423   1.032   .     S
H1208  N1424   1.032   .     S
H1212  N1425   1.031   .     S
H1217  N1426   1.029   .     S
H1221  N1427   1.032   .     S
H1226  N1428   1.031   .     S
H1230  N1429   1.029   .     S
H1234  N1430   1.028   .     S
H1239  N1432   1.032   .     S
H1243  N1433   1.031   .     S
H1248  N1434   1.030   .     S
H1252  N1435   1.031   .     S
H1256  N1436   1.031   .     S
H1261  N1437   1.031   .     S
H1263  C81     1.110   1_565 S
H1265  N1438   1.030   .     S
H1270  N1439   1.031   .     S
H1274  N1440   1.031   .     S
H1278  N1441   1.030   .     S
H1279  N1409   1.031   .     S
H1283  N1443   1.030   .     S
H1287  N1444   1.031   .     S
H1292  N1445   1.031   .     S
H1296  N1446   1.031   .     S
H1300  N1447   1.030   .     S
H1305  N1448   1.031   .     S
H1309  N1449   1.031   .     S
H1315  N1450   1.031   .     S
H1319  N1451   1.030   .     S
H1323  N1420   1.029   .     S
H1327  N1431   1.032   .     S
H1331  N1442   1.031   .     S
H1336  N1452   1.031   .     S
H1340  N1453   1.032   .     S
H1345  N1454   1.032   .     S
H1349  N1455   1.031   .     S
H1353  N1456   1.030   .     S
H1358  N1410   1.032   .     S
H1362  N1411   1.031   .     S
H1367  N1412   1.029   .     S
H1371  N1413   1.028   .     S
H1375  N1414   1.032   .     S
H1380  N1415   1.031   .     S
H1384  N1416   1.030   .     S
H1389  N1417   1.031   .     S
H1393  N1418   1.029   .     S
H1397  N1419   1.032   .     S
H1402  N1421   1.031   .     S
H1406  N1422   1.031   .     S
N1437  C81     1.447   1_565 S
N1443  C86     1.448   1_565 S
O1457  Zn1509  1.947   .     S
O1457  Zn1512  1.950   .     S
O1457  Zn1520  1.945   .     S
O1458  Zn1511  1.951   .     S
O1458  C122    1.279   1_565 S
O1459  Zn1514  1.952   .     S
O1459  C1647   1.278   .     S
O1460  Zn1513  1.952   .     S
O1461  Zn1523  1.952   .     S
O1462  Zn1522  1.952   .     S
O1463  Zn1517  1.951   .     S
O1464  Zn1509  1.951   .     S
O1465  Zn1519  1.951   .     S
O1466  Zn1518  1.951   .     S
O1467  Zn1521  1.952   .     S
O1468  Zn1515  1.947   .     S
O1468  Zn1517  1.947   .     S
O1468  Zn1521  1.945   .     S
O1469  Zn1520  1.952   .     S
O1470  Zn1512  1.932   .     S
O1471  Zn1511  1.932   .     S
O1472  Zn1514  1.937   .     S
O1473  Zn1513  1.937   .     S
O1474  Zn1516  1.932   .     S
O1475  Zn1515  1.932   .     S
O1476  Zn1510  1.936   .     S
O1477  Zn1524  1.936   .     S
O1478  Zn1511  1.935   .     S
O1479  Zn1522  1.947   .     S
O1479  Zn1510  1.947   .     S
O1479  Zn2022  1.945   1_455 S
O1479  Zn1518  1.950   .     S
O1480  Zn1512  1.935   .     S
O1481  Zn1524  1.934   .     S
O1482  Zn1510  1.934   .     S
O1483  Zn1515  1.936   .     S
O1484  Zn1516  1.936   .     S
O1485  Zn1513  1.933   .     S
O1486  Zn1514  1.933   .     S
O1487  Zn2027  1.932   .     S
O1488  Zn1518  1.932   .     S
O1489  Zn505   1.937   1_565 S
O1490  Zn1513  1.945   .     S
O1490  Zn1519  1.950   .     S
O1490  Zn1523  1.947   .     S
O1490  Zn2032  1.947   1_455 S
O1491  Zn1520  1.937   .     S
O1492  Zn1523  1.932   .     S
O1493  Zn2030  1.932   .     S
O1494  Zn1517  1.936   .     S
O1495  Zn493   1.936   1_565 S
O1496  Zn2026  1.935   .     S
O1497  Zn1519  1.935   .     S
O1498  Zn1509  1.934   .     S
O1499  Zn501   1.934   1_565 S
O1500  Zn1522  1.936   .     S
O1501  Zn1516  1.952   .     S
O1502  Zn2031  1.936   .     S
O1503  Zn504   1.933   1_565 S
O1504  Zn1521  1.933   .     S
O1505  Zn1515  1.952   .     S
O1506  Zn1510  1.951   .     S
O1507  Zn1524  1.951   .     S
O1507  C1648   1.279   .     S
O1508  Zn1512  1.951   .     S
Zn1511 O452    1.950   1_565 S
Zn1514 O1987   1.945   .     S
Zn1516 O441    1.947   1_565 S
Zn1518 O2004   1.935   1_455 S
Zn1519 O1995   1.932   1_455 S
Zn1522 O2001   1.932   1_455 S
Zn1523 O2010   1.936   1_455 S
Zn1524 O1998   1.947   .     S
C1525  N1943   1.428   .     S
C1525  C1528   1.408   .     A
C1525  C1095   1.408   1_655 S
C1526  C1538   1.407   .     A
C1526  N1953   1.428   .     S
C1526  C608    1.407   1_565 S
C1527  C1687   1.411   .     A
C1527  C1630   1.405   .     A
C1527  C1562   1.416   .     A
C1528  C1558   1.416   .     A
C1528  C1631   1.404   .     A
C1529  C1621   1.408   .     A
C1529  C1633   1.403   .     A
C1530  C1634   1.403   .     A
C1530  C1561   1.418   .     A
C1530  C1632   1.410   .     A
C1531  C1635   1.405   .     A
C1531  C1643   1.413   .     A
C1532  C1559   1.408   .     A
C1532  C1636   1.403   .     A
C1532  C1563   1.416   .     A
C1533  C1570   1.408   .     A
C1533  C1637   1.404   .     A
C1534  C1565   1.417   .     A
C1534  C1638   1.404   .     A
C1534  C1581   1.411   .     A
C1535  C1639   1.405   .     A
C1535  C1592   1.411   .     A
C1535  C1058   1.416   1_655 S
C1536  C1698   1.408   .     A
C1536  C1640   1.404   .     A
C1537  N1954   1.428   .     S
C1537  C1539   1.410   .     A
C1537  C1117   1.403   1_655 S
C1538  C1641   1.403   .     A
C1538  C1564   1.417   .     A
C1539  C1642   1.403   .     A
C1539  C1057   1.418   1_655 S
C1540  C1644   1.405   .     A
C1540  C1548   1.413   .     A
C1540  C1566   1.417   .     A
C1541  C1688   1.411   .     A
C1541  C1690   1.409   .     A
C1541  C1660   1.455   .     S
C1542  C1661   1.456   .     S
C1542  C1689   1.405   .     A
C1542  C1686   1.412   .     A
C1543  C1653   1.454   .     S
C1543  C1685   1.410   .     A
C1543  C1692   1.412   .     A
C1544  C1655   1.454   .     S
C1544  C1684   1.407   .     A
C1544  C1691   1.410   .     A
C1545  C1694   1.410   .     A
C1545  C1683   1.407   .     A
C1545  C1656   1.457   .     S
C1546  C1657   1.455   .     S
C1546  C1682   1.411   .     A
C1546  C1693   1.410   .     A
C1547  C1658   1.452   .     S
C1547  C1681   1.411   .     A
C1547  C1696   1.413   .     A
C1548  N1955   1.424   .     S
C1548  C1626   1.403   .     A
C1549  C1695   1.409   .     A
C1549  C1680   1.406   .     A
C1549  C1659   1.455   .     S
C1550  C1679   1.409   .     A
C1550  C1669   1.451   .     S
C1550  C1699   1.411   .     A
C1551  C1678   1.408   .     A
C1551  C1670   1.454   .     S
C1551  C1697   1.405   .     A
C1552  C1677   1.410   .     A
C1552  C1701   1.407   .     A
C1552  C1662   1.457   .     S
C1553  C1675   1.410   .     A
C1553  C1663   1.455   .     S
C1553  C1700   1.411   .     A
C1554  C1674   1.412   .     A
C1554  C1703   1.410   .     A
C1554  C1664   1.454   .     S
C1555  C1702   1.407   .     A
C1555  C1673   1.410   .     A
C1555  C1666   1.454   .     S
C1556  C1705   1.411   .     A
C1556  C1672   1.409   .     A
C1556  C1667   1.455   .     S
C1557  C1671   1.405   .     A
C1557  C1668   1.456   .     S
C1557  C1704   1.412   .     A
C1558  C1560   1.415   .     A
C1558  C1198   1.416   1_655 S
C1559  N1956   1.428   .     S
C1559  C607    1.408   1_565 S
C1560  C1707   1.417   .     A
C1560  C1021   1.417   1_655 S
C1561  C1562   1.417   .     A
C1561  C692    1.417   1_565 S
C1562  C515    1.417   1_565 S
C1563  C520    1.416   1_565 S
C1563  C1564   1.415   1_556 S
C1564  C517    1.417   1_565 S
C1564  C1563   1.415   1_554 S
C1565  C1566   1.417   1_556 S
C1566  C1565   1.417   1_554 S
C1567  H1821   1.111   .     S
C1567  H1798   1.111   .     S
C1567  N1917   1.448   .     S
C1567  H1809   1.110   .     S
C1568  H1833   1.109   .     S
C1568  H1834   1.111   .     S
C1568  N1928   1.447   .     S
C1568  H1832   1.111   .     S
C1569  H1837   1.113   .     S
C1569  H1836   1.110   .     S
C1569  H1838   1.109   .     S
C1569  N1939   1.450   .     S
C1570  C1624   1.407   .     A
C1570  N1957   1.428   .     S
C1571  H1843   1.110   .     S
C1571  H1841   1.109   .     S
C1571  N1950   1.450   .     S
C1571  H1842   1.110   .     S
C1572  H1846   1.110   .     S
C1572  N1960   1.450   .     S
C1572  H1845   1.109   .     S
C1572  H1847   1.110   .     S
C1573  H1850   1.113   .     S
C1573  N1961   1.450   .     S
C1573  H1852   1.109   .     S
C1573  H1849   1.110   .     S
C1574  H1855   1.113   .     S
C1574  H1856   1.109   .     S
C1574  H1854   1.110   .     S
C1574  N1962   1.450   .     S
C1575  N1963   1.449   .     S
C1575  H1860   1.112   .     S
C1575  H1858   1.110   .     S
C1575  H1859   1.110   .     S
C1576  H1863   1.107   .     S
C1576  H1865   1.112   .     S
C1576  H1864   1.110   .     S
C1576  N1964   1.445   .     S
C1577  H1868   1.112   .     S
C1577  H1869   1.109   .     S
C1577  H1867   1.111   .     S
C1577  N1918   1.449   .     S
C1578  N1919   1.449   .     S
C1578  H1871   1.112   .     S
C1578  H1874   1.109   .     S
C1578  H1872   1.111   .     S
C1579  H1876   1.104   .     S
C1579  N1920   1.445   .     S
C1579  H1877   1.110   .     S
C1579  H1878   1.111   .     S
C1580  H1880   1.109   .     S
C1580  H1881   1.110   .     S
C1580  H1882   1.111   .     S
C1580  N1921   1.445   .     S
C1581  C1625   1.404   .     A
C1581  N1958   1.428   .     S
C1582  N1922   1.449   .     S
C1582  H1886   1.110   .     S
C1582  H1887   1.112   .     S
C1582  H1885   1.109   .     S
C1583  H1890   1.110   .     S
C1583  H1891   1.109   .     S
C1583  H1889   1.110   .     S
C1583  N1923   1.450   .     S
C1584  N1924   1.445   .     S
C1584  H1893   1.108   .     S
C1584  H1894   1.110   .     S
C1584  H1896   1.112   .     S
C1585  H1899   1.110   .     S
C1585  H1898   1.111   .     S
C1585  H1900   1.111   .     S
C1585  N1925   1.448   .     S
C1586  H1902   1.111   .     S
C1586  H1903   1.109   .     S
C1586  N1926   1.447   .     S
C1586  H1904   1.111   .     S
C1587  H1908   1.113   .     S
C1587  H1909   1.109   .     S
C1587  H1907   1.110   .     S
C1587  N1927   1.450   .     S
C1588  N1929   1.450   .     S
C1588  H1912   1.110   .     S
C1588  H1913   1.110   .     S
C1588  H1911   1.109   .     S
C1589  H1711   1.110   .     S
C1589  H1916   1.110   .     S
C1589  N1930   1.450   .     S
C1589  H1915   1.109   .     S
C1590  H1713   1.110   .     S
C1590  H1714   1.113   .     S
C1590  N1931   1.450   .     S
C1590  H1715   1.109   .     S
C1591  H1719   1.109   .     S
C1591  H1718   1.113   .     S
C1591  N1932   1.450   .     S
C1591  H1717   1.110   .     S
C1592  N1959   1.423   .     S
C1592  C1118   1.403   1_655 S
C1593  H1722   1.110   .     S
C1593  H1724   1.109   .     S
C1593  H1723   1.109   .     S
C1593  N1933   1.450   .     S
C1594  H1728   1.112   .     S
C1594  H1726   1.107   .     S
C1594  N1934   1.445   .     S
C1594  H1727   1.110   .     S
C1595  H1731   1.112   .     S
C1595  N1935   1.449   .     S
C1595  H1733   1.109   .     S
C1595  H1730   1.111   .     S
C1596  H1737   1.109   .     S
C1596  H1735   1.112   .     S
C1596  N1936   1.449   .     S
C1596  H1736   1.111   .     S
C1597  H1739   1.104   .     S
C1597  N1937   1.445   .     S
C1597  H1741   1.112   .     S
C1597  H1740   1.109   .     S
C1598  N1938   1.445   .     S
C1598  H1744   1.109   .     S
C1598  H1745   1.110   .     S
C1598  H1746   1.111   .     S
C1599  H1749   1.110   .     S
C1599  H1748   1.109   .     S
C1599  N1940   1.449   .     S
C1599  H1750   1.112   .     S
C1600  H1752   1.110   .     S
C1600  N1941   1.450   .     S
C1600  H1753   1.110   .     S
C1600  H1755   1.109   .     S
C1601  H1759   1.112   .     S
C1601  N1942   1.445   .     S
C1601  H1757   1.108   .     S
C1601  H1758   1.110   .     S
C1602  H1762   1.110   .     S
C1602  H1763   1.110   .     S
C1602  H1761   1.111   .     S
C1602  N1943   1.446   .     S
C1603  C1654   1.408   .     A
C1603  C1647   1.460   .     S
C1604  N1944   1.449   .     S
C1604  H1767   1.110   .     S
C1604  H1766   1.110   .     S
C1604  H1768   1.110   .     S
C1605  H1770   1.111   .     S
C1605  H1772   1.111   .     S
C1606  H1777   1.108   .     S
C1606  H1774   1.111   .     S
C1606  H1775   1.111   .     S
C1606  N930    1.447   1_565 S
C1607  H1780   1.111   .     S
C1607  H1779   1.110   .     S
C1607  H1781   1.110   .     S
C1607  N1947   1.449   .     S
C1608  N1948   1.446   .     S
C1608  H1783   1.111   .     S
C1608  H1785   1.110   .     S
C1608  H1784   1.111   .     S
C1609  H1788   1.111   .     S
C1609  H1790   1.111   .     S
C1609  H773    1.110   1_565 S
C1609  N933    1.447   1_565 S
C1610  H1792   1.111   .     S
C1610  H1793   1.111   .     S
C1610  H1794   1.107   .     S
C1611  H1799   1.110   .     S
C1611  N1952   1.446   .     S
C1611  H1796   1.111   .     S
C1611  H1797   1.110   .     S
C1612  H1801   1.110   .     S
C1612  H1803   1.110   .     S
C1612  H1802   1.110   .     S
C1612  N1953   1.449   .     S
C1613  H1805   1.111   .     S
C1613  N1954   1.447   .     S
C1613  H1807   1.111   .     S
C1613  H1806   1.110   .     S
C1614  C1621   1.407   .     A
C1614  C1648   1.459   .     S
C1615  H1811   1.111   .     S
C1615  N1955   1.447   .     S
C1615  H1812   1.108   .     S
C1615  H1810   1.111   .     S
C1616  H1816   1.110   .     S
C1616  H1814   1.110   .     S
C1616  N1956   1.449   .     S
C1616  H1815   1.111   .     S
C1617  H1819   1.111   .     S
C1617  N1957   1.446   .     S
C1617  H1818   1.111   .     S
C1617  H1822   1.110   .     S
C1618  H1826   1.111   .     S
C1618  H1824   1.111   .     S
C1618  N1958   1.447   .     S
C1618  H1825   1.110   .     S
C1619  H1829   1.111   .     S
C1619  N1959   1.447   .     S
C1619  H1830   1.107   .     S
C1619  H1828   1.111   .     S
C1620  C1645   1.454   .     S
C1620  C1632   1.403   .     A
C1620  C660    1.404   1_565 S
C1621  N1944   1.428   .     S
C1622  C1646   1.462   .     S
C1622  C1643   1.403   .     A
C1623  C1698   1.408   .     A
C1625  C1649   1.454   .     S
C1626  C1650   1.462   .     S
C1627  H1709   1.080   .     S
C1627  C1633   1.384   .     A
C1627  C1706   1.403   .     A
C1628  C1707   1.404   .     A
C1628  C1631   1.385   .     A
C1628  H1820   1.081   .     S
C1629  C1708   1.404   .     A
C1629  H1840   1.081   .     S
C1629  C1635   1.388   .     A
C1630  H1851   1.080   .     S
C1630  C1634   1.386   .     A
C1631  H1862   1.081   .     S
C1632  N1945   1.428   .     S
C1633  H1873   1.080   .     S
C1634  H1884   1.081   .     S
C1635  H1895   1.081   .     S
C1636  H1906   1.080   .     S
C1636  C1641   1.384   1_556 S
C1637  H1710   1.081   .     S
C1637  C1640   1.385   1_554 S
C1638  H1721   1.081   .     S
C1638  C1644   1.388   1_556 S
C1639  H1732   1.080   .     S
C1639  C1642   1.386   1_554 S
C1640  H1743   1.081   .     S
C1640  C1637   1.385   1_556 S
C1641  H1754   1.080   .     S
C1641  C1636   1.384   1_554 S
C1642  H1765   1.081   .     S
C1642  C1639   1.386   1_556 S
C1643  N1946   1.424   .     S
C1644  H1776   1.081   .     S
C1644  C1638   1.388   1_554 S
C1645  O2009   1.276   .     A
C1645  O1000   1.277   1_565 S
C1646  O2013   1.279   .     A
C1647  O2014   1.276   .     A
C1648  O1968   1.275   .     A
C1649  O1969   1.276   .     A
C1649  O1973   1.277   .     A
C1650  O1970   1.279   .     A
C1650  O1974   1.279   .     S
C1651  O959    1.278   1_565 A
C1651  O955    1.276   1_565 A
C1651  C607    1.460   1_565 S
C1652  O961    1.275   1_565 A
C1652  O956    1.279   1_565 A
C1652  C608    1.459   1_565 S
C1653  O1978   1.276   .     A
C1653  O2006   1.285   .     A
C1654  N1947   1.428   .     S
C1654  C1706   1.408   .     A
C1655  O2007   1.284   .     A
C1655  O1979   1.277   .     A
C1656  O2004   1.283   .     A
C1656  O1980   1.277   .     A
C1657  O2005   1.283   .     A
C1657  O1981   1.276   .     A
C1658  O2011   1.281   .     A
C1658  O1982   1.275   .     A
C1659  O1983   1.277   .     A
C1659  O2012   1.281   .     A
C1660  O1984   1.282   .     A
C1660  O2008   1.276   .     A
C1661  O1985   1.282   .     A
C1661  O2010   1.277   .     A
C1662  O1986   1.283   .     A
C1662  O1997   1.277   .     A
C1663  O1988   1.283   .     A
C1663  O1999   1.276   .     A
C1664  O1989   1.284   .     A
C1664  O1995   1.276   .     A
C1665  C1707   1.408   .     A
C1665  N1948   1.428   .     S
C1665  C1106   1.407   1_655 S
C1666  O1996   1.277   .     A
C1666  O1990   1.284   .     A
C1667  O2002   1.283   .     A
C1667  O1991   1.276   .     A
C1668  O2003   1.282   .     A
C1668  O1992   1.277   .     A
C1669  O2000   1.277   .     A
C1669  O1993   1.279   .     A
C1670  O2001   1.277   .     A
C1670  O1994   1.281   .     A
C1671  C1688   1.396   .     A
C1671  N1917   1.426   .     S
C1672  C1686   1.407   .     A
C1672  N1928   1.427   .     S
C1673  N1939   1.427   .     S
C1673  C1685   1.400   .     A
C1674  C1684   1.404   .     A
C1674  N1950   1.428   .     S
C1675  N1960   1.427   .     S
C1675  C1683   1.404   .     A
C1676  N1949   1.428   .     S
C1676  C1708   1.411   .     A
C1677  N1961   1.427   .     S
C1677  C1682   1.402   .     A
C1678  N1962   1.427   .     S
C1678  C1681   1.402   .     A
C1679  C1680   1.401   .     A
C1679  N1963   1.428   .     S
C1680  N1964   1.424   .     S
C1681  N1918   1.427   .     S
C1682  N1919   1.427   .     S
C1683  N1920   1.425   .     S
C1684  N1921   1.427   .     S
C1685  N1922   1.427   .     S
C1686  N1923   1.427   .     S
C1687  N1951   1.424   .     S
C1687  C606    1.403   1_565 S
C1688  N1924   1.423   .     S
C1689  N1925   1.426   .     S
C1689  C1705   1.396   .     A
C1690  C1704   1.407   .     A
C1690  N1926   1.428   .     S
C1691  C1703   1.400   .     A
C1691  N1927   1.427   .     S
C1692  N1929   1.428   .     S
C1692  C1702   1.404   .     A
C1693  N1930   1.427   .     S
C1693  C1701   1.404   .     A
C1694  C1700   1.402   .     A
C1694  N1931   1.427   .     S
C1695  C1699   1.402   .     A
C1695  N1932   1.427   .     S
C1696  N1933   1.428   .     S
C1696  C1697   1.401   .     A
C1697  N1934   1.425   .     S
C1698  N1952   1.428   .     S
C1699  N1935   1.427   .     S
C1700  N1936   1.427   .     S
C1701  N1937   1.425   .     S
C1702  N1938   1.427   .     S
C1703  N1940   1.427   .     S
C1704  N1941   1.427   .     S
C1705  N1942   1.423   .     S
H1712  N1931   1.032   .     S
H1716  N1932   1.032   .     S
H1720  N1933   1.031   .     S
H1725  N1934   1.029   .     S
H1729  N1935   1.032   .     S
H1734  N1936   1.031   .     S
H1738  N1937   1.029   .     S
H1742  N1938   1.028   .     S
H1747  N1940   1.032   .     S
H1751  N1941   1.031   .     S
H1756  N1942   1.030   .     S
H1760  N1943   1.031   .     S
H1764  N1944   1.031   .     S
H1769  N1945   1.031   .     S
H1771  C589    1.110   1_565 S
H1773  N1946   1.030   .     S
H1778  N1947   1.031   .     S
H1782  N1948   1.031   .     S
H1786  N1949   1.030   .     S
H1787  N1917   1.031   .     S
H1791  N1951   1.030   .     S
H1795  N1952   1.031   .     S
H1800  N1953   1.031   .     S
H1804  N1954   1.031   .     S
H1808  N1955   1.030   .     S
H1813  N1956   1.031   .     S
H1817  N1957   1.031   .     S
H1823  N1958   1.031   .     S
H1827  N1959   1.030   .     S
H1831  N1928   1.029   .     S
H1835  N1939   1.032   .     S
H1839  N1950   1.031   .     S
H1844  N1960   1.031   .     S
H1848  N1961   1.032   .     S
H1853  N1962   1.032   .     S
H1857  N1963   1.031   .     S
H1861  N1964   1.030   .     S
H1866  N1918   1.032   .     S
H1870  N1919   1.031   .     S
H1875  N1920   1.029   .     S
H1879  N1921   1.028   .     S
H1883  N1922   1.032   .     S
H1888  N1923   1.031   .     S
H1892  N1924   1.030   .     S
H1897  N1925   1.031   .     S
H1901  N1926   1.029   .     S
H1905  N1927   1.032   .     S
H1910  N1929   1.031   .     S
H1914  N1930   1.031   .     S
N1945  C589    1.447   1_565 S
N1951  C594    1.448   1_565 S
O1965  Zn2017  1.947   .     S
O1965  Zn2020  1.950   .     S
O1965  Zn2028  1.945   .     S
O1966  Zn2019  1.951   .     S
O1966  C630    1.279   1_565 S
O1967  Zn2022  1.952   .     S
O1967  C1139   1.278   1_655 S
O1968  Zn2021  1.952   .     S
O1969  Zn2031  1.952   .     S
O1970  Zn2030  1.952   .     S
O1971  Zn2025  1.951   .     S
O1972  Zn2017  1.951   .     S
O1973  Zn2027  1.951   .     S
O1974  Zn2026  1.951   .     S
O1975  Zn2029  1.952   .     S
O1976  Zn2023  1.947   .     S
O1976  Zn2025  1.947   .     S
O1976  Zn2029  1.945   .     S
O1977  Zn2028  1.952   .     S
O1978  Zn2020  1.932   .     S
O1979  Zn2019  1.932   .     S
O1980  Zn2022  1.937   .     S
O1981  Zn2021  1.937   .     S
O1982  Zn2024  1.932   .     S
O1983  Zn2023  1.932   .     S
O1984  Zn2018  1.936   .     S
O1985  Zn2032  1.936   .     S
O1986  Zn2019  1.935   .     S
O1987  Zn2030  1.947   .     S
O1987  Zn2018  1.947   .     S
O1987  Zn2026  1.950   .     S
O1988  Zn2020  1.935   .     S
O1989  Zn2032  1.934   .     S
O1990  Zn2018  1.934   .     S
O1991  Zn2023  1.936   .     S
O1992  Zn2024  1.936   .     S
O1993  Zn2021  1.933   .     S
O1994  Zn2022  1.933   .     S
O1995  Zn1519  1.932   1_655 S
O1996  Zn2026  1.932   .     S
O1997  Zn1013  1.937   1_565 S
O1998  Zn2021  1.945   .     S
O1998  Zn2027  1.950   .     S
O1998  Zn2031  1.947   .     S
O1999  Zn2028  1.937   .     S
O2000  Zn2031  1.932   .     S
O2001  Zn1522  1.932   1_655 S
O2002  Zn2025  1.936   .     S
O2003  Zn1001  1.936   1_565 S
O2004  Zn1518  1.935   1_655 S
O2005  Zn2027  1.935   .     S
O2006  Zn2017  1.934   .     S
O2007  Zn1009  1.934   1_565 S
O2008  Zn2030  1.936   .     S
O2009  Zn2024  1.952   .     S
O2010  Zn1523  1.936   1_655 S
O2011  Zn1012  1.933   1_565 S
O2012  Zn2029  1.933   .     S
O2013  Zn2023  1.952   .     S
O2014  Zn2018  1.951   .     S
O2015  Zn2032  1.951   .     S
O2015  C1140   1.279   1_655 S
O2016  Zn2020  1.951   .     S
Zn2019 O960    1.950   1_565 S
Zn2022 O1479   1.945   1_655 S
Zn2024 O949    1.947   1_565 S
Zn2032 O1490   1.947   1_655 S
