data_str_m1_o10_o18_pcu_sym.60
_audit_creation_date              2020-01-03
_audit_creation_method            'Materials Studio'
_symmetry_space_group_name_H-M    'P1'
_symmetry_Int_Tables_number       1
_symmetry_cell_setting            triclinic
loop_
_symmetry_equiv_pos_as_xyz
  x,y,z
_cell_length_a                    32.4671
_cell_length_b                    32.7831
_cell_length_c                    35.5601
_cell_angle_alpha                 97.9657
_cell_angle_beta                  72.9418
_cell_angle_gamma                 98.3458
loop_
_atom_site_label
_atom_site_type_symbol
_atom_site_fract_x
_atom_site_fract_y
_atom_site_fract_z
_atom_site_U_iso_or_equiv
_atom_site_adp_type
_atom_site_occupancy
C1     C     0.05253   0.15994   0.25885   0.00000  Uiso   1.00
C2     C     0.20432   0.13431   0.45794   0.00000  Uiso   1.00
C3     C     0.23082   0.12225   0.47760   0.00000  Uiso   1.00
C4     C     0.28109   0.17356   0.24120   0.00000  Uiso   1.00
C5     C     0.21879   0.12527   0.01864   0.00000  Uiso   1.00
C6     C     0.17720   0.13657   0.04059   0.00000  Uiso   1.00
C7     C     0.24899   0.11874   0.03779   0.00000  Uiso   1.00
C8     C     0.23938   0.12458   0.07895   0.00000  Uiso   1.00
C9     C     0.16837   0.14291   0.08211   0.00000  Uiso   1.00
C10    C     0.32712   0.17621   0.23761   0.00000  Uiso   1.00
C11    C     0.00710   0.15770   0.26238   0.00000  Uiso   1.00
C12    C     0.08851   0.19894   0.42054   0.00000  Uiso   1.00
C13    C     0.17862   0.32148   0.23666   0.00000  Uiso   1.00
C14    C     0.15180   0.01324   0.26360   0.00000  Uiso   1.00
C15    C     0.15640   0.05645   0.25878   0.00000  Uiso   1.00
C16    C     0.17643   0.27757   0.24122   0.00000  Uiso   1.00
C17    C     0.18818   0.14561   0.14396   0.00000  Uiso   1.00
C18    C     0.14505   0.18725   0.35632   0.00000  Uiso   1.00
C19    C     0.13010   0.18902   0.39975   0.00000  Uiso   1.00
C20    C     0.19862   0.13652   0.10108   0.00000  Uiso   1.00
C21    C     0.07117   0.19238   0.46054   0.00000  Uiso   1.00
C22    C     0.19871   0.32638   0.16615   0.00000  Uiso   1.00
C23    C     0.15543   0.17450   0.41950   0.00000  Uiso   1.00
C24    C     0.11834   0.00036   0.30095   0.00000  Uiso   1.00
C25    C     0.26575   0.08267   0.11579   0.00000  Uiso   1.00
C26    C     0.02566   0.20278   0.48131   0.00000  Uiso   1.00
C27    C     0.07163   0.08903   0.07365   0.00000  Uiso   1.00
C28    C     0.13882   0.16580   0.45919   0.00000  Uiso   1.00
C29    C     0.09615   0.17511   0.47995   0.00000  Uiso   1.00
C30    C     0.16385   0.14856   0.47870   0.00000  Uiso   1.00
C31    C     0.14777   0.14475   0.02006   0.00000  Uiso   1.00
C32    C     0.10315   0.14923   0.03878   0.00000  Uiso   1.00
C33    C     0.07878   0.16553   0.01909   0.00000  Uiso   1.00
H34    H     0.04530   0.16936   0.03466   0.00000  Uiso   1.00
H35    H     0.22342   0.03404   0.20643   0.00000  Uiso   1.00
H36    H     0.17154   0.01022   0.16635   0.00000  Uiso   1.00
H37    H     0.18913   0.29255   0.16143   0.00000  Uiso   1.00
H38    H     0.22708   0.00144   0.14112   0.00000  Uiso   1.00
H39    H     0.10238   0.02729   0.31886   0.00000  Uiso   1.00
H40    H     0.09233   0.31101   0.29343   0.00000  Uiso   1.00
H41    H     0.13397   0.32068   0.31984   0.00000  Uiso   1.00
H42    H     0.30303   0.12700   0.08032   0.00000  Uiso   1.00
H43    H     0.26810   0.05569   0.09288   0.00000  Uiso   1.00
H44    H     0.23379   0.07932   0.13826   0.00000  Uiso   1.00
H45    H     0.28068   0.11021   0.02066   0.00000  Uiso   1.00
H46    H     0.29137   0.08309   0.13082   0.00000  Uiso   1.00
H47    H     0.01159   0.21675   0.46180   0.00000  Uiso   1.00
H48    H     0.00428   0.17421   0.49071   0.00000  Uiso   1.00
H49    H     0.02585   0.22545   0.00755   0.00000  Uiso   1.00
H50    H     0.05414   0.14845   0.09171   0.00000  Uiso   1.00
H51    H     0.05627   0.07958   0.10388   0.00000  Uiso   1.00
H52    H     0.10199   0.07406   0.06094   0.00000  Uiso   1.00
H53    H     0.04902   0.07818   0.05524   0.00000  Uiso   1.00
H54    H     0.01693   0.19321   0.21472   0.00000  Uiso   1.00
H55    H     0.31796   0.14066   0.28555   0.00000  Uiso   1.00
H56    H     0.13983   0.15632   0.10042   0.00000  Uiso   1.00
H57    H     0.26199   0.11245   0.46054   0.00000  Uiso   1.00
H58    H     0.06880   0.21007   0.40508   0.00000  Uiso   1.00
H59    H     0.18819   0.16998   0.40270   0.00000  Uiso   1.00
H60    H     0.21640   0.13141   0.42619   0.00000  Uiso   1.00
N61    N     0.21028   0.00365   0.20289   0.00000  Uiso   1.00
N62    N     0.27168   0.12074   0.09769   0.00000  Uiso   1.00
N63    N     0.08083   0.13367   0.07572   0.00000  Uiso   1.00
O64    O     0.16667   0.16667   0.25000   0.00000  Uiso   1.00
O65    O     0.15693   0.12393   0.16625   0.00000  Uiso   1.00
O66    O     0.12687   0.20646   0.33749   0.00000  Uiso   1.00
O67    O     0.21088   0.17493   0.15877   0.00000  Uiso   1.00
O68    O     0.17198   0.16135   0.33749   0.00000  Uiso   1.00
O69    O     0.17849   0.08101   0.27821   0.00000  Uiso   1.00
O70    O     0.14581   0.26136   0.26767   0.00000  Uiso   1.00
O71    O     0.07452   0.13251   0.23607   0.00000  Uiso   1.00
O72    O     0.26785   0.19179   0.21806   0.00000  Uiso   1.00
O73    O     0.06990   0.18960   0.27820   0.00000  Uiso   1.00
O74    O     0.25440   0.15277   0.26768   0.00000  Uiso   1.00
O75    O     0.13800   0.06903   0.23607   0.00000  Uiso   1.00
O76    O     0.20437   0.25527   0.21806   0.00000  Uiso   1.00
Zn77   Zn    0.19244   0.14090   0.28278   0.00000  Uiso   1.00
Zn78   Zn    0.13459   0.12378   0.22258   0.00000  Uiso   1.00
Zn79   Zn    0.21166   0.19664   0.21188   0.00000  Uiso   1.00
Zn80   Zn    0.12798   0.20535   0.28277   0.00000  Uiso   1.00
C81    C     0.38586   0.15994   0.25885   0.00000  Uiso   1.00
C82    C     0.53765   0.13431   0.45794   0.00000  Uiso   1.00
C83    C     0.56415   0.12225   0.47760   0.00000  Uiso   1.00
C84    C     0.61442   0.17356   0.24120   0.00000  Uiso   1.00
C85    C     0.55212   0.12527   0.01864   0.00000  Uiso   1.00
C86    C     0.51054   0.13657   0.04059   0.00000  Uiso   1.00
C87    C     0.58232   0.11874   0.03779   0.00000  Uiso   1.00
C88    C     0.57272   0.12458   0.07895   0.00000  Uiso   1.00
C89    C     0.50170   0.14291   0.08211   0.00000  Uiso   1.00
C90    C     0.66045   0.17621   0.23761   0.00000  Uiso   1.00
C91    C     0.34043   0.15770   0.26238   0.00000  Uiso   1.00
C92    C     0.42184   0.19894   0.42054   0.00000  Uiso   1.00
C93    C     0.51195   0.32148   0.23666   0.00000  Uiso   1.00
C94    C     0.48513   0.01324   0.26360   0.00000  Uiso   1.00
C95    C     0.48973   0.05645   0.25878   0.00000  Uiso   1.00
C96    C     0.50977   0.27757   0.24122   0.00000  Uiso   1.00
C97    C     0.52151   0.14561   0.14396   0.00000  Uiso   1.00
C98    C     0.47838   0.18725   0.35632   0.00000  Uiso   1.00
C99    C     0.46343   0.18902   0.39975   0.00000  Uiso   1.00
C100   C     0.53195   0.13652   0.10108   0.00000  Uiso   1.00
C101   C     0.40450   0.19238   0.46054   0.00000  Uiso   1.00
C102   C     0.53205   0.32638   0.16615   0.00000  Uiso   1.00
C103   C     0.48877   0.17450   0.41950   0.00000  Uiso   1.00
C104   C     0.45168   0.00036   0.30095   0.00000  Uiso   1.00
C105   C     0.59908   0.08267   0.11579   0.00000  Uiso   1.00
C106   C     0.35899   0.20278   0.48131   0.00000  Uiso   1.00
C107   C     0.40496   0.08903   0.07365   0.00000  Uiso   1.00
C108   C     0.47215   0.16580   0.45919   0.00000  Uiso   1.00
C109   C     0.42949   0.17511   0.47995   0.00000  Uiso   1.00
C110   C     0.49719   0.14856   0.47870   0.00000  Uiso   1.00
C111   C     0.48111   0.14475   0.02006   0.00000  Uiso   1.00
C112   C     0.43648   0.14923   0.03878   0.00000  Uiso   1.00
C113   C     0.41211   0.16553   0.01909   0.00000  Uiso   1.00
H114   H     0.37864   0.16936   0.03466   0.00000  Uiso   1.00
H115   H     0.55675   0.03404   0.20643   0.00000  Uiso   1.00
H116   H     0.50487   0.01022   0.16635   0.00000  Uiso   1.00
H117   H     0.52246   0.29255   0.16143   0.00000  Uiso   1.00
H118   H     0.56041   0.00144   0.14112   0.00000  Uiso   1.00
H119   H     0.43572   0.02729   0.31886   0.00000  Uiso   1.00
H120   H     0.42567   0.31101   0.29343   0.00000  Uiso   1.00
H121   H     0.46730   0.32068   0.31984   0.00000  Uiso   1.00
H122   H     0.63636   0.12700   0.08032   0.00000  Uiso   1.00
H123   H     0.60143   0.05569   0.09288   0.00000  Uiso   1.00
H124   H     0.56713   0.07932   0.13826   0.00000  Uiso   1.00
H125   H     0.61402   0.11021   0.02066   0.00000  Uiso   1.00
H126   H     0.62470   0.08309   0.13082   0.00000  Uiso   1.00
H127   H     0.34492   0.21675   0.46180   0.00000  Uiso   1.00
H128   H     0.33761   0.17421   0.49071   0.00000  Uiso   1.00
H129   H     0.35918   0.22545   0.00755   0.00000  Uiso   1.00
H130   H     0.38747   0.14845   0.09171   0.00000  Uiso   1.00
H131   H     0.38960   0.07958   0.10388   0.00000  Uiso   1.00
H132   H     0.43532   0.07406   0.06094   0.00000  Uiso   1.00
H133   H     0.38235   0.07818   0.05524   0.00000  Uiso   1.00
H134   H     0.35026   0.19321   0.21472   0.00000  Uiso   1.00
H135   H     0.65129   0.14066   0.28555   0.00000  Uiso   1.00
H136   H     0.47316   0.15632   0.10042   0.00000  Uiso   1.00
H137   H     0.59533   0.11245   0.46054   0.00000  Uiso   1.00
H138   H     0.40213   0.21007   0.40508   0.00000  Uiso   1.00
H139   H     0.52152   0.16998   0.40270   0.00000  Uiso   1.00
H140   H     0.54973   0.13141   0.42619   0.00000  Uiso   1.00
N141   N     0.54361   0.00365   0.20289   0.00000  Uiso   1.00
N142   N     0.60501   0.12074   0.09769   0.00000  Uiso   1.00
N143   N     0.41416   0.13367   0.07572   0.00000  Uiso   1.00
O144   O     0.50000   0.16667   0.25000   0.00000  Uiso   1.00
O145   O     0.49027   0.12393   0.16625   0.00000  Uiso   1.00
O146   O     0.46020   0.20646   0.33749   0.00000  Uiso   1.00
O147   O     0.54421   0.17493   0.15877   0.00000  Uiso   1.00
O148   O     0.50532   0.16135   0.33749   0.00000  Uiso   1.00
O149   O     0.51182   0.08101   0.27821   0.00000  Uiso   1.00
O150   O     0.47914   0.26136   0.26767   0.00000  Uiso   1.00
O151   O     0.40785   0.13251   0.23607   0.00000  Uiso   1.00
O152   O     0.60119   0.19179   0.21806   0.00000  Uiso   1.00
O153   O     0.40323   0.18960   0.27820   0.00000  Uiso   1.00
O154   O     0.58773   0.15277   0.26768   0.00000  Uiso   1.00
O155   O     0.47133   0.06903   0.23607   0.00000  Uiso   1.00
O156   O     0.53771   0.25527   0.21806   0.00000  Uiso   1.00
Zn157  Zn    0.52577   0.14090   0.28278   0.00000  Uiso   1.00
Zn158  Zn    0.46792   0.12378   0.22258   0.00000  Uiso   1.00
Zn159  Zn    0.54500   0.19664   0.21188   0.00000  Uiso   1.00
Zn160  Zn    0.46131   0.20535   0.28277   0.00000  Uiso   1.00
C161   C     0.71919   0.15994   0.25885   0.00000  Uiso   1.00
C162   C     0.87099   0.13431   0.45794   0.00000  Uiso   1.00
C163   C     0.89748   0.12225   0.47760   0.00000  Uiso   1.00
C164   C     0.94776   0.17356   0.24120   0.00000  Uiso   1.00
C165   C     0.88546   0.12527   0.01864   0.00000  Uiso   1.00
C166   C     0.84387   0.13657   0.04059   0.00000  Uiso   1.00
C167   C     0.91566   0.11874   0.03779   0.00000  Uiso   1.00
C168   C     0.90605   0.12458   0.07895   0.00000  Uiso   1.00
C169   C     0.83504   0.14291   0.08211   0.00000  Uiso   1.00
C170   C     0.99378   0.17621   0.23761   0.00000  Uiso   1.00
C171   C     0.67376   0.15770   0.26238   0.00000  Uiso   1.00
C172   C     0.75518   0.19894   0.42054   0.00000  Uiso   1.00
C173   C     0.84529   0.32148   0.23666   0.00000  Uiso   1.00
C174   C     0.81846   0.01324   0.26360   0.00000  Uiso   1.00
C175   C     0.82306   0.05645   0.25878   0.00000  Uiso   1.00
C176   C     0.84310   0.27757   0.24122   0.00000  Uiso   1.00
C177   C     0.85484   0.14561   0.14396   0.00000  Uiso   1.00
C178   C     0.81172   0.18725   0.35632   0.00000  Uiso   1.00
C179   C     0.79676   0.18902   0.39975   0.00000  Uiso   1.00
C180   C     0.86528   0.13652   0.10108   0.00000  Uiso   1.00
C181   C     0.73783   0.19238   0.46054   0.00000  Uiso   1.00
C182   C     0.86538   0.32638   0.16615   0.00000  Uiso   1.00
C183   C     0.82210   0.17450   0.41950   0.00000  Uiso   1.00
C184   C     0.78501   0.00036   0.30095   0.00000  Uiso   1.00
C185   C     0.93241   0.08267   0.11579   0.00000  Uiso   1.00
C186   C     0.69232   0.20278   0.48131   0.00000  Uiso   1.00
C187   C     0.73830   0.08903   0.07365   0.00000  Uiso   1.00
C188   C     0.80548   0.16580   0.45919   0.00000  Uiso   1.00
C189   C     0.76282   0.17511   0.47995   0.00000  Uiso   1.00
C190   C     0.83052   0.14856   0.47870   0.00000  Uiso   1.00
C191   C     0.81444   0.14475   0.02006   0.00000  Uiso   1.00
C192   C     0.76982   0.14923   0.03878   0.00000  Uiso   1.00
C193   C     0.74544   0.16553   0.01909   0.00000  Uiso   1.00
H194   H     0.71197   0.16936   0.03466   0.00000  Uiso   1.00
H195   H     0.89008   0.03404   0.20643   0.00000  Uiso   1.00
H196   H     0.83821   0.01022   0.16635   0.00000  Uiso   1.00
H197   H     0.85579   0.29255   0.16143   0.00000  Uiso   1.00
H198   H     0.89375   0.00144   0.14112   0.00000  Uiso   1.00
H199   H     0.76905   0.02729   0.31886   0.00000  Uiso   1.00
H200   H     0.75900   0.31101   0.29343   0.00000  Uiso   1.00
H201   H     0.80064   0.32068   0.31984   0.00000  Uiso   1.00
H202   H     0.96969   0.12700   0.08032   0.00000  Uiso   1.00
H203   H     0.93477   0.05569   0.09288   0.00000  Uiso   1.00
H204   H     0.90046   0.07932   0.13826   0.00000  Uiso   1.00
H205   H     0.94735   0.11021   0.02066   0.00000  Uiso   1.00
H206   H     0.95804   0.08309   0.13082   0.00000  Uiso   1.00
H207   H     0.67826   0.21675   0.46180   0.00000  Uiso   1.00
H208   H     0.67094   0.17421   0.49071   0.00000  Uiso   1.00
H209   H     0.69252   0.22545   0.00755   0.00000  Uiso   1.00
H210   H     0.72080   0.14845   0.09171   0.00000  Uiso   1.00
H211   H     0.72293   0.07958   0.10388   0.00000  Uiso   1.00
H212   H     0.76865   0.07406   0.06094   0.00000  Uiso   1.00
H213   H     0.71569   0.07818   0.05524   0.00000  Uiso   1.00
H214   H     0.68360   0.19321   0.21472   0.00000  Uiso   1.00
H215   H     0.98463   0.14066   0.28555   0.00000  Uiso   1.00
H216   H     0.80649   0.15632   0.10042   0.00000  Uiso   1.00
H217   H     0.92866   0.11245   0.46054   0.00000  Uiso   1.00
H218   H     0.73546   0.21007   0.40508   0.00000  Uiso   1.00
H219   H     0.85486   0.16998   0.40270   0.00000  Uiso   1.00
H220   H     0.88306   0.13141   0.42619   0.00000  Uiso   1.00
N221   N     0.87695   0.00365   0.20289   0.00000  Uiso   1.00
N222   N     0.93834   0.12074   0.09769   0.00000  Uiso   1.00
N223   N     0.74749   0.13367   0.07572   0.00000  Uiso   1.00
O224   O     0.83333   0.16667   0.25000   0.00000  Uiso   1.00
O225   O     0.82360   0.12393   0.16625   0.00000  Uiso   1.00
O226   O     0.79354   0.20646   0.33749   0.00000  Uiso   1.00
O227   O     0.87755   0.17493   0.15877   0.00000  Uiso   1.00
O228   O     0.83865   0.16135   0.33749   0.00000  Uiso   1.00
O229   O     0.84515   0.08101   0.27821   0.00000  Uiso   1.00
O230   O     0.81247   0.26136   0.26767   0.00000  Uiso   1.00
O231   O     0.74119   0.13251   0.23607   0.00000  Uiso   1.00
O232   O     0.93452   0.19179   0.21806   0.00000  Uiso   1.00
O233   O     0.73656   0.18960   0.27820   0.00000  Uiso   1.00
O234   O     0.92106   0.15277   0.26768   0.00000  Uiso   1.00
O235   O     0.80467   0.06903   0.23607   0.00000  Uiso   1.00
O236   O     0.87104   0.25527   0.21806   0.00000  Uiso   1.00
Zn237  Zn    0.85910   0.14090   0.28278   0.00000  Uiso   1.00
Zn238  Zn    0.80125   0.12378   0.22258   0.00000  Uiso   1.00
Zn239  Zn    0.87833   0.19664   0.21188   0.00000  Uiso   1.00
Zn240  Zn    0.79465   0.20535   0.28277   0.00000  Uiso   1.00
C241   C     0.05253   0.49327   0.25885   0.00000  Uiso   1.00
C242   C     0.20432   0.46765   0.45794   0.00000  Uiso   1.00
C243   C     0.23082   0.45559   0.47760   0.00000  Uiso   1.00
C244   C     0.28109   0.50690   0.24120   0.00000  Uiso   1.00
C245   C     0.21879   0.45860   0.01864   0.00000  Uiso   1.00
C246   C     0.17720   0.46990   0.04059   0.00000  Uiso   1.00
C247   C     0.24899   0.45207   0.03779   0.00000  Uiso   1.00
C248   C     0.23938   0.45791   0.07895   0.00000  Uiso   1.00
C249   C     0.16837   0.47625   0.08211   0.00000  Uiso   1.00
C250   C     0.32712   0.50954   0.23761   0.00000  Uiso   1.00
C251   C     0.00710   0.49103   0.26238   0.00000  Uiso   1.00
C252   C     0.08851   0.53227   0.42054   0.00000  Uiso   1.00
C253   C     0.17862   0.65481   0.23666   0.00000  Uiso   1.00
C254   C     0.15180   0.34657   0.26360   0.00000  Uiso   1.00
C255   C     0.15640   0.38978   0.25878   0.00000  Uiso   1.00
C256   C     0.17643   0.61091   0.24122   0.00000  Uiso   1.00
C257   C     0.18818   0.47894   0.14396   0.00000  Uiso   1.00
C258   C     0.14505   0.52058   0.35632   0.00000  Uiso   1.00
C259   C     0.13010   0.52235   0.39975   0.00000  Uiso   1.00
C260   C     0.19862   0.46985   0.10108   0.00000  Uiso   1.00
C261   C     0.07117   0.52571   0.46054   0.00000  Uiso   1.00
C262   C     0.19871   0.65971   0.16615   0.00000  Uiso   1.00
C263   C     0.15543   0.50783   0.41950   0.00000  Uiso   1.00
C264   C     0.11834   0.33370   0.30095   0.00000  Uiso   1.00
C265   C     0.26575   0.41601   0.11579   0.00000  Uiso   1.00
C266   C     0.02566   0.53612   0.48131   0.00000  Uiso   1.00
C267   C     0.07163   0.42236   0.07365   0.00000  Uiso   1.00
C268   C     0.13882   0.49913   0.45919   0.00000  Uiso   1.00
C269   C     0.09615   0.50844   0.47995   0.00000  Uiso   1.00
C270   C     0.16385   0.48189   0.47870   0.00000  Uiso   1.00
C271   C     0.14777   0.47808   0.02006   0.00000  Uiso   1.00
C272   C     0.10315   0.48256   0.03878   0.00000  Uiso   1.00
C273   C     0.07878   0.49886   0.01909   0.00000  Uiso   1.00
H274   H     0.04530   0.50269   0.03466   0.00000  Uiso   1.00
H275   H     0.22342   0.36737   0.20643   0.00000  Uiso   1.00
H276   H     0.17154   0.34355   0.16635   0.00000  Uiso   1.00
H277   H     0.18913   0.62588   0.16143   0.00000  Uiso   1.00
H278   H     0.22708   0.33478   0.14112   0.00000  Uiso   1.00
H279   H     0.10238   0.36062   0.31886   0.00000  Uiso   1.00
H280   H     0.09233   0.64434   0.29343   0.00000  Uiso   1.00
H281   H     0.13397   0.65401   0.31984   0.00000  Uiso   1.00
H282   H     0.30303   0.46033   0.08032   0.00000  Uiso   1.00
H283   H     0.26810   0.38903   0.09288   0.00000  Uiso   1.00
H284   H     0.23379   0.41266   0.13826   0.00000  Uiso   1.00
H285   H     0.28068   0.44354   0.02066   0.00000  Uiso   1.00
H286   H     0.29137   0.41642   0.13082   0.00000  Uiso   1.00
H287   H     0.01159   0.55008   0.46180   0.00000  Uiso   1.00
H288   H     0.00428   0.50755   0.49071   0.00000  Uiso   1.00
H289   H     0.02585   0.55878   0.00755   0.00000  Uiso   1.00
H290   H     0.05414   0.48178   0.09171   0.00000  Uiso   1.00
H291   H     0.05627   0.41292   0.10388   0.00000  Uiso   1.00
H292   H     0.10199   0.40740   0.06094   0.00000  Uiso   1.00
H293   H     0.04902   0.41151   0.05524   0.00000  Uiso   1.00
H294   H     0.01693   0.52654   0.21472   0.00000  Uiso   1.00
H295   H     0.31796   0.47399   0.28555   0.00000  Uiso   1.00
H296   H     0.13983   0.48966   0.10042   0.00000  Uiso   1.00
H297   H     0.26199   0.44578   0.46054   0.00000  Uiso   1.00
H298   H     0.06880   0.54340   0.40508   0.00000  Uiso   1.00
H299   H     0.18819   0.50331   0.40270   0.00000  Uiso   1.00
H300   H     0.21640   0.46475   0.42619   0.00000  Uiso   1.00
N301   N     0.21028   0.33699   0.20289   0.00000  Uiso   1.00
N302   N     0.27168   0.45408   0.09769   0.00000  Uiso   1.00
N303   N     0.08083   0.46700   0.07572   0.00000  Uiso   1.00
O304   O     0.16667   0.50000   0.25000   0.00000  Uiso   1.00
O305   O     0.15693   0.45726   0.16625   0.00000  Uiso   1.00
O306   O     0.12687   0.53979   0.33749   0.00000  Uiso   1.00
O307   O     0.21088   0.50826   0.15877   0.00000  Uiso   1.00
O308   O     0.17198   0.49468   0.33749   0.00000  Uiso   1.00
O309   O     0.17849   0.41434   0.27821   0.00000  Uiso   1.00
O310   O     0.14581   0.59469   0.26767   0.00000  Uiso   1.00
O311   O     0.07452   0.46584   0.23607   0.00000  Uiso   1.00
O312   O     0.26785   0.52512   0.21806   0.00000  Uiso   1.00
O313   O     0.06990   0.52293   0.27820   0.00000  Uiso   1.00
O314   O     0.25440   0.48610   0.26768   0.00000  Uiso   1.00
O315   O     0.13800   0.40236   0.23607   0.00000  Uiso   1.00
O316   O     0.20437   0.58860   0.21806   0.00000  Uiso   1.00
Zn317  Zn    0.19244   0.47423   0.28278   0.00000  Uiso   1.00
Zn318  Zn    0.13459   0.45711   0.22258   0.00000  Uiso   1.00
Zn319  Zn    0.21166   0.52997   0.21188   0.00000  Uiso   1.00
Zn320  Zn    0.12798   0.53868   0.28277   0.00000  Uiso   1.00
C321   C     0.38586   0.49327   0.25885   0.00000  Uiso   1.00
C322   C     0.53765   0.46765   0.45794   0.00000  Uiso   1.00
C323   C     0.56415   0.45559   0.47760   0.00000  Uiso   1.00
C324   C     0.61442   0.50690   0.24120   0.00000  Uiso   1.00
C325   C     0.55212   0.45860   0.01864   0.00000  Uiso   1.00
C326   C     0.51054   0.46990   0.04059   0.00000  Uiso   1.00
C327   C     0.58232   0.45207   0.03779   0.00000  Uiso   1.00
C328   C     0.57272   0.45791   0.07895   0.00000  Uiso   1.00
C329   C     0.50170   0.47625   0.08211   0.00000  Uiso   1.00
C330   C     0.66045   0.50954   0.23761   0.00000  Uiso   1.00
C331   C     0.34043   0.49103   0.26238   0.00000  Uiso   1.00
C332   C     0.42184   0.53227   0.42054   0.00000  Uiso   1.00
C333   C     0.51195   0.65481   0.23666   0.00000  Uiso   1.00
C334   C     0.48513   0.34657   0.26360   0.00000  Uiso   1.00
C335   C     0.48973   0.38978   0.25878   0.00000  Uiso   1.00
C336   C     0.50977   0.61091   0.24122   0.00000  Uiso   1.00
C337   C     0.52151   0.47894   0.14396   0.00000  Uiso   1.00
C338   C     0.47838   0.52058   0.35632   0.00000  Uiso   1.00
C339   C     0.46343   0.52235   0.39975   0.00000  Uiso   1.00
C340   C     0.53195   0.46985   0.10108   0.00000  Uiso   1.00
C341   C     0.40450   0.52571   0.46054   0.00000  Uiso   1.00
C342   C     0.53205   0.65971   0.16615   0.00000  Uiso   1.00
C343   C     0.48877   0.50783   0.41950   0.00000  Uiso   1.00
C344   C     0.45168   0.33370   0.30095   0.00000  Uiso   1.00
C345   C     0.59908   0.41601   0.11579   0.00000  Uiso   1.00
C346   C     0.35899   0.53612   0.48131   0.00000  Uiso   1.00
C347   C     0.40496   0.42236   0.07365   0.00000  Uiso   1.00
C348   C     0.47215   0.49913   0.45919   0.00000  Uiso   1.00
C349   C     0.42949   0.50844   0.47995   0.00000  Uiso   1.00
C350   C     0.49719   0.48189   0.47870   0.00000  Uiso   1.00
C351   C     0.48111   0.47808   0.02006   0.00000  Uiso   1.00
C352   C     0.43648   0.48256   0.03878   0.00000  Uiso   1.00
C353   C     0.41211   0.49886   0.01909   0.00000  Uiso   1.00
H354   H     0.37864   0.50269   0.03466   0.00000  Uiso   1.00
H355   H     0.55675   0.36737   0.20643   0.00000  Uiso   1.00
H356   H     0.50487   0.34355   0.16635   0.00000  Uiso   1.00
H357   H     0.52246   0.62588   0.16143   0.00000  Uiso   1.00
H358   H     0.56041   0.33478   0.14112   0.00000  Uiso   1.00
H359   H     0.43572   0.36062   0.31886   0.00000  Uiso   1.00
H360   H     0.42567   0.64434   0.29343   0.00000  Uiso   1.00
H361   H     0.46730   0.65401   0.31984   0.00000  Uiso   1.00
H362   H     0.63636   0.46033   0.08032   0.00000  Uiso   1.00
H363   H     0.60143   0.38903   0.09288   0.00000  Uiso   1.00
H364   H     0.56713   0.41266   0.13826   0.00000  Uiso   1.00
H365   H     0.61402   0.44354   0.02066   0.00000  Uiso   1.00
H366   H     0.62470   0.41642   0.13082   0.00000  Uiso   1.00
H367   H     0.34492   0.55008   0.46180   0.00000  Uiso   1.00
H368   H     0.33761   0.50755   0.49071   0.00000  Uiso   1.00
H369   H     0.35918   0.55878   0.00755   0.00000  Uiso   1.00
H370   H     0.38747   0.48178   0.09171   0.00000  Uiso   1.00
H371   H     0.38960   0.41292   0.10388   0.00000  Uiso   1.00
H372   H     0.43532   0.40740   0.06094   0.00000  Uiso   1.00
H373   H     0.38235   0.41151   0.05524   0.00000  Uiso   1.00
H374   H     0.35026   0.52654   0.21472   0.00000  Uiso   1.00
H375   H     0.65129   0.47399   0.28555   0.00000  Uiso   1.00
H376   H     0.47316   0.48966   0.10042   0.00000  Uiso   1.00
H377   H     0.59533   0.44578   0.46054   0.00000  Uiso   1.00
H378   H     0.40213   0.54340   0.40508   0.00000  Uiso   1.00
H379   H     0.52152   0.50331   0.40270   0.00000  Uiso   1.00
H380   H     0.54973   0.46475   0.42619   0.00000  Uiso   1.00
N381   N     0.54361   0.33699   0.20289   0.00000  Uiso   1.00
N382   N     0.60501   0.45408   0.09769   0.00000  Uiso   1.00
N383   N     0.41416   0.46700   0.07572   0.00000  Uiso   1.00
O384   O     0.50000   0.50000   0.25000   0.00000  Uiso   1.00
O385   O     0.49027   0.45726   0.16625   0.00000  Uiso   1.00
O386   O     0.46020   0.53979   0.33749   0.00000  Uiso   1.00
O387   O     0.54421   0.50826   0.15877   0.00000  Uiso   1.00
O388   O     0.50532   0.49468   0.33749   0.00000  Uiso   1.00
O389   O     0.51182   0.41434   0.27821   0.00000  Uiso   1.00
O390   O     0.47914   0.59469   0.26767   0.00000  Uiso   1.00
O391   O     0.40785   0.46584   0.23607   0.00000  Uiso   1.00
O392   O     0.60119   0.52512   0.21806   0.00000  Uiso   1.00
O393   O     0.40323   0.52293   0.27820   0.00000  Uiso   1.00
O394   O     0.58773   0.48610   0.26768   0.00000  Uiso   1.00
O395   O     0.47133   0.40236   0.23607   0.00000  Uiso   1.00
O396   O     0.53771   0.58860   0.21806   0.00000  Uiso   1.00
Zn397  Zn    0.52577   0.47423   0.28278   0.00000  Uiso   1.00
Zn398  Zn    0.46792   0.45711   0.22258   0.00000  Uiso   1.00
Zn399  Zn    0.54500   0.52997   0.21188   0.00000  Uiso   1.00
Zn400  Zn    0.46131   0.53868   0.28277   0.00000  Uiso   1.00
C401   C     0.71919   0.49327   0.25885   0.00000  Uiso   1.00
C402   C     0.87099   0.46765   0.45794   0.00000  Uiso   1.00
C403   C     0.89748   0.45559   0.47760   0.00000  Uiso   1.00
C404   C     0.94776   0.50690   0.24120   0.00000  Uiso   1.00
C405   C     0.88546   0.45860   0.01864   0.00000  Uiso   1.00
C406   C     0.84387   0.46990   0.04059   0.00000  Uiso   1.00
C407   C     0.91566   0.45207   0.03779   0.00000  Uiso   1.00
C408   C     0.90605   0.45791   0.07895   0.00000  Uiso   1.00
C409   C     0.83504   0.47625   0.08211   0.00000  Uiso   1.00
C410   C     0.99378   0.50954   0.23761   0.00000  Uiso   1.00
C411   C     0.67376   0.49103   0.26238   0.00000  Uiso   1.00
C412   C     0.75518   0.53227   0.42054   0.00000  Uiso   1.00
C413   C     0.84529   0.65481   0.23666   0.00000  Uiso   1.00
C414   C     0.81846   0.34657   0.26360   0.00000  Uiso   1.00
C415   C     0.82306   0.38978   0.25878   0.00000  Uiso   1.00
C416   C     0.84310   0.61091   0.24122   0.00000  Uiso   1.00
C417   C     0.85484   0.47894   0.14396   0.00000  Uiso   1.00
C418   C     0.81172   0.52058   0.35632   0.00000  Uiso   1.00
C419   C     0.79676   0.52235   0.39975   0.00000  Uiso   1.00
C420   C     0.86528   0.46985   0.10108   0.00000  Uiso   1.00
C421   C     0.73783   0.52571   0.46054   0.00000  Uiso   1.00
C422   C     0.86538   0.65971   0.16615   0.00000  Uiso   1.00
C423   C     0.82210   0.50783   0.41950   0.00000  Uiso   1.00
C424   C     0.78501   0.33370   0.30095   0.00000  Uiso   1.00
C425   C     0.93241   0.41601   0.11579   0.00000  Uiso   1.00
C426   C     0.69232   0.53612   0.48131   0.00000  Uiso   1.00
C427   C     0.73830   0.42236   0.07365   0.00000  Uiso   1.00
C428   C     0.80548   0.49913   0.45919   0.00000  Uiso   1.00
C429   C     0.76282   0.50844   0.47995   0.00000  Uiso   1.00
C430   C     0.83052   0.48189   0.47870   0.00000  Uiso   1.00
C431   C     0.81444   0.47808   0.02006   0.00000  Uiso   1.00
C432   C     0.76982   0.48256   0.03878   0.00000  Uiso   1.00
C433   C     0.74544   0.49886   0.01909   0.00000  Uiso   1.00
H434   H     0.71197   0.50269   0.03466   0.00000  Uiso   1.00
H435   H     0.89008   0.36737   0.20643   0.00000  Uiso   1.00
H436   H     0.83821   0.34355   0.16635   0.00000  Uiso   1.00
H437   H     0.85579   0.62588   0.16143   0.00000  Uiso   1.00
H438   H     0.89375   0.33478   0.14112   0.00000  Uiso   1.00
H439   H     0.76905   0.36062   0.31886   0.00000  Uiso   1.00
H440   H     0.75900   0.64434   0.29343   0.00000  Uiso   1.00
H441   H     0.80064   0.65401   0.31984   0.00000  Uiso   1.00
H442   H     0.96969   0.46033   0.08032   0.00000  Uiso   1.00
H443   H     0.93477   0.38903   0.09288   0.00000  Uiso   1.00
H444   H     0.90046   0.41266   0.13826   0.00000  Uiso   1.00
H445   H     0.94735   0.44354   0.02066   0.00000  Uiso   1.00
H446   H     0.95804   0.41642   0.13082   0.00000  Uiso   1.00
H447   H     0.67826   0.55008   0.46180   0.00000  Uiso   1.00
H448   H     0.67094   0.50755   0.49071   0.00000  Uiso   1.00
H449   H     0.69252   0.55878   0.00755   0.00000  Uiso   1.00
H450   H     0.72080   0.48178   0.09171   0.00000  Uiso   1.00
H451   H     0.72293   0.41292   0.10388   0.00000  Uiso   1.00
H452   H     0.76865   0.40740   0.06094   0.00000  Uiso   1.00
H453   H     0.71569   0.41151   0.05524   0.00000  Uiso   1.00
H454   H     0.68360   0.52654   0.21472   0.00000  Uiso   1.00
H455   H     0.98463   0.47399   0.28555   0.00000  Uiso   1.00
H456   H     0.80649   0.48966   0.10042   0.00000  Uiso   1.00
H457   H     0.92866   0.44578   0.46054   0.00000  Uiso   1.00
H458   H     0.73546   0.54340   0.40508   0.00000  Uiso   1.00
H459   H     0.85486   0.50331   0.40270   0.00000  Uiso   1.00
H460   H     0.88306   0.46475   0.42619   0.00000  Uiso   1.00
N461   N     0.87695   0.33699   0.20289   0.00000  Uiso   1.00
N462   N     0.93834   0.45408   0.09769   0.00000  Uiso   1.00
N463   N     0.74749   0.46700   0.07572   0.00000  Uiso   1.00
O464   O     0.83333   0.50000   0.25000   0.00000  Uiso   1.00
O465   O     0.82360   0.45726   0.16625   0.00000  Uiso   1.00
O466   O     0.79354   0.53979   0.33749   0.00000  Uiso   1.00
O467   O     0.87755   0.50826   0.15877   0.00000  Uiso   1.00
O468   O     0.83865   0.49468   0.33749   0.00000  Uiso   1.00
O469   O     0.84515   0.41434   0.27821   0.00000  Uiso   1.00
O470   O     0.81247   0.59469   0.26767   0.00000  Uiso   1.00
O471   O     0.74119   0.46584   0.23607   0.00000  Uiso   1.00
O472   O     0.93452   0.52512   0.21806   0.00000  Uiso   1.00
O473   O     0.73656   0.52293   0.27820   0.00000  Uiso   1.00
O474   O     0.92106   0.48610   0.26768   0.00000  Uiso   1.00
O475   O     0.80467   0.40236   0.23607   0.00000  Uiso   1.00
O476   O     0.87104   0.58860   0.21806   0.00000  Uiso   1.00
Zn477  Zn    0.85910   0.47423   0.28278   0.00000  Uiso   1.00
Zn478  Zn    0.80125   0.45711   0.22258   0.00000  Uiso   1.00
Zn479  Zn    0.87833   0.52997   0.21188   0.00000  Uiso   1.00
Zn480  Zn    0.79465   0.53868   0.28277   0.00000  Uiso   1.00
C481   C     0.05253   0.82661   0.25885   0.00000  Uiso   1.00
C482   C     0.20432   0.80098   0.45794   0.00000  Uiso   1.00
C483   C     0.23082   0.78892   0.47760   0.00000  Uiso   1.00
C484   C     0.28109   0.84023   0.24120   0.00000  Uiso   1.00
C485   C     0.21879   0.79193   0.01864   0.00000  Uiso   1.00
C486   C     0.17720   0.80324   0.04059   0.00000  Uiso   1.00
C487   C     0.24899   0.78540   0.03779   0.00000  Uiso   1.00
C488   C     0.23938   0.79124   0.07895   0.00000  Uiso   1.00
C489   C     0.16837   0.80958   0.08211   0.00000  Uiso   1.00
C490   C     0.32712   0.84287   0.23761   0.00000  Uiso   1.00
C491   C     0.00710   0.82437   0.26238   0.00000  Uiso   1.00
C492   C     0.08851   0.86561   0.42054   0.00000  Uiso   1.00
C493   C     0.17862   0.98815   0.23666   0.00000  Uiso   1.00
C494   C     0.15180   0.67991   0.26360   0.00000  Uiso   1.00
C495   C     0.15640   0.72311   0.25878   0.00000  Uiso   1.00
C496   C     0.17643   0.94424   0.24122   0.00000  Uiso   1.00
C497   C     0.18818   0.81228   0.14396   0.00000  Uiso   1.00
C498   C     0.14505   0.85391   0.35632   0.00000  Uiso   1.00
C499   C     0.13010   0.85568   0.39975   0.00000  Uiso   1.00
C500   C     0.19862   0.80318   0.10108   0.00000  Uiso   1.00
C501   C     0.07117   0.85904   0.46054   0.00000  Uiso   1.00
C502   C     0.19871   0.99305   0.16615   0.00000  Uiso   1.00
C503   C     0.15543   0.84117   0.41950   0.00000  Uiso   1.00
C504   C     0.11834   0.66703   0.30095   0.00000  Uiso   1.00
C505   C     0.26575   0.74934   0.11579   0.00000  Uiso   1.00
C506   C     0.02566   0.86945   0.48131   0.00000  Uiso   1.00
C507   C     0.07163   0.75570   0.07365   0.00000  Uiso   1.00
C508   C     0.13882   0.83246   0.45919   0.00000  Uiso   1.00
C509   C     0.09615   0.84177   0.47995   0.00000  Uiso   1.00
C510   C     0.16385   0.81523   0.47870   0.00000  Uiso   1.00
C511   C     0.14777   0.81142   0.02006   0.00000  Uiso   1.00
C512   C     0.10315   0.81590   0.03878   0.00000  Uiso   1.00
C513   C     0.07878   0.83220   0.01909   0.00000  Uiso   1.00
H514   H     0.04530   0.83602   0.03466   0.00000  Uiso   1.00
H515   H     0.22342   0.70070   0.20643   0.00000  Uiso   1.00
H516   H     0.17154   0.67689   0.16635   0.00000  Uiso   1.00
H517   H     0.18913   0.95922   0.16143   0.00000  Uiso   1.00
H518   H     0.22708   0.66811   0.14112   0.00000  Uiso   1.00
H519   H     0.10238   0.69396   0.31886   0.00000  Uiso   1.00
H520   H     0.09233   0.97767   0.29343   0.00000  Uiso   1.00
H521   H     0.13397   0.98734   0.31984   0.00000  Uiso   1.00
H522   H     0.30303   0.79367   0.08032   0.00000  Uiso   1.00
H523   H     0.26810   0.72236   0.09288   0.00000  Uiso   1.00
H524   H     0.23379   0.74599   0.13826   0.00000  Uiso   1.00
H525   H     0.28068   0.77688   0.02066   0.00000  Uiso   1.00
H526   H     0.29137   0.74975   0.13082   0.00000  Uiso   1.00
H527   H     0.01159   0.88341   0.46180   0.00000  Uiso   1.00
H528   H     0.00428   0.84088   0.49071   0.00000  Uiso   1.00
H529   H     0.02585   0.89211   0.00755   0.00000  Uiso   1.00
H530   H     0.05414   0.81511   0.09171   0.00000  Uiso   1.00
H531   H     0.05627   0.74625   0.10388   0.00000  Uiso   1.00
H532   H     0.10199   0.74073   0.06094   0.00000  Uiso   1.00
H533   H     0.04902   0.74484   0.05524   0.00000  Uiso   1.00
H534   H     0.01693   0.85988   0.21472   0.00000  Uiso   1.00
H535   H     0.31796   0.80732   0.28555   0.00000  Uiso   1.00
H536   H     0.13983   0.82299   0.10042   0.00000  Uiso   1.00
H537   H     0.26199   0.77911   0.46054   0.00000  Uiso   1.00
H538   H     0.06880   0.87673   0.40508   0.00000  Uiso   1.00
H539   H     0.18819   0.83664   0.40270   0.00000  Uiso   1.00
H540   H     0.21640   0.79808   0.42619   0.00000  Uiso   1.00
N541   N     0.21028   0.67032   0.20289   0.00000  Uiso   1.00
N542   N     0.27168   0.78741   0.09769   0.00000  Uiso   1.00
N543   N     0.08083   0.80034   0.07572   0.00000  Uiso   1.00
O544   O     0.16667   0.83333   0.25000   0.00000  Uiso   1.00
O545   O     0.15693   0.79060   0.16625   0.00000  Uiso   1.00
O546   O     0.12687   0.87313   0.33749   0.00000  Uiso   1.00
O547   O     0.21088   0.84159   0.15877   0.00000  Uiso   1.00
O548   O     0.17198   0.82802   0.33749   0.00000  Uiso   1.00
O549   O     0.17849   0.74768   0.27821   0.00000  Uiso   1.00
O550   O     0.14581   0.92803   0.26767   0.00000  Uiso   1.00
O551   O     0.07452   0.79917   0.23607   0.00000  Uiso   1.00
O552   O     0.26785   0.85845   0.21806   0.00000  Uiso   1.00
O553   O     0.06990   0.85627   0.27820   0.00000  Uiso   1.00
O554   O     0.25440   0.81944   0.26768   0.00000  Uiso   1.00
O555   O     0.13800   0.73570   0.23607   0.00000  Uiso   1.00
O556   O     0.20437   0.92193   0.21806   0.00000  Uiso   1.00
Zn557  Zn    0.19244   0.80756   0.28278   0.00000  Uiso   1.00
Zn558  Zn    0.13459   0.79044   0.22258   0.00000  Uiso   1.00
Zn559  Zn    0.21166   0.86331   0.21188   0.00000  Uiso   1.00
Zn560  Zn    0.12798   0.87202   0.28277   0.00000  Uiso   1.00
C561   C     0.38586   0.82661   0.25885   0.00000  Uiso   1.00
C562   C     0.53765   0.80098   0.45794   0.00000  Uiso   1.00
C563   C     0.56415   0.78892   0.47760   0.00000  Uiso   1.00
C564   C     0.61442   0.84023   0.24120   0.00000  Uiso   1.00
C565   C     0.55212   0.79193   0.01864   0.00000  Uiso   1.00
C566   C     0.51054   0.80324   0.04059   0.00000  Uiso   1.00
C567   C     0.58232   0.78540   0.03779   0.00000  Uiso   1.00
C568   C     0.57272   0.79124   0.07895   0.00000  Uiso   1.00
C569   C     0.50170   0.80958   0.08211   0.00000  Uiso   1.00
C570   C     0.66045   0.84287   0.23761   0.00000  Uiso   1.00
C571   C     0.34043   0.82437   0.26238   0.00000  Uiso   1.00
C572   C     0.42184   0.86561   0.42054   0.00000  Uiso   1.00
C573   C     0.51195   0.98815   0.23666   0.00000  Uiso   1.00
C574   C     0.48513   0.67991   0.26360   0.00000  Uiso   1.00
C575   C     0.48973   0.72311   0.25878   0.00000  Uiso   1.00
C576   C     0.50977   0.94424   0.24122   0.00000  Uiso   1.00
C577   C     0.52151   0.81228   0.14396   0.00000  Uiso   1.00
C578   C     0.47838   0.85391   0.35632   0.00000  Uiso   1.00
C579   C     0.46343   0.85568   0.39975   0.00000  Uiso   1.00
C580   C     0.53195   0.80318   0.10108   0.00000  Uiso   1.00
C581   C     0.40450   0.85904   0.46054   0.00000  Uiso   1.00
C582   C     0.53205   0.99305   0.16615   0.00000  Uiso   1.00
C583   C     0.48877   0.84117   0.41950   0.00000  Uiso   1.00
C584   C     0.45168   0.66703   0.30095   0.00000  Uiso   1.00
C585   C     0.59908   0.74934   0.11579   0.00000  Uiso   1.00
C586   C     0.35899   0.86945   0.48131   0.00000  Uiso   1.00
C587   C     0.40496   0.75570   0.07365   0.00000  Uiso   1.00
C588   C     0.47215   0.83246   0.45919   0.00000  Uiso   1.00
C589   C     0.42949   0.84177   0.47995   0.00000  Uiso   1.00
C590   C     0.49719   0.81523   0.47870   0.00000  Uiso   1.00
C591   C     0.48111   0.81142   0.02006   0.00000  Uiso   1.00
C592   C     0.43648   0.81590   0.03878   0.00000  Uiso   1.00
C593   C     0.41211   0.83220   0.01909   0.00000  Uiso   1.00
H594   H     0.37864   0.83602   0.03466   0.00000  Uiso   1.00
H595   H     0.55675   0.70070   0.20643   0.00000  Uiso   1.00
H596   H     0.50487   0.67689   0.16635   0.00000  Uiso   1.00
H597   H     0.52246   0.95922   0.16143   0.00000  Uiso   1.00
H598   H     0.56041   0.66811   0.14112   0.00000  Uiso   1.00
H599   H     0.43572   0.69396   0.31886   0.00000  Uiso   1.00
H600   H     0.42567   0.97767   0.29343   0.00000  Uiso   1.00
H601   H     0.46730   0.98734   0.31984   0.00000  Uiso   1.00
H602   H     0.63636   0.79367   0.08032   0.00000  Uiso   1.00
H603   H     0.60143   0.72236   0.09288   0.00000  Uiso   1.00
H604   H     0.56713   0.74599   0.13826   0.00000  Uiso   1.00
H605   H     0.61402   0.77688   0.02066   0.00000  Uiso   1.00
H606   H     0.62470   0.74975   0.13082   0.00000  Uiso   1.00
H607   H     0.34492   0.88341   0.46180   0.00000  Uiso   1.00
H608   H     0.33761   0.84088   0.49071   0.00000  Uiso   1.00
H609   H     0.35918   0.89211   0.00755   0.00000  Uiso   1.00
H610   H     0.38747   0.81511   0.09171   0.00000  Uiso   1.00
H611   H     0.38960   0.74625   0.10388   0.00000  Uiso   1.00
H612   H     0.43532   0.74073   0.06094   0.00000  Uiso   1.00
H613   H     0.38235   0.74484   0.05524   0.00000  Uiso   1.00
H614   H     0.35026   0.85988   0.21472   0.00000  Uiso   1.00
H615   H     0.65129   0.80732   0.28555   0.00000  Uiso   1.00
H616   H     0.47316   0.82299   0.10042   0.00000  Uiso   1.00
H617   H     0.59533   0.77911   0.46054   0.00000  Uiso   1.00
H618   H     0.40213   0.87673   0.40508   0.00000  Uiso   1.00
H619   H     0.52152   0.83664   0.40270   0.00000  Uiso   1.00
H620   H     0.54973   0.79808   0.42619   0.00000  Uiso   1.00
N621   N     0.54361   0.67032   0.20289   0.00000  Uiso   1.00
N622   N     0.60501   0.78741   0.09769   0.00000  Uiso   1.00
N623   N     0.41416   0.80034   0.07572   0.00000  Uiso   1.00
O624   O     0.50000   0.83333   0.25000   0.00000  Uiso   1.00
O625   O     0.49027   0.79060   0.16625   0.00000  Uiso   1.00
O626   O     0.46020   0.87313   0.33749   0.00000  Uiso   1.00
O627   O     0.54421   0.84159   0.15877   0.00000  Uiso   1.00
O628   O     0.50532   0.82802   0.33749   0.00000  Uiso   1.00
O629   O     0.51182   0.74768   0.27821   0.00000  Uiso   1.00
O630   O     0.47914   0.92803   0.26767   0.00000  Uiso   1.00
O631   O     0.40785   0.79917   0.23607   0.00000  Uiso   1.00
O632   O     0.60119   0.85845   0.21806   0.00000  Uiso   1.00
O633   O     0.40323   0.85627   0.27820   0.00000  Uiso   1.00
O634   O     0.58773   0.81944   0.26768   0.00000  Uiso   1.00
O635   O     0.47133   0.73570   0.23607   0.00000  Uiso   1.00
O636   O     0.53771   0.92193   0.21806   0.00000  Uiso   1.00
Zn637  Zn    0.52577   0.80756   0.28278   0.00000  Uiso   1.00
Zn638  Zn    0.46792   0.79044   0.22258   0.00000  Uiso   1.00
Zn639  Zn    0.54500   0.86331   0.21188   0.00000  Uiso   1.00
Zn640  Zn    0.46131   0.87202   0.28277   0.00000  Uiso   1.00
C641   C     0.71919   0.82661   0.25885   0.00000  Uiso   1.00
C642   C     0.87099   0.80098   0.45794   0.00000  Uiso   1.00
C643   C     0.89748   0.78892   0.47760   0.00000  Uiso   1.00
C644   C     0.94776   0.84023   0.24120   0.00000  Uiso   1.00
C645   C     0.88546   0.79193   0.01864   0.00000  Uiso   1.00
C646   C     0.84387   0.80324   0.04059   0.00000  Uiso   1.00
C647   C     0.91566   0.78540   0.03779   0.00000  Uiso   1.00
C648   C     0.90605   0.79124   0.07895   0.00000  Uiso   1.00
C649   C     0.83504   0.80958   0.08211   0.00000  Uiso   1.00
C650   C     0.99378   0.84287   0.23761   0.00000  Uiso   1.00
C651   C     0.67376   0.82437   0.26238   0.00000  Uiso   1.00
C652   C     0.75518   0.86561   0.42054   0.00000  Uiso   1.00
C653   C     0.84529   0.98815   0.23666   0.00000  Uiso   1.00
C654   C     0.81846   0.67991   0.26360   0.00000  Uiso   1.00
C655   C     0.82306   0.72311   0.25878   0.00000  Uiso   1.00
C656   C     0.84310   0.94424   0.24122   0.00000  Uiso   1.00
C657   C     0.85484   0.81228   0.14396   0.00000  Uiso   1.00
C658   C     0.81172   0.85391   0.35632   0.00000  Uiso   1.00
C659   C     0.79676   0.85568   0.39975   0.00000  Uiso   1.00
C660   C     0.86528   0.80318   0.10108   0.00000  Uiso   1.00
C661   C     0.73783   0.85904   0.46054   0.00000  Uiso   1.00
C662   C     0.86538   0.99305   0.16615   0.00000  Uiso   1.00
C663   C     0.82210   0.84117   0.41950   0.00000  Uiso   1.00
C664   C     0.78501   0.66703   0.30095   0.00000  Uiso   1.00
C665   C     0.93241   0.74934   0.11579   0.00000  Uiso   1.00
C666   C     0.69232   0.86945   0.48131   0.00000  Uiso   1.00
C667   C     0.73830   0.75570   0.07365   0.00000  Uiso   1.00
C668   C     0.80548   0.83246   0.45919   0.00000  Uiso   1.00
C669   C     0.76282   0.84177   0.47995   0.00000  Uiso   1.00
C670   C     0.83052   0.81523   0.47870   0.00000  Uiso   1.00
C671   C     0.81444   0.81142   0.02006   0.00000  Uiso   1.00
C672   C     0.76982   0.81590   0.03878   0.00000  Uiso   1.00
C673   C     0.74544   0.83220   0.01909   0.00000  Uiso   1.00
H674   H     0.71197   0.83602   0.03466   0.00000  Uiso   1.00
H675   H     0.89008   0.70070   0.20643   0.00000  Uiso   1.00
H676   H     0.83821   0.67689   0.16635   0.00000  Uiso   1.00
H677   H     0.85579   0.95922   0.16143   0.00000  Uiso   1.00
H678   H     0.89375   0.66811   0.14112   0.00000  Uiso   1.00
H679   H     0.76905   0.69396   0.31886   0.00000  Uiso   1.00
H680   H     0.75900   0.97767   0.29343   0.00000  Uiso   1.00
H681   H     0.80064   0.98734   0.31984   0.00000  Uiso   1.00
H682   H     0.96969   0.79367   0.08032   0.00000  Uiso   1.00
H683   H     0.93477   0.72236   0.09288   0.00000  Uiso   1.00
H684   H     0.90046   0.74599   0.13826   0.00000  Uiso   1.00
H685   H     0.94735   0.77688   0.02066   0.00000  Uiso   1.00
H686   H     0.95804   0.74975   0.13082   0.00000  Uiso   1.00
H687   H     0.67826   0.88341   0.46180   0.00000  Uiso   1.00
H688   H     0.67094   0.84088   0.49071   0.00000  Uiso   1.00
H689   H     0.69252   0.89211   0.00755   0.00000  Uiso   1.00
H690   H     0.72080   0.81511   0.09171   0.00000  Uiso   1.00
H691   H     0.72293   0.74625   0.10388   0.00000  Uiso   1.00
H692   H     0.76865   0.74073   0.06094   0.00000  Uiso   1.00
H693   H     0.71569   0.74484   0.05524   0.00000  Uiso   1.00
H694   H     0.68360   0.85988   0.21472   0.00000  Uiso   1.00
H695   H     0.98463   0.80732   0.28555   0.00000  Uiso   1.00
H696   H     0.80649   0.82299   0.10042   0.00000  Uiso   1.00
H697   H     0.92866   0.77911   0.46054   0.00000  Uiso   1.00
H698   H     0.73546   0.87673   0.40508   0.00000  Uiso   1.00
H699   H     0.85486   0.83664   0.40270   0.00000  Uiso   1.00
H700   H     0.88306   0.79808   0.42619   0.00000  Uiso   1.00
N701   N     0.87695   0.67032   0.20289   0.00000  Uiso   1.00
N702   N     0.93834   0.78741   0.09769   0.00000  Uiso   1.00
N703   N     0.74749   0.80034   0.07572   0.00000  Uiso   1.00
O704   O     0.83333   0.83333   0.25000   0.00000  Uiso   1.00
O705   O     0.82360   0.79060   0.16625   0.00000  Uiso   1.00
O706   O     0.79354   0.87313   0.33749   0.00000  Uiso   1.00
O707   O     0.87755   0.84159   0.15877   0.00000  Uiso   1.00
O708   O     0.83865   0.82802   0.33749   0.00000  Uiso   1.00
O709   O     0.84515   0.74768   0.27821   0.00000  Uiso   1.00
O710   O     0.81247   0.92803   0.26767   0.00000  Uiso   1.00
O711   O     0.74119   0.79917   0.23607   0.00000  Uiso   1.00
O712   O     0.93452   0.85845   0.21806   0.00000  Uiso   1.00
O713   O     0.73656   0.85627   0.27820   0.00000  Uiso   1.00
O714   O     0.92106   0.81944   0.26768   0.00000  Uiso   1.00
O715   O     0.80467   0.73570   0.23607   0.00000  Uiso   1.00
O716   O     0.87104   0.92193   0.21806   0.00000  Uiso   1.00
Zn717  Zn    0.85910   0.80756   0.28278   0.00000  Uiso   1.00
Zn718  Zn    0.80125   0.79044   0.22258   0.00000  Uiso   1.00
Zn719  Zn    0.87833   0.86331   0.21188   0.00000  Uiso   1.00
Zn720  Zn    0.79465   0.87202   0.28277   0.00000  Uiso   1.00
C721   C     0.05253   0.15994   0.75885   0.00000  Uiso   1.00
C722   C     0.20432   0.13431   0.95794   0.00000  Uiso   1.00
C723   C     0.23082   0.12225   0.97760   0.00000  Uiso   1.00
C724   C     0.28109   0.17356   0.74120   0.00000  Uiso   1.00
C725   C     0.21879   0.12527   0.51864   0.00000  Uiso   1.00
C726   C     0.17720   0.13657   0.54059   0.00000  Uiso   1.00
C727   C     0.24899   0.11874   0.53779   0.00000  Uiso   1.00
C728   C     0.23938   0.12458   0.57895   0.00000  Uiso   1.00
C729   C     0.16837   0.14291   0.58211   0.00000  Uiso   1.00
C730   C     0.32712   0.17621   0.73761   0.00000  Uiso   1.00
C731   C     0.00710   0.15770   0.76238   0.00000  Uiso   1.00
C732   C     0.08851   0.19894   0.92054   0.00000  Uiso   1.00
C733   C     0.17862   0.32148   0.73666   0.00000  Uiso   1.00
C734   C     0.15180   0.01324   0.76360   0.00000  Uiso   1.00
C735   C     0.15640   0.05645   0.75878   0.00000  Uiso   1.00
C736   C     0.17643   0.27757   0.74122   0.00000  Uiso   1.00
C737   C     0.18818   0.14561   0.64396   0.00000  Uiso   1.00
C738   C     0.14505   0.18725   0.85632   0.00000  Uiso   1.00
C739   C     0.13010   0.18902   0.89975   0.00000  Uiso   1.00
C740   C     0.19862   0.13652   0.60108   0.00000  Uiso   1.00
C741   C     0.07117   0.19238   0.96054   0.00000  Uiso   1.00
C742   C     0.19871   0.32638   0.66615   0.00000  Uiso   1.00
C743   C     0.15543   0.17450   0.91950   0.00000  Uiso   1.00
C744   C     0.11834   0.00036   0.80095   0.00000  Uiso   1.00
C745   C     0.26575   0.08267   0.61579   0.00000  Uiso   1.00
C746   C     0.02566   0.20278   0.98131   0.00000  Uiso   1.00
C747   C     0.07163   0.08903   0.57365   0.00000  Uiso   1.00
C748   C     0.13882   0.16580   0.95919   0.00000  Uiso   1.00
C749   C     0.09615   0.17511   0.97995   0.00000  Uiso   1.00
C750   C     0.16385   0.14856   0.97870   0.00000  Uiso   1.00
C751   C     0.14777   0.14475   0.52006   0.00000  Uiso   1.00
C752   C     0.10315   0.14923   0.53878   0.00000  Uiso   1.00
C753   C     0.07878   0.16553   0.51909   0.00000  Uiso   1.00
H754   H     0.04530   0.16936   0.53466   0.00000  Uiso   1.00
H755   H     0.22342   0.03404   0.70643   0.00000  Uiso   1.00
H756   H     0.17154   0.01022   0.66635   0.00000  Uiso   1.00
H757   H     0.18913   0.29255   0.66143   0.00000  Uiso   1.00
H758   H     0.22708   0.00144   0.64112   0.00000  Uiso   1.00
H759   H     0.10238   0.02729   0.81886   0.00000  Uiso   1.00
H760   H     0.09233   0.31101   0.79343   0.00000  Uiso   1.00
H761   H     0.13397   0.32068   0.81984   0.00000  Uiso   1.00
H762   H     0.30303   0.12700   0.58032   0.00000  Uiso   1.00
H763   H     0.26810   0.05569   0.59288   0.00000  Uiso   1.00
H764   H     0.23379   0.07932   0.63826   0.00000  Uiso   1.00
H765   H     0.28068   0.11021   0.52066   0.00000  Uiso   1.00
H766   H     0.29137   0.08309   0.63082   0.00000  Uiso   1.00
H767   H     0.01159   0.21675   0.96180   0.00000  Uiso   1.00
H768   H     0.00428   0.17421   0.99071   0.00000  Uiso   1.00
H769   H     0.02585   0.22545   0.50755   0.00000  Uiso   1.00
H770   H     0.05414   0.14845   0.59171   0.00000  Uiso   1.00
H771   H     0.05627   0.07958   0.60388   0.00000  Uiso   1.00
H772   H     0.10199   0.07406   0.56094   0.00000  Uiso   1.00
H773   H     0.04902   0.07818   0.55524   0.00000  Uiso   1.00
H774   H     0.01693   0.19321   0.71472   0.00000  Uiso   1.00
H775   H     0.31796   0.14066   0.78555   0.00000  Uiso   1.00
H776   H     0.13983   0.15632   0.60042   0.00000  Uiso   1.00
H777   H     0.26199   0.11245   0.96054   0.00000  Uiso   1.00
H778   H     0.06880   0.21007   0.90508   0.00000  Uiso   1.00
H779   H     0.18819   0.16998   0.90270   0.00000  Uiso   1.00
H780   H     0.21640   0.13141   0.92619   0.00000  Uiso   1.00
N781   N     0.21028   0.00365   0.70289   0.00000  Uiso   1.00
N782   N     0.27168   0.12074   0.59769   0.00000  Uiso   1.00
N783   N     0.08083   0.13367   0.57572   0.00000  Uiso   1.00
O784   O     0.16667   0.16667   0.75000   0.00000  Uiso   1.00
O785   O     0.15693   0.12393   0.66625   0.00000  Uiso   1.00
O786   O     0.12687   0.20646   0.83749   0.00000  Uiso   1.00
O787   O     0.21088   0.17493   0.65877   0.00000  Uiso   1.00
O788   O     0.17198   0.16135   0.83749   0.00000  Uiso   1.00
O789   O     0.17849   0.08101   0.77821   0.00000  Uiso   1.00
O790   O     0.14581   0.26136   0.76767   0.00000  Uiso   1.00
O791   O     0.07452   0.13251   0.73607   0.00000  Uiso   1.00
O792   O     0.26785   0.19179   0.71806   0.00000  Uiso   1.00
O793   O     0.06990   0.18960   0.77820   0.00000  Uiso   1.00
O794   O     0.25440   0.15277   0.76768   0.00000  Uiso   1.00
O795   O     0.13800   0.06903   0.73607   0.00000  Uiso   1.00
O796   O     0.20437   0.25527   0.71806   0.00000  Uiso   1.00
Zn797  Zn    0.19244   0.14090   0.78278   0.00000  Uiso   1.00
Zn798  Zn    0.13459   0.12378   0.72258   0.00000  Uiso   1.00
Zn799  Zn    0.21166   0.19664   0.71188   0.00000  Uiso   1.00
Zn800  Zn    0.12798   0.20535   0.78277   0.00000  Uiso   1.00
C801   C     0.38586   0.15994   0.75885   0.00000  Uiso   1.00
C802   C     0.53765   0.13431   0.95794   0.00000  Uiso   1.00
C803   C     0.56415   0.12225   0.97760   0.00000  Uiso   1.00
C804   C     0.61442   0.17356   0.74120   0.00000  Uiso   1.00
C805   C     0.55212   0.12527   0.51864   0.00000  Uiso   1.00
C806   C     0.51054   0.13657   0.54059   0.00000  Uiso   1.00
C807   C     0.58232   0.11874   0.53779   0.00000  Uiso   1.00
C808   C     0.57272   0.12458   0.57895   0.00000  Uiso   1.00
C809   C     0.50170   0.14291   0.58211   0.00000  Uiso   1.00
C810   C     0.66045   0.17621   0.73761   0.00000  Uiso   1.00
C811   C     0.34043   0.15770   0.76238   0.00000  Uiso   1.00
C812   C     0.42184   0.19894   0.92054   0.00000  Uiso   1.00
C813   C     0.51195   0.32148   0.73666   0.00000  Uiso   1.00
C814   C     0.48513   0.01324   0.76360   0.00000  Uiso   1.00
C815   C     0.48973   0.05645   0.75878   0.00000  Uiso   1.00
C816   C     0.50977   0.27757   0.74122   0.00000  Uiso   1.00
C817   C     0.52151   0.14561   0.64396   0.00000  Uiso   1.00
C818   C     0.47838   0.18725   0.85632   0.00000  Uiso   1.00
C819   C     0.46343   0.18902   0.89975   0.00000  Uiso   1.00
C820   C     0.53195   0.13652   0.60108   0.00000  Uiso   1.00
C821   C     0.40450   0.19238   0.96054   0.00000  Uiso   1.00
C822   C     0.53205   0.32638   0.66615   0.00000  Uiso   1.00
C823   C     0.48877   0.17450   0.91950   0.00000  Uiso   1.00
C824   C     0.45168   0.00036   0.80095   0.00000  Uiso   1.00
C825   C     0.59908   0.08267   0.61579   0.00000  Uiso   1.00
C826   C     0.35899   0.20278   0.98131   0.00000  Uiso   1.00
C827   C     0.40496   0.08903   0.57365   0.00000  Uiso   1.00
C828   C     0.47215   0.16580   0.95919   0.00000  Uiso   1.00
C829   C     0.42949   0.17511   0.97995   0.00000  Uiso   1.00
C830   C     0.49719   0.14856   0.97870   0.00000  Uiso   1.00
C831   C     0.48111   0.14475   0.52006   0.00000  Uiso   1.00
C832   C     0.43648   0.14923   0.53878   0.00000  Uiso   1.00
C833   C     0.41211   0.16553   0.51909   0.00000  Uiso   1.00
H834   H     0.37864   0.16936   0.53466   0.00000  Uiso   1.00
H835   H     0.55675   0.03404   0.70643   0.00000  Uiso   1.00
H836   H     0.50487   0.01022   0.66635   0.00000  Uiso   1.00
H837   H     0.52246   0.29255   0.66143   0.00000  Uiso   1.00
H838   H     0.56041   0.00144   0.64112   0.00000  Uiso   1.00
H839   H     0.43572   0.02729   0.81886   0.00000  Uiso   1.00
H840   H     0.42567   0.31101   0.79343   0.00000  Uiso   1.00
H841   H     0.46730   0.32068   0.81984   0.00000  Uiso   1.00
H842   H     0.63636   0.12700   0.58032   0.00000  Uiso   1.00
H843   H     0.60143   0.05569   0.59288   0.00000  Uiso   1.00
H844   H     0.56713   0.07932   0.63826   0.00000  Uiso   1.00
H845   H     0.61402   0.11021   0.52066   0.00000  Uiso   1.00
H846   H     0.62470   0.08309   0.63082   0.00000  Uiso   1.00
H847   H     0.34492   0.21675   0.96180   0.00000  Uiso   1.00
H848   H     0.33761   0.17421   0.99071   0.00000  Uiso   1.00
H849   H     0.35918   0.22545   0.50755   0.00000  Uiso   1.00
H850   H     0.38747   0.14845   0.59171   0.00000  Uiso   1.00
H851   H     0.38960   0.07958   0.60388   0.00000  Uiso   1.00
H852   H     0.43532   0.07406   0.56094   0.00000  Uiso   1.00
H853   H     0.38235   0.07818   0.55524   0.00000  Uiso   1.00
H854   H     0.35026   0.19321   0.71472   0.00000  Uiso   1.00
H855   H     0.65129   0.14066   0.78555   0.00000  Uiso   1.00
H856   H     0.47316   0.15632   0.60042   0.00000  Uiso   1.00
H857   H     0.59533   0.11245   0.96054   0.00000  Uiso   1.00
H858   H     0.40213   0.21007   0.90508   0.00000  Uiso   1.00
H859   H     0.52152   0.16998   0.90270   0.00000  Uiso   1.00
H860   H     0.54973   0.13141   0.92619   0.00000  Uiso   1.00
N861   N     0.54361   0.00365   0.70289   0.00000  Uiso   1.00
N862   N     0.60501   0.12074   0.59769   0.00000  Uiso   1.00
N863   N     0.41416   0.13367   0.57572   0.00000  Uiso   1.00
O864   O     0.50000   0.16667   0.75000   0.00000  Uiso   1.00
O865   O     0.49027   0.12393   0.66625   0.00000  Uiso   1.00
O866   O     0.46020   0.20646   0.83749   0.00000  Uiso   1.00
O867   O     0.54421   0.17493   0.65877   0.00000  Uiso   1.00
O868   O     0.50532   0.16135   0.83749   0.00000  Uiso   1.00
O869   O     0.51182   0.08101   0.77821   0.00000  Uiso   1.00
O870   O     0.47914   0.26136   0.76767   0.00000  Uiso   1.00
O871   O     0.40785   0.13251   0.73607   0.00000  Uiso   1.00
O872   O     0.60119   0.19179   0.71806   0.00000  Uiso   1.00
O873   O     0.40323   0.18960   0.77820   0.00000  Uiso   1.00
O874   O     0.58773   0.15277   0.76768   0.00000  Uiso   1.00
O875   O     0.47133   0.06903   0.73607   0.00000  Uiso   1.00
O876   O     0.53771   0.25527   0.71806   0.00000  Uiso   1.00
Zn877  Zn    0.52577   0.14090   0.78278   0.00000  Uiso   1.00
Zn878  Zn    0.46792   0.12378   0.72258   0.00000  Uiso   1.00
Zn879  Zn    0.54500   0.19664   0.71188   0.00000  Uiso   1.00
Zn880  Zn    0.46131   0.20535   0.78277   0.00000  Uiso   1.00
C881   C     0.71919   0.15994   0.75885   0.00000  Uiso   1.00
C882   C     0.87099   0.13431   0.95794   0.00000  Uiso   1.00
C883   C     0.89748   0.12225   0.97760   0.00000  Uiso   1.00
C884   C     0.94776   0.17356   0.74120   0.00000  Uiso   1.00
C885   C     0.88546   0.12527   0.51864   0.00000  Uiso   1.00
C886   C     0.84387   0.13657   0.54059   0.00000  Uiso   1.00
C887   C     0.91566   0.11874   0.53779   0.00000  Uiso   1.00
C888   C     0.90605   0.12458   0.57895   0.00000  Uiso   1.00
C889   C     0.83504   0.14291   0.58211   0.00000  Uiso   1.00
C890   C     0.99378   0.17621   0.73761   0.00000  Uiso   1.00
C891   C     0.67376   0.15770   0.76238   0.00000  Uiso   1.00
C892   C     0.75518   0.19894   0.92054   0.00000  Uiso   1.00
C893   C     0.84529   0.32148   0.73666   0.00000  Uiso   1.00
C894   C     0.81846   0.01324   0.76360   0.00000  Uiso   1.00
C895   C     0.82306   0.05645   0.75878   0.00000  Uiso   1.00
C896   C     0.84310   0.27757   0.74122   0.00000  Uiso   1.00
C897   C     0.85484   0.14561   0.64396   0.00000  Uiso   1.00
C898   C     0.81172   0.18725   0.85632   0.00000  Uiso   1.00
C899   C     0.79676   0.18902   0.89975   0.00000  Uiso   1.00
C900   C     0.86528   0.13652   0.60108   0.00000  Uiso   1.00
C901   C     0.73783   0.19238   0.96054   0.00000  Uiso   1.00
C902   C     0.86538   0.32638   0.66615   0.00000  Uiso   1.00
C903   C     0.82210   0.17450   0.91950   0.00000  Uiso   1.00
C904   C     0.78501   0.00036   0.80095   0.00000  Uiso   1.00
C905   C     0.93241   0.08267   0.61579   0.00000  Uiso   1.00
C906   C     0.69232   0.20278   0.98131   0.00000  Uiso   1.00
C907   C     0.73830   0.08903   0.57365   0.00000  Uiso   1.00
C908   C     0.80548   0.16580   0.95919   0.00000  Uiso   1.00
C909   C     0.76282   0.17511   0.97995   0.00000  Uiso   1.00
C910   C     0.83052   0.14856   0.97870   0.00000  Uiso   1.00
C911   C     0.81444   0.14475   0.52006   0.00000  Uiso   1.00
C912   C     0.76982   0.14923   0.53878   0.00000  Uiso   1.00
C913   C     0.74544   0.16553   0.51909   0.00000  Uiso   1.00
H914   H     0.71197   0.16936   0.53466   0.00000  Uiso   1.00
H915   H     0.89008   0.03404   0.70643   0.00000  Uiso   1.00
H916   H     0.83821   0.01022   0.66635   0.00000  Uiso   1.00
H917   H     0.85579   0.29255   0.66143   0.00000  Uiso   1.00
H918   H     0.89375   0.00144   0.64112   0.00000  Uiso   1.00
H919   H     0.76905   0.02729   0.81886   0.00000  Uiso   1.00
H920   H     0.75900   0.31101   0.79343   0.00000  Uiso   1.00
H921   H     0.80064   0.32068   0.81984   0.00000  Uiso   1.00
H922   H     0.96969   0.12700   0.58032   0.00000  Uiso   1.00
H923   H     0.93477   0.05569   0.59288   0.00000  Uiso   1.00
H924   H     0.90046   0.07932   0.63826   0.00000  Uiso   1.00
H925   H     0.94735   0.11021   0.52066   0.00000  Uiso   1.00
H926   H     0.95804   0.08309   0.63082   0.00000  Uiso   1.00
H927   H     0.67826   0.21675   0.96180   0.00000  Uiso   1.00
H928   H     0.67094   0.17421   0.99071   0.00000  Uiso   1.00
H929   H     0.69252   0.22545   0.50755   0.00000  Uiso   1.00
H930   H     0.72080   0.14845   0.59171   0.00000  Uiso   1.00
H931   H     0.72293   0.07958   0.60388   0.00000  Uiso   1.00
H932   H     0.76865   0.07406   0.56094   0.00000  Uiso   1.00
H933   H     0.71569   0.07818   0.55524   0.00000  Uiso   1.00
H934   H     0.68360   0.19321   0.71472   0.00000  Uiso   1.00
H935   H     0.98463   0.14066   0.78555   0.00000  Uiso   1.00
H936   H     0.80649   0.15632   0.60042   0.00000  Uiso   1.00
H937   H     0.92866   0.11245   0.96054   0.00000  Uiso   1.00
H938   H     0.73546   0.21007   0.90508   0.00000  Uiso   1.00
H939   H     0.85486   0.16998   0.90270   0.00000  Uiso   1.00
H940   H     0.88306   0.13141   0.92619   0.00000  Uiso   1.00
N941   N     0.87695   0.00365   0.70289   0.00000  Uiso   1.00
N942   N     0.93834   0.12074   0.59769   0.00000  Uiso   1.00
N943   N     0.74749   0.13367   0.57572   0.00000  Uiso   1.00
O944   O     0.83333   0.16667   0.75000   0.00000  Uiso   1.00
O945   O     0.82360   0.12393   0.66625   0.00000  Uiso   1.00
O946   O     0.79354   0.20646   0.83749   0.00000  Uiso   1.00
O947   O     0.87755   0.17493   0.65877   0.00000  Uiso   1.00
O948   O     0.83865   0.16135   0.83749   0.00000  Uiso   1.00
O949   O     0.84515   0.08101   0.77821   0.00000  Uiso   1.00
O950   O     0.81247   0.26136   0.76767   0.00000  Uiso   1.00
O951   O     0.74119   0.13251   0.73607   0.00000  Uiso   1.00
O952   O     0.93452   0.19179   0.71806   0.00000  Uiso   1.00
O953   O     0.73656   0.18960   0.77820   0.00000  Uiso   1.00
O954   O     0.92106   0.15277   0.76768   0.00000  Uiso   1.00
O955   O     0.80467   0.06903   0.73607   0.00000  Uiso   1.00
O956   O     0.87104   0.25527   0.71806   0.00000  Uiso   1.00
Zn957  Zn    0.85910   0.14090   0.78278   0.00000  Uiso   1.00
Zn958  Zn    0.80125   0.12378   0.72258   0.00000  Uiso   1.00
Zn959  Zn    0.87833   0.19664   0.71188   0.00000  Uiso   1.00
Zn960  Zn    0.79465   0.20535   0.78277   0.00000  Uiso   1.00
C961   C     0.05253   0.49327   0.75885   0.00000  Uiso   1.00
C962   C     0.20432   0.46765   0.95794   0.00000  Uiso   1.00
C963   C     0.23082   0.45559   0.97760   0.00000  Uiso   1.00
C964   C     0.28109   0.50690   0.74120   0.00000  Uiso   1.00
C965   C     0.21879   0.45860   0.51864   0.00000  Uiso   1.00
C966   C     0.17720   0.46990   0.54059   0.00000  Uiso   1.00
C967   C     0.24899   0.45207   0.53779   0.00000  Uiso   1.00
C968   C     0.23938   0.45791   0.57895   0.00000  Uiso   1.00
C969   C     0.16837   0.47625   0.58211   0.00000  Uiso   1.00
C970   C     0.32712   0.50954   0.73761   0.00000  Uiso   1.00
C971   C     0.00710   0.49103   0.76238   0.00000  Uiso   1.00
C972   C     0.08851   0.53227   0.92054   0.00000  Uiso   1.00
C973   C     0.17862   0.65481   0.73666   0.00000  Uiso   1.00
C974   C     0.15180   0.34657   0.76360   0.00000  Uiso   1.00
C975   C     0.15640   0.38978   0.75878   0.00000  Uiso   1.00
C976   C     0.17643   0.61091   0.74122   0.00000  Uiso   1.00
C977   C     0.18818   0.47894   0.64396   0.00000  Uiso   1.00
C978   C     0.14505   0.52058   0.85632   0.00000  Uiso   1.00
C979   C     0.13010   0.52235   0.89975   0.00000  Uiso   1.00
C980   C     0.19862   0.46985   0.60108   0.00000  Uiso   1.00
C981   C     0.07117   0.52571   0.96054   0.00000  Uiso   1.00
C982   C     0.19871   0.65971   0.66615   0.00000  Uiso   1.00
C983   C     0.15543   0.50783   0.91950   0.00000  Uiso   1.00
C984   C     0.11834   0.33370   0.80095   0.00000  Uiso   1.00
C985   C     0.26575   0.41601   0.61579   0.00000  Uiso   1.00
C986   C     0.02566   0.53612   0.98131   0.00000  Uiso   1.00
C987   C     0.07163   0.42236   0.57365   0.00000  Uiso   1.00
C988   C     0.13882   0.49913   0.95919   0.00000  Uiso   1.00
C989   C     0.09615   0.50844   0.97995   0.00000  Uiso   1.00
C990   C     0.16385   0.48189   0.97870   0.00000  Uiso   1.00
C991   C     0.14777   0.47808   0.52006   0.00000  Uiso   1.00
C992   C     0.10315   0.48256   0.53878   0.00000  Uiso   1.00
C993   C     0.07878   0.49886   0.51909   0.00000  Uiso   1.00
H994   H     0.04530   0.50269   0.53466   0.00000  Uiso   1.00
H995   H     0.22342   0.36737   0.70643   0.00000  Uiso   1.00
H996   H     0.17154   0.34355   0.66635   0.00000  Uiso   1.00
H997   H     0.18913   0.62588   0.66143   0.00000  Uiso   1.00
H998   H     0.22708   0.33478   0.64112   0.00000  Uiso   1.00
H999   H     0.10238   0.36062   0.81886   0.00000  Uiso   1.00
H1000  H     0.09233   0.64434   0.79343   0.00000  Uiso   1.00
H1001  H     0.13397   0.65401   0.81984   0.00000  Uiso   1.00
H1002  H     0.30303   0.46033   0.58032   0.00000  Uiso   1.00
H1003  H     0.26810   0.38903   0.59288   0.00000  Uiso   1.00
H1004  H     0.23379   0.41266   0.63826   0.00000  Uiso   1.00
H1005  H     0.28068   0.44354   0.52066   0.00000  Uiso   1.00
H1006  H     0.29137   0.41642   0.63082   0.00000  Uiso   1.00
H1007  H     0.01159   0.55008   0.96180   0.00000  Uiso   1.00
H1008  H     0.00428   0.50755   0.99071   0.00000  Uiso   1.00
H1009  H     0.02585   0.55878   0.50755   0.00000  Uiso   1.00
H1010  H     0.05414   0.48178   0.59171   0.00000  Uiso   1.00
H1011  H     0.05627   0.41292   0.60388   0.00000  Uiso   1.00
H1012  H     0.10199   0.40740   0.56094   0.00000  Uiso   1.00
H1013  H     0.04902   0.41151   0.55524   0.00000  Uiso   1.00
H1014  H     0.01693   0.52654   0.71472   0.00000  Uiso   1.00
H1015  H     0.31796   0.47399   0.78555   0.00000  Uiso   1.00
H1016  H     0.13983   0.48966   0.60042   0.00000  Uiso   1.00
H1017  H     0.26199   0.44578   0.96054   0.00000  Uiso   1.00
H1018  H     0.06880   0.54340   0.90508   0.00000  Uiso   1.00
H1019  H     0.18819   0.50331   0.90270   0.00000  Uiso   1.00
H1020  H     0.21640   0.46475   0.92619   0.00000  Uiso   1.00
N1021  N     0.21028   0.33699   0.70289   0.00000  Uiso   1.00
N1022  N     0.27168   0.45408   0.59769   0.00000  Uiso   1.00
N1023  N     0.08083   0.46700   0.57572   0.00000  Uiso   1.00
O1024  O     0.16667   0.50000   0.75000   0.00000  Uiso   1.00
O1025  O     0.15693   0.45726   0.66625   0.00000  Uiso   1.00
O1026  O     0.12687   0.53979   0.83749   0.00000  Uiso   1.00
O1027  O     0.21088   0.50826   0.65877   0.00000  Uiso   1.00
O1028  O     0.17198   0.49468   0.83749   0.00000  Uiso   1.00
O1029  O     0.17849   0.41434   0.77821   0.00000  Uiso   1.00
O1030  O     0.14581   0.59469   0.76767   0.00000  Uiso   1.00
O1031  O     0.07452   0.46584   0.73607   0.00000  Uiso   1.00
O1032  O     0.26785   0.52512   0.71806   0.00000  Uiso   1.00
O1033  O     0.06990   0.52293   0.77820   0.00000  Uiso   1.00
O1034  O     0.25440   0.48610   0.76768   0.00000  Uiso   1.00
O1035  O     0.13800   0.40236   0.73607   0.00000  Uiso   1.00
O1036  O     0.20437   0.58860   0.71806   0.00000  Uiso   1.00
Zn1037 Zn    0.19244   0.47423   0.78278   0.00000  Uiso   1.00
Zn1038 Zn    0.13459   0.45711   0.72258   0.00000  Uiso   1.00
Zn1039 Zn    0.21166   0.52997   0.71188   0.00000  Uiso   1.00
Zn1040 Zn    0.12798   0.53868   0.78277   0.00000  Uiso   1.00
C1041  C     0.38586   0.49327   0.75885   0.00000  Uiso   1.00
C1042  C     0.53765   0.46765   0.95794   0.00000  Uiso   1.00
C1043  C     0.56415   0.45559   0.97760   0.00000  Uiso   1.00
C1044  C     0.61442   0.50690   0.74120   0.00000  Uiso   1.00
C1045  C     0.55212   0.45860   0.51864   0.00000  Uiso   1.00
C1046  C     0.51054   0.46990   0.54059   0.00000  Uiso   1.00
C1047  C     0.58232   0.45207   0.53779   0.00000  Uiso   1.00
C1048  C     0.57272   0.45791   0.57895   0.00000  Uiso   1.00
C1049  C     0.50170   0.47625   0.58211   0.00000  Uiso   1.00
C1050  C     0.66045   0.50954   0.73761   0.00000  Uiso   1.00
C1051  C     0.34043   0.49103   0.76238   0.00000  Uiso   1.00
C1052  C     0.42184   0.53227   0.92054   0.00000  Uiso   1.00
C1053  C     0.51195   0.65481   0.73666   0.00000  Uiso   1.00
C1054  C     0.48513   0.34657   0.76360   0.00000  Uiso   1.00
C1055  C     0.48973   0.38978   0.75878   0.00000  Uiso   1.00
C1056  C     0.50977   0.61091   0.74122   0.00000  Uiso   1.00
C1057  C     0.52151   0.47894   0.64396   0.00000  Uiso   1.00
C1058  C     0.47838   0.52058   0.85632   0.00000  Uiso   1.00
C1059  C     0.46343   0.52235   0.89975   0.00000  Uiso   1.00
C1060  C     0.53195   0.46985   0.60108   0.00000  Uiso   1.00
C1061  C     0.40450   0.52571   0.96054   0.00000  Uiso   1.00
C1062  C     0.53205   0.65971   0.66615   0.00000  Uiso   1.00
C1063  C     0.48877   0.50783   0.91950   0.00000  Uiso   1.00
C1064  C     0.45168   0.33370   0.80095   0.00000  Uiso   1.00
C1065  C     0.59908   0.41601   0.61579   0.00000  Uiso   1.00
C1066  C     0.35899   0.53612   0.98131   0.00000  Uiso   1.00
C1067  C     0.40496   0.42236   0.57365   0.00000  Uiso   1.00
C1068  C     0.47215   0.49913   0.95919   0.00000  Uiso   1.00
C1069  C     0.42949   0.50844   0.97995   0.00000  Uiso   1.00
C1070  C     0.49719   0.48189   0.97870   0.00000  Uiso   1.00
C1071  C     0.48111   0.47808   0.52006   0.00000  Uiso   1.00
C1072  C     0.43648   0.48256   0.53878   0.00000  Uiso   1.00
C1073  C     0.41211   0.49886   0.51909   0.00000  Uiso   1.00
H1074  H     0.37864   0.50269   0.53466   0.00000  Uiso   1.00
H1075  H     0.55675   0.36737   0.70643   0.00000  Uiso   1.00
H1076  H     0.50487   0.34355   0.66635   0.00000  Uiso   1.00
H1077  H     0.52246   0.62588   0.66143   0.00000  Uiso   1.00
H1078  H     0.56041   0.33478   0.64112   0.00000  Uiso   1.00
H1079  H     0.43572   0.36062   0.81886   0.00000  Uiso   1.00
H1080  H     0.42567   0.64434   0.79343   0.00000  Uiso   1.00
H1081  H     0.46730   0.65401   0.81984   0.00000  Uiso   1.00
H1082  H     0.63636   0.46033   0.58032   0.00000  Uiso   1.00
H1083  H     0.60143   0.38903   0.59288   0.00000  Uiso   1.00
H1084  H     0.56713   0.41266   0.63826   0.00000  Uiso   1.00
H1085  H     0.61402   0.44354   0.52066   0.00000  Uiso   1.00
H1086  H     0.62470   0.41642   0.63082   0.00000  Uiso   1.00
H1087  H     0.34492   0.55008   0.96180   0.00000  Uiso   1.00
H1088  H     0.33761   0.50755   0.99071   0.00000  Uiso   1.00
H1089  H     0.35918   0.55878   0.50755   0.00000  Uiso   1.00
H1090  H     0.38747   0.48178   0.59171   0.00000  Uiso   1.00
H1091  H     0.38960   0.41292   0.60388   0.00000  Uiso   1.00
H1092  H     0.43532   0.40740   0.56094   0.00000  Uiso   1.00
H1093  H     0.38235   0.41151   0.55524   0.00000  Uiso   1.00
H1094  H     0.35026   0.52654   0.71472   0.00000  Uiso   1.00
H1095  H     0.65129   0.47399   0.78555   0.00000  Uiso   1.00
H1096  H     0.47316   0.48966   0.60042   0.00000  Uiso   1.00
H1097  H     0.59533   0.44578   0.96054   0.00000  Uiso   1.00
H1098  H     0.40213   0.54340   0.90508   0.00000  Uiso   1.00
H1099  H     0.52152   0.50331   0.90270   0.00000  Uiso   1.00
H1100  H     0.54973   0.46475   0.92619   0.00000  Uiso   1.00
N1101  N     0.54361   0.33699   0.70289   0.00000  Uiso   1.00
N1102  N     0.60501   0.45408   0.59769   0.00000  Uiso   1.00
N1103  N     0.41416   0.46700   0.57572   0.00000  Uiso   1.00
O1104  O     0.50000   0.50000   0.75000   0.00000  Uiso   1.00
O1105  O     0.49027   0.45726   0.66625   0.00000  Uiso   1.00
O1106  O     0.46020   0.53979   0.83749   0.00000  Uiso   1.00
O1107  O     0.54421   0.50826   0.65877   0.00000  Uiso   1.00
O1108  O     0.50532   0.49468   0.83749   0.00000  Uiso   1.00
O1109  O     0.51182   0.41434   0.77821   0.00000  Uiso   1.00
O1110  O     0.47914   0.59469   0.76767   0.00000  Uiso   1.00
O1111  O     0.40785   0.46584   0.73607   0.00000  Uiso   1.00
O1112  O     0.60119   0.52512   0.71806   0.00000  Uiso   1.00
O1113  O     0.40323   0.52293   0.77820   0.00000  Uiso   1.00
O1114  O     0.58773   0.48610   0.76768   0.00000  Uiso   1.00
O1115  O     0.47133   0.40236   0.73607   0.00000  Uiso   1.00
O1116  O     0.53771   0.58860   0.71806   0.00000  Uiso   1.00
Zn1117 Zn    0.52577   0.47423   0.78278   0.00000  Uiso   1.00
Zn1118 Zn    0.46792   0.45711   0.72258   0.00000  Uiso   1.00
Zn1119 Zn    0.54500   0.52997   0.71188   0.00000  Uiso   1.00
Zn1120 Zn    0.46131   0.53868   0.78277   0.00000  Uiso   1.00
C1121  C     0.71919   0.49327   0.75885   0.00000  Uiso   1.00
C1122  C     0.87099   0.46765   0.95794   0.00000  Uiso   1.00
C1123  C     0.89748   0.45559   0.97760   0.00000  Uiso   1.00
C1124  C     0.94776   0.50690   0.74120   0.00000  Uiso   1.00
C1125  C     0.88546   0.45860   0.51864   0.00000  Uiso   1.00
C1126  C     0.84387   0.46990   0.54059   0.00000  Uiso   1.00
C1127  C     0.91566   0.45207   0.53779   0.00000  Uiso   1.00
C1128  C     0.90605   0.45791   0.57895   0.00000  Uiso   1.00
C1129  C     0.83504   0.47625   0.58211   0.00000  Uiso   1.00
C1130  C     0.99378   0.50954   0.73761   0.00000  Uiso   1.00
C1131  C     0.67376   0.49103   0.76238   0.00000  Uiso   1.00
C1132  C     0.75518   0.53227   0.92054   0.00000  Uiso   1.00
C1133  C     0.84529   0.65481   0.73666   0.00000  Uiso   1.00
C1134  C     0.81846   0.34657   0.76360   0.00000  Uiso   1.00
C1135  C     0.82306   0.38978   0.75878   0.00000  Uiso   1.00
C1136  C     0.84310   0.61091   0.74122   0.00000  Uiso   1.00
C1137  C     0.85484   0.47894   0.64396   0.00000  Uiso   1.00
C1138  C     0.81172   0.52058   0.85632   0.00000  Uiso   1.00
C1139  C     0.79676   0.52235   0.89975   0.00000  Uiso   1.00
C1140  C     0.86528   0.46985   0.60108   0.00000  Uiso   1.00
C1141  C     0.73783   0.52571   0.96054   0.00000  Uiso   1.00
C1142  C     0.86538   0.65971   0.66615   0.00000  Uiso   1.00
C1143  C     0.82210   0.50783   0.91950   0.00000  Uiso   1.00
C1144  C     0.78501   0.33370   0.80095   0.00000  Uiso   1.00
C1145  C     0.93241   0.41601   0.61579   0.00000  Uiso   1.00
C1146  C     0.69232   0.53612   0.98131   0.00000  Uiso   1.00
C1147  C     0.73830   0.42236   0.57365   0.00000  Uiso   1.00
C1148  C     0.80548   0.49913   0.95919   0.00000  Uiso   1.00
C1149  C     0.76282   0.50844   0.97995   0.00000  Uiso   1.00
C1150  C     0.83052   0.48189   0.97870   0.00000  Uiso   1.00
C1151  C     0.81444   0.47808   0.52006   0.00000  Uiso   1.00
C1152  C     0.76982   0.48256   0.53878   0.00000  Uiso   1.00
C1153  C     0.74544   0.49886   0.51909   0.00000  Uiso   1.00
H1154  H     0.71197   0.50269   0.53466   0.00000  Uiso   1.00
H1155  H     0.89008   0.36737   0.70643   0.00000  Uiso   1.00
H1156  H     0.83821   0.34355   0.66635   0.00000  Uiso   1.00
H1157  H     0.85579   0.62588   0.66143   0.00000  Uiso   1.00
H1158  H     0.89375   0.33478   0.64112   0.00000  Uiso   1.00
H1159  H     0.76905   0.36062   0.81886   0.00000  Uiso   1.00
H1160  H     0.75900   0.64434   0.79343   0.00000  Uiso   1.00
H1161  H     0.80064   0.65401   0.81984   0.00000  Uiso   1.00
H1162  H     0.96969   0.46033   0.58032   0.00000  Uiso   1.00
H1163  H     0.93477   0.38903   0.59288   0.00000  Uiso   1.00
H1164  H     0.90046   0.41266   0.63826   0.00000  Uiso   1.00
H1165  H     0.94735   0.44354   0.52066   0.00000  Uiso   1.00
H1166  H     0.95804   0.41642   0.63082   0.00000  Uiso   1.00
H1167  H     0.67826   0.55008   0.96180   0.00000  Uiso   1.00
H1168  H     0.67094   0.50755   0.99071   0.00000  Uiso   1.00
H1169  H     0.69252   0.55878   0.50755   0.00000  Uiso   1.00
H1170  H     0.72080   0.48178   0.59171   0.00000  Uiso   1.00
H1171  H     0.72293   0.41292   0.60388   0.00000  Uiso   1.00
H1172  H     0.76865   0.40740   0.56094   0.00000  Uiso   1.00
H1173  H     0.71569   0.41151   0.55524   0.00000  Uiso   1.00
H1174  H     0.68360   0.52654   0.71472   0.00000  Uiso   1.00
H1175  H     0.98463   0.47399   0.78555   0.00000  Uiso   1.00
H1176  H     0.80649   0.48966   0.60042   0.00000  Uiso   1.00
H1177  H     0.92866   0.44578   0.96054   0.00000  Uiso   1.00
H1178  H     0.73546   0.54340   0.90508   0.00000  Uiso   1.00
H1179  H     0.85486   0.50331   0.90270   0.00000  Uiso   1.00
H1180  H     0.88306   0.46475   0.92619   0.00000  Uiso   1.00
N1181  N     0.87695   0.33699   0.70289   0.00000  Uiso   1.00
N1182  N     0.93834   0.45408   0.59769   0.00000  Uiso   1.00
N1183  N     0.74749   0.46700   0.57572   0.00000  Uiso   1.00
O1184  O     0.83333   0.50000   0.75000   0.00000  Uiso   1.00
O1185  O     0.82360   0.45726   0.66625   0.00000  Uiso   1.00
O1186  O     0.79354   0.53979   0.83749   0.00000  Uiso   1.00
O1187  O     0.87755   0.50826   0.65877   0.00000  Uiso   1.00
O1188  O     0.83865   0.49468   0.83749   0.00000  Uiso   1.00
O1189  O     0.84515   0.41434   0.77821   0.00000  Uiso   1.00
O1190  O     0.81247   0.59469   0.76767   0.00000  Uiso   1.00
O1191  O     0.74119   0.46584   0.73607   0.00000  Uiso   1.00
O1192  O     0.93452   0.52512   0.71806   0.00000  Uiso   1.00
O1193  O     0.73656   0.52293   0.77820   0.00000  Uiso   1.00
O1194  O     0.92106   0.48610   0.76768   0.00000  Uiso   1.00
O1195  O     0.80467   0.40236   0.73607   0.00000  Uiso   1.00
O1196  O     0.87104   0.58860   0.71806   0.00000  Uiso   1.00
Zn1197 Zn    0.85910   0.47423   0.78278   0.00000  Uiso   1.00
Zn1198 Zn    0.80125   0.45711   0.72258   0.00000  Uiso   1.00
Zn1199 Zn    0.87833   0.52997   0.71188   0.00000  Uiso   1.00
Zn1200 Zn    0.79465   0.53868   0.78277   0.00000  Uiso   1.00
C1201  C     0.05253   0.82661   0.75885   0.00000  Uiso   1.00
C1202  C     0.20432   0.80098   0.95794   0.00000  Uiso   1.00
C1203  C     0.23082   0.78892   0.97760   0.00000  Uiso   1.00
C1204  C     0.28109   0.84023   0.74120   0.00000  Uiso   1.00
C1205  C     0.21879   0.79193   0.51864   0.00000  Uiso   1.00
C1206  C     0.17720   0.80324   0.54059   0.00000  Uiso   1.00
C1207  C     0.24899   0.78540   0.53779   0.00000  Uiso   1.00
C1208  C     0.23938   0.79124   0.57895   0.00000  Uiso   1.00
C1209  C     0.16837   0.80958   0.58211   0.00000  Uiso   1.00
C1210  C     0.32712   0.84287   0.73761   0.00000  Uiso   1.00
C1211  C     0.00710   0.82437   0.76238   0.00000  Uiso   1.00
C1212  C     0.08851   0.86561   0.92054   0.00000  Uiso   1.00
C1213  C     0.17862   0.98815   0.73666   0.00000  Uiso   1.00
C1214  C     0.15180   0.67991   0.76360   0.00000  Uiso   1.00
C1215  C     0.15640   0.72311   0.75878   0.00000  Uiso   1.00
C1216  C     0.17643   0.94424   0.74122   0.00000  Uiso   1.00
C1217  C     0.18818   0.81228   0.64396   0.00000  Uiso   1.00
C1218  C     0.14505   0.85391   0.85632   0.00000  Uiso   1.00
C1219  C     0.13010   0.85568   0.89975   0.00000  Uiso   1.00
C1220  C     0.19862   0.80318   0.60108   0.00000  Uiso   1.00
C1221  C     0.07117   0.85904   0.96054   0.00000  Uiso   1.00
C1222  C     0.19871   0.99305   0.66615   0.00000  Uiso   1.00
C1223  C     0.15543   0.84117   0.91950   0.00000  Uiso   1.00
C1224  C     0.11834   0.66703   0.80095   0.00000  Uiso   1.00
C1225  C     0.26575   0.74934   0.61579   0.00000  Uiso   1.00
C1226  C     0.02566   0.86945   0.98131   0.00000  Uiso   1.00
C1227  C     0.07163   0.75570   0.57365   0.00000  Uiso   1.00
C1228  C     0.13882   0.83246   0.95919   0.00000  Uiso   1.00
C1229  C     0.09615   0.84177   0.97995   0.00000  Uiso   1.00
C1230  C     0.16385   0.81523   0.97870   0.00000  Uiso   1.00
C1231  C     0.14777   0.81142   0.52006   0.00000  Uiso   1.00
C1232  C     0.10315   0.81590   0.53878   0.00000  Uiso   1.00
C1233  C     0.07878   0.83220   0.51909   0.00000  Uiso   1.00
H1234  H     0.04530   0.83602   0.53466   0.00000  Uiso   1.00
H1235  H     0.22342   0.70070   0.70643   0.00000  Uiso   1.00
H1236  H     0.17154   0.67689   0.66635   0.00000  Uiso   1.00
H1237  H     0.18913   0.95922   0.66143   0.00000  Uiso   1.00
H1238  H     0.22708   0.66811   0.64112   0.00000  Uiso   1.00
H1239  H     0.10238   0.69396   0.81886   0.00000  Uiso   1.00
H1240  H     0.09233   0.97767   0.79343   0.00000  Uiso   1.00
H1241  H     0.13397   0.98734   0.81984   0.00000  Uiso   1.00
H1242  H     0.30303   0.79367   0.58032   0.00000  Uiso   1.00
H1243  H     0.26810   0.72236   0.59288   0.00000  Uiso   1.00
H1244  H     0.23379   0.74599   0.63826   0.00000  Uiso   1.00
H1245  H     0.28068   0.77688   0.52066   0.00000  Uiso   1.00
H1246  H     0.29137   0.74975   0.63082   0.00000  Uiso   1.00
H1247  H     0.01159   0.88341   0.96180   0.00000  Uiso   1.00
H1248  H     0.00428   0.84088   0.99071   0.00000  Uiso   1.00
H1249  H     0.02585   0.89211   0.50755   0.00000  Uiso   1.00
H1250  H     0.05414   0.81511   0.59171   0.00000  Uiso   1.00
H1251  H     0.05627   0.74625   0.60388   0.00000  Uiso   1.00
H1252  H     0.10199   0.74073   0.56094   0.00000  Uiso   1.00
H1253  H     0.04902   0.74484   0.55524   0.00000  Uiso   1.00
H1254  H     0.01693   0.85988   0.71472   0.00000  Uiso   1.00
H1255  H     0.31796   0.80732   0.78555   0.00000  Uiso   1.00
H1256  H     0.13983   0.82299   0.60042   0.00000  Uiso   1.00
H1257  H     0.26199   0.77911   0.96054   0.00000  Uiso   1.00
H1258  H     0.06880   0.87673   0.90508   0.00000  Uiso   1.00
H1259  H     0.18819   0.83664   0.90270   0.00000  Uiso   1.00
H1260  H     0.21640   0.79808   0.92619   0.00000  Uiso   1.00
N1261  N     0.21028   0.67032   0.70289   0.00000  Uiso   1.00
N1262  N     0.27168   0.78741   0.59769   0.00000  Uiso   1.00
N1263  N     0.08083   0.80034   0.57572   0.00000  Uiso   1.00
O1264  O     0.16667   0.83333   0.75000   0.00000  Uiso   1.00
O1265  O     0.15693   0.79060   0.66625   0.00000  Uiso   1.00
O1266  O     0.12687   0.87313   0.83749   0.00000  Uiso   1.00
O1267  O     0.21088   0.84159   0.65877   0.00000  Uiso   1.00
O1268  O     0.17198   0.82802   0.83749   0.00000  Uiso   1.00
O1269  O     0.17849   0.74768   0.77821   0.00000  Uiso   1.00
O1270  O     0.14581   0.92803   0.76767   0.00000  Uiso   1.00
O1271  O     0.07452   0.79917   0.73607   0.00000  Uiso   1.00
O1272  O     0.26785   0.85845   0.71806   0.00000  Uiso   1.00
O1273  O     0.06990   0.85627   0.77820   0.00000  Uiso   1.00
O1274  O     0.25440   0.81944   0.76768   0.00000  Uiso   1.00
O1275  O     0.13800   0.73570   0.73607   0.00000  Uiso   1.00
O1276  O     0.20437   0.92193   0.71806   0.00000  Uiso   1.00
Zn1277 Zn    0.19244   0.80756   0.78278   0.00000  Uiso   1.00
Zn1278 Zn    0.13459   0.79044   0.72258   0.00000  Uiso   1.00
Zn1279 Zn    0.21166   0.86331   0.71188   0.00000  Uiso   1.00
Zn1280 Zn    0.12798   0.87202   0.78277   0.00000  Uiso   1.00
C1281  C     0.38586   0.82661   0.75885   0.00000  Uiso   1.00
C1282  C     0.53765   0.80098   0.95794   0.00000  Uiso   1.00
C1283  C     0.56415   0.78892   0.97760   0.00000  Uiso   1.00
C1284  C     0.61442   0.84023   0.74120   0.00000  Uiso   1.00
C1285  C     0.55212   0.79193   0.51864   0.00000  Uiso   1.00
C1286  C     0.51054   0.80324   0.54059   0.00000  Uiso   1.00
C1287  C     0.58232   0.78540   0.53779   0.00000  Uiso   1.00
C1288  C     0.57272   0.79124   0.57895   0.00000  Uiso   1.00
C1289  C     0.50170   0.80958   0.58211   0.00000  Uiso   1.00
C1290  C     0.66045   0.84287   0.73761   0.00000  Uiso   1.00
C1291  C     0.34043   0.82437   0.76238   0.00000  Uiso   1.00
C1292  C     0.42184   0.86561   0.92054   0.00000  Uiso   1.00
C1293  C     0.51195   0.98815   0.73666   0.00000  Uiso   1.00
C1294  C     0.48513   0.67991   0.76360   0.00000  Uiso   1.00
C1295  C     0.48973   0.72311   0.75878   0.00000  Uiso   1.00
C1296  C     0.50977   0.94424   0.74122   0.00000  Uiso   1.00
C1297  C     0.52151   0.81228   0.64396   0.00000  Uiso   1.00
C1298  C     0.47838   0.85391   0.85632   0.00000  Uiso   1.00
C1299  C     0.46343   0.85568   0.89975   0.00000  Uiso   1.00
C1300  C     0.53195   0.80318   0.60108   0.00000  Uiso   1.00
C1301  C     0.40450   0.85904   0.96054   0.00000  Uiso   1.00
C1302  C     0.53205   0.99305   0.66615   0.00000  Uiso   1.00
C1303  C     0.48877   0.84117   0.91950   0.00000  Uiso   1.00
C1304  C     0.45168   0.66703   0.80095   0.00000  Uiso   1.00
C1305  C     0.59908   0.74934   0.61579   0.00000  Uiso   1.00
C1306  C     0.35899   0.86945   0.98131   0.00000  Uiso   1.00
C1307  C     0.40496   0.75570   0.57365   0.00000  Uiso   1.00
C1308  C     0.47215   0.83246   0.95919   0.00000  Uiso   1.00
C1309  C     0.42949   0.84177   0.97995   0.00000  Uiso   1.00
C1310  C     0.49719   0.81523   0.97870   0.00000  Uiso   1.00
C1311  C     0.48111   0.81142   0.52006   0.00000  Uiso   1.00
C1312  C     0.43648   0.81590   0.53878   0.00000  Uiso   1.00
C1313  C     0.41211   0.83220   0.51909   0.00000  Uiso   1.00
H1314  H     0.37864   0.83602   0.53466   0.00000  Uiso   1.00
H1315  H     0.55675   0.70070   0.70643   0.00000  Uiso   1.00
H1316  H     0.50487   0.67689   0.66635   0.00000  Uiso   1.00
H1317  H     0.52246   0.95922   0.66143   0.00000  Uiso   1.00
H1318  H     0.56041   0.66811   0.64112   0.00000  Uiso   1.00
H1319  H     0.43572   0.69396   0.81886   0.00000  Uiso   1.00
H1320  H     0.42567   0.97767   0.79343   0.00000  Uiso   1.00
H1321  H     0.46730   0.98734   0.81984   0.00000  Uiso   1.00
H1322  H     0.63636   0.79367   0.58032   0.00000  Uiso   1.00
H1323  H     0.60143   0.72236   0.59288   0.00000  Uiso   1.00
H1324  H     0.56713   0.74599   0.63826   0.00000  Uiso   1.00
H1325  H     0.61402   0.77688   0.52066   0.00000  Uiso   1.00
H1326  H     0.62470   0.74975   0.63082   0.00000  Uiso   1.00
H1327  H     0.34492   0.88341   0.96180   0.00000  Uiso   1.00
H1328  H     0.33761   0.84088   0.99071   0.00000  Uiso   1.00
H1329  H     0.35918   0.89211   0.50755   0.00000  Uiso   1.00
H1330  H     0.38747   0.81511   0.59171   0.00000  Uiso   1.00
H1331  H     0.38960   0.74625   0.60388   0.00000  Uiso   1.00
H1332  H     0.43532   0.74073   0.56094   0.00000  Uiso   1.00
H1333  H     0.38235   0.74484   0.55524   0.00000  Uiso   1.00
H1334  H     0.35026   0.85988   0.71472   0.00000  Uiso   1.00
H1335  H     0.65129   0.80732   0.78555   0.00000  Uiso   1.00
H1336  H     0.47316   0.82299   0.60042   0.00000  Uiso   1.00
H1337  H     0.59533   0.77911   0.96054   0.00000  Uiso   1.00
H1338  H     0.40213   0.87673   0.90508   0.00000  Uiso   1.00
H1339  H     0.52152   0.83664   0.90270   0.00000  Uiso   1.00
H1340  H     0.54973   0.79808   0.92619   0.00000  Uiso   1.00
N1341  N     0.54361   0.67032   0.70289   0.00000  Uiso   1.00
N1342  N     0.60501   0.78741   0.59769   0.00000  Uiso   1.00
N1343  N     0.41416   0.80034   0.57572   0.00000  Uiso   1.00
O1344  O     0.50000   0.83333   0.75000   0.00000  Uiso   1.00
O1345  O     0.49027   0.79060   0.66625   0.00000  Uiso   1.00
O1346  O     0.46020   0.87313   0.83749   0.00000  Uiso   1.00
O1347  O     0.54421   0.84159   0.65877   0.00000  Uiso   1.00
O1348  O     0.50532   0.82802   0.83749   0.00000  Uiso   1.00
O1349  O     0.51182   0.74768   0.77821   0.00000  Uiso   1.00
O1350  O     0.47914   0.92803   0.76767   0.00000  Uiso   1.00
O1351  O     0.40785   0.79917   0.73607   0.00000  Uiso   1.00
O1352  O     0.60119   0.85845   0.71806   0.00000  Uiso   1.00
O1353  O     0.40323   0.85627   0.77820   0.00000  Uiso   1.00
O1354  O     0.58773   0.81944   0.76768   0.00000  Uiso   1.00
O1355  O     0.47133   0.73570   0.73607   0.00000  Uiso   1.00
O1356  O     0.53771   0.92193   0.71806   0.00000  Uiso   1.00
Zn1357 Zn    0.52577   0.80756   0.78278   0.00000  Uiso   1.00
Zn1358 Zn    0.46792   0.79044   0.72258   0.00000  Uiso   1.00
Zn1359 Zn    0.54500   0.86331   0.71188   0.00000  Uiso   1.00
Zn1360 Zn    0.46131   0.87202   0.78277   0.00000  Uiso   1.00
C1361  C     0.71919   0.82661   0.75885   0.00000  Uiso   1.00
C1362  C     0.87099   0.80098   0.95794   0.00000  Uiso   1.00
C1363  C     0.89748   0.78892   0.97760   0.00000  Uiso   1.00
C1364  C     0.94776   0.84023   0.74120   0.00000  Uiso   1.00
C1365  C     0.88546   0.79193   0.51864   0.00000  Uiso   1.00
C1366  C     0.84387   0.80324   0.54059   0.00000  Uiso   1.00
C1367  C     0.91566   0.78540   0.53779   0.00000  Uiso   1.00
C1368  C     0.90605   0.79124   0.57895   0.00000  Uiso   1.00
C1369  C     0.83504   0.80958   0.58211   0.00000  Uiso   1.00
C1370  C     0.99378   0.84287   0.73761   0.00000  Uiso   1.00
C1371  C     0.67376   0.82437   0.76238   0.00000  Uiso   1.00
C1372  C     0.75518   0.86561   0.92054   0.00000  Uiso   1.00
C1373  C     0.84529   0.98815   0.73666   0.00000  Uiso   1.00
C1374  C     0.81846   0.67991   0.76360   0.00000  Uiso   1.00
C1375  C     0.82306   0.72311   0.75878   0.00000  Uiso   1.00
C1376  C     0.84310   0.94424   0.74122   0.00000  Uiso   1.00
C1377  C     0.85484   0.81228   0.64396   0.00000  Uiso   1.00
C1378  C     0.81172   0.85391   0.85632   0.00000  Uiso   1.00
C1379  C     0.79676   0.85568   0.89975   0.00000  Uiso   1.00
C1380  C     0.86528   0.80318   0.60108   0.00000  Uiso   1.00
C1381  C     0.73783   0.85904   0.96054   0.00000  Uiso   1.00
C1382  C     0.86538   0.99305   0.66615   0.00000  Uiso   1.00
C1383  C     0.82210   0.84117   0.91950   0.00000  Uiso   1.00
C1384  C     0.78501   0.66703   0.80095   0.00000  Uiso   1.00
C1385  C     0.93241   0.74934   0.61579   0.00000  Uiso   1.00
C1386  C     0.69232   0.86945   0.98131   0.00000  Uiso   1.00
C1387  C     0.73830   0.75570   0.57365   0.00000  Uiso   1.00
C1388  C     0.80548   0.83246   0.95919   0.00000  Uiso   1.00
C1389  C     0.76282   0.84177   0.97995   0.00000  Uiso   1.00
C1390  C     0.83052   0.81523   0.97870   0.00000  Uiso   1.00
C1391  C     0.81444   0.81142   0.52006   0.00000  Uiso   1.00
C1392  C     0.76982   0.81590   0.53878   0.00000  Uiso   1.00
C1393  C     0.74544   0.83220   0.51909   0.00000  Uiso   1.00
H1394  H     0.71197   0.83602   0.53466   0.00000  Uiso   1.00
H1395  H     0.89008   0.70070   0.70643   0.00000  Uiso   1.00
H1396  H     0.83821   0.67689   0.66635   0.00000  Uiso   1.00
H1397  H     0.85579   0.95922   0.66143   0.00000  Uiso   1.00
H1398  H     0.89375   0.66811   0.64112   0.00000  Uiso   1.00
H1399  H     0.76905   0.69396   0.81886   0.00000  Uiso   1.00
H1400  H     0.75900   0.97767   0.79343   0.00000  Uiso   1.00
H1401  H     0.80064   0.98734   0.81984   0.00000  Uiso   1.00
H1402  H     0.96969   0.79367   0.58032   0.00000  Uiso   1.00
H1403  H     0.93477   0.72236   0.59288   0.00000  Uiso   1.00
H1404  H     0.90046   0.74599   0.63826   0.00000  Uiso   1.00
H1405  H     0.94735   0.77688   0.52066   0.00000  Uiso   1.00
H1406  H     0.95804   0.74975   0.63082   0.00000  Uiso   1.00
H1407  H     0.67826   0.88341   0.96180   0.00000  Uiso   1.00
H1408  H     0.67094   0.84088   0.99071   0.00000  Uiso   1.00
H1409  H     0.69252   0.89211   0.50755   0.00000  Uiso   1.00
H1410  H     0.72080   0.81511   0.59171   0.00000  Uiso   1.00
H1411  H     0.72293   0.74625   0.60388   0.00000  Uiso   1.00
H1412  H     0.76865   0.74073   0.56094   0.00000  Uiso   1.00
H1413  H     0.71569   0.74484   0.55524   0.00000  Uiso   1.00
H1414  H     0.68360   0.85988   0.71472   0.00000  Uiso   1.00
H1415  H     0.98463   0.80732   0.78555   0.00000  Uiso   1.00
H1416  H     0.80649   0.82299   0.60042   0.00000  Uiso   1.00
H1417  H     0.92866   0.77911   0.96054   0.00000  Uiso   1.00
H1418  H     0.73546   0.87673   0.90508   0.00000  Uiso   1.00
H1419  H     0.85486   0.83664   0.90270   0.00000  Uiso   1.00
H1420  H     0.88306   0.79808   0.92619   0.00000  Uiso   1.00
N1421  N     0.87695   0.67032   0.70289   0.00000  Uiso   1.00
N1422  N     0.93834   0.78741   0.59769   0.00000  Uiso   1.00
N1423  N     0.74749   0.80034   0.57572   0.00000  Uiso   1.00
O1424  O     0.83333   0.83333   0.75000   0.00000  Uiso   1.00
O1425  O     0.82360   0.79060   0.66625   0.00000  Uiso   1.00
O1426  O     0.79354   0.87313   0.83749   0.00000  Uiso   1.00
O1427  O     0.87755   0.84159   0.65877   0.00000  Uiso   1.00
O1428  O     0.83865   0.82802   0.83749   0.00000  Uiso   1.00
O1429  O     0.84515   0.74768   0.77821   0.00000  Uiso   1.00
O1430  O     0.81247   0.92803   0.76767   0.00000  Uiso   1.00
O1431  O     0.74119   0.79917   0.73607   0.00000  Uiso   1.00
O1432  O     0.93452   0.85845   0.71806   0.00000  Uiso   1.00
O1433  O     0.73656   0.85627   0.77820   0.00000  Uiso   1.00
O1434  O     0.92106   0.81944   0.76768   0.00000  Uiso   1.00
O1435  O     0.80467   0.73570   0.73607   0.00000  Uiso   1.00
O1436  O     0.87104   0.92193   0.71806   0.00000  Uiso   1.00
Zn1437 Zn    0.85910   0.80756   0.78278   0.00000  Uiso   1.00
Zn1438 Zn    0.80125   0.79044   0.72258   0.00000  Uiso   1.00
Zn1439 Zn    0.87833   0.86331   0.71188   0.00000  Uiso   1.00
Zn1440 Zn    0.79465   0.87202   0.78277   0.00000  Uiso   1.00
loop_
_geom_bond_atom_site_label_1
_geom_bond_atom_site_label_2
_geom_bond_distance
_geom_bond_site_symmetry_2
_ccdc_geom_bond_type
C1     C11     1.435   .     S
C1     O71     1.273   .     A
C1     O73     1.273   .     A
C2     H60     1.077   .     S
C2     C30     1.415   .     A
C2     C3      1.383   .     A
C3     H57     1.085   .     S
C3     C725    1.389   .     S
C4     O74     1.277   .     A
C4     C10     1.453   .     S
C4     O72     1.280   .     A
C5     C7      1.401   .     A
C5     C6      1.420   .     A
C5     C723    1.389   1_554 S
C6     C9      1.410   .     A
C6     C31     1.434   .     A
C7     H45     1.085   .     S
C7     C8      1.396   .     A
C8     C20     1.406   .     A
C8     N62     1.425   .     S
C9     C20     1.397   .     A
C9     H56     1.078   .     S
C10    C91     1.334   .     S
C10    H134    1.088   .     S
C11    C170    1.334   1_455 S
C11    H215    1.086   1_455 S
C12    H58     1.084   .     S
C12    C21     1.402   .     A
C12    C19     1.397   .     A
C13    C16     1.460   .     S
C13    C254    1.361   .     S
C13    N301    1.432   .     S
C14    C24     1.516   .     S
C14    C15     1.431   .     S
C14    C493    1.361   1_545 S
C15    O75     1.275   .     A
C15    O69     1.268   .     A
C16    O70     1.262   .     A
C16    O76     1.274   .     A
C17    O67     1.275   .     A
C17    C20     1.459   .     S
C17    O65     1.280   .     A
C18    O68     1.284   .     A
C18    C19     1.473   .     S
C18    O66     1.284   .     A
C19    C23     1.393   .     A
C21    C26     1.510   .     S
C21    C29     1.423   .     A
C22    H37     1.111   .     S
C22    H276    1.111   .     S
C22    H278    1.109   .     S
C22    N301    1.447   .     S
C23    H59     1.076   .     S
C23    C28     1.409   .     A
C24    H39     1.112   .     S
C24    H520    1.110   1_545 S
C24    H521    1.111   1_545 S
C25    H43     1.111   .     S
C25    H44     1.110   .     S
C25    N62     1.445   .     S
C25    H46     1.111   .     S
C26    H48     1.110   .     S
C26    H47     1.111   .     S
C26    H769    1.110   .     S
C27    H51     1.110   .     S
C27    N63     1.446   .     S
C27    H52     1.111   .     S
C27    H53     1.112   .     S
C28    C29     1.420   .     A
C28    C30     1.426   .     A
C29    C753    1.401   .     S
C30    C751    1.426   .     S
C31    C32     1.426   .     A
C31    C750    1.426   1_554 S
C32    N63     1.425   .     S
C32    C33     1.398   .     A
C33    H34     1.082   .     S
C33    C749    1.401   1_554 S
H35    N61     1.031   .     S
H36    C502    1.111   1_545 S
H38    C502    1.109   1_545 S
H40    C264    1.110   .     S
H41    C264    1.111   .     S
H42    N62     1.032   .     S
H49    C746    1.110   1_554 S
H50    N63     1.032   .     S
H54    C170    1.088   1_455 S
H55    C91     1.086   .     S
N61    C493    1.432   1_545 S
N61    C502    1.447   1_545 S
O64    Zn77    1.955   .     S
O64    Zn80    1.933   .     S
O64    Zn79    1.931   .     S
O64    Zn78    1.950   .     S
O65    Zn78    1.920   .     S
O66    Zn80    1.931   .     S
O67    Zn79    1.930   .     S
O68    Zn77    1.920   .     S
O69    Zn77    1.945   .     S
O70    Zn80    1.944   .     S
O71    Zn78    1.921   .     S
O72    Zn79    1.931   .     S
O73    Zn80    1.930   .     S
O74    Zn77    1.919   .     S
O75    Zn78    1.947   .     S
O76    Zn79    1.945   .     S
C81    C91     1.435   .     S
C81    O151    1.273   .     A
C81    O153    1.273   .     A
C82    H140    1.077   .     S
C82    C110    1.415   .     A
C82    C83     1.383   .     A
C83    H137    1.085   .     S
C83    C805    1.389   .     S
C84    O154    1.277   .     A
C84    C90     1.453   .     S
C84    O152    1.280   .     A
C85    C87     1.401   .     A
C85    C86     1.420   .     A
C85    C803    1.389   1_554 S
C86    C89     1.410   .     A
C86    C111    1.434   .     A
C87    H125    1.085   .     S
C87    C88     1.396   .     A
C88    C100    1.406   .     A
C88    N142    1.425   .     S
C89    C100    1.397   .     A
C89    H136    1.078   .     S
C90    C171    1.334   .     S
C90    H214    1.088   .     S
C92    H138    1.084   .     S
C92    C101    1.402   .     A
C92    C99     1.397   .     A
C93    C96     1.460   .     S
C93    C334    1.361   .     S
C93    N381    1.432   .     S
C94    C104    1.516   .     S
C94    C95     1.431   .     S
C94    C573    1.361   1_545 S
C95    O155    1.275   .     A
C95    O149    1.268   .     A
C96    O150    1.262   .     A
C96    O156    1.274   .     A
C97    O147    1.275   .     A
C97    C100    1.459   .     S
C97    O145    1.280   .     A
C98    O148    1.284   .     A
C98    C99     1.473   .     S
C98    O146    1.284   .     A
C99    C103    1.393   .     A
C101   C106    1.510   .     S
C101   C109    1.423   .     A
C102   H117    1.111   .     S
C102   H356    1.111   .     S
C102   H358    1.109   .     S
C102   N381    1.447   .     S
C103   H139    1.076   .     S
C103   C108    1.409   .     A
C104   H119    1.112   .     S
C104   H600    1.110   1_545 S
C104   H601    1.111   1_545 S
C105   H123    1.111   .     S
C105   H124    1.110   .     S
C105   N142    1.445   .     S
C105   H126    1.111   .     S
C106   H128    1.110   .     S
C106   H127    1.111   .     S
C106   H849    1.110   .     S
C107   H131    1.110   .     S
C107   N143    1.446   .     S
C107   H132    1.111   .     S
C107   H133    1.112   .     S
C108   C109    1.420   .     A
C108   C110    1.426   .     A
C109   C833    1.401   .     S
C110   C831    1.426   .     S
C111   C112    1.426   .     A
C111   C830    1.426   1_554 S
C112   N143    1.425   .     S
C112   C113    1.398   .     A
C113   H114    1.082   .     S
C113   C829    1.401   1_554 S
H115   N141    1.031   .     S
H116   C582    1.111   1_545 S
H118   C582    1.109   1_545 S
H120   C344    1.110   .     S
H121   C344    1.111   .     S
H122   N142    1.032   .     S
H129   C826    1.110   1_554 S
H130   N143    1.032   .     S
H135   C171    1.086   .     S
N141   C573    1.432   1_545 S
N141   C582    1.447   1_545 S
O144   Zn157   1.955   .     S
O144   Zn160   1.933   .     S
O144   Zn159   1.931   .     S
O144   Zn158   1.950   .     S
O145   Zn158   1.920   .     S
O146   Zn160   1.931   .     S
O147   Zn159   1.930   .     S
O148   Zn157   1.920   .     S
O149   Zn157   1.945   .     S
O150   Zn160   1.944   .     S
O151   Zn158   1.921   .     S
O152   Zn159   1.931   .     S
O153   Zn160   1.930   .     S
O154   Zn157   1.919   .     S
O155   Zn158   1.947   .     S
O156   Zn159   1.945   .     S
C161   C171    1.435   .     S
C161   O231    1.273   .     A
C161   O233    1.273   .     A
C162   H220    1.077   .     S
C162   C190    1.415   .     A
C162   C163    1.383   .     A
C163   H217    1.085   .     S
C163   C885    1.389   .     S
C164   O234    1.277   .     A
C164   C170    1.453   .     S
C164   O232    1.280   .     A
C165   C167    1.401   .     A
C165   C166    1.420   .     A
C165   C883    1.389   1_554 S
C166   C169    1.410   .     A
C166   C191    1.434   .     A
C167   H205    1.085   .     S
C167   C168    1.396   .     A
C168   C180    1.406   .     A
C168   N222    1.425   .     S
C169   C180    1.397   .     A
C169   H216    1.078   .     S
C170   C11     1.334   1_655 S
C170   H54     1.088   1_655 S
C172   H218    1.084   .     S
C172   C181    1.402   .     A
C172   C179    1.397   .     A
C173   C176    1.460   .     S
C173   C414    1.361   .     S
C173   N461    1.432   .     S
C174   C184    1.516   .     S
C174   C175    1.431   .     S
C174   C653    1.361   1_545 S
C175   O235    1.275   .     A
C175   O229    1.268   .     A
C176   O230    1.262   .     A
C176   O236    1.274   .     A
C177   O227    1.275   .     A
C177   C180    1.459   .     S
C177   O225    1.280   .     A
C178   O228    1.284   .     A
C178   C179    1.473   .     S
C178   O226    1.284   .     A
C179   C183    1.393   .     A
C181   C186    1.510   .     S
C181   C189    1.423   .     A
C182   H197    1.111   .     S
C182   H436    1.111   .     S
C182   H438    1.109   .     S
C182   N461    1.447   .     S
C183   H219    1.076   .     S
C183   C188    1.409   .     A
C184   H199    1.112   .     S
C184   H680    1.110   1_545 S
C184   H681    1.111   1_545 S
C185   H203    1.111   .     S
C185   H204    1.110   .     S
C185   N222    1.445   .     S
C185   H206    1.111   .     S
C186   H208    1.110   .     S
C186   H207    1.111   .     S
C186   H929    1.110   .     S
C187   H211    1.110   .     S
C187   N223    1.446   .     S
C187   H212    1.111   .     S
C187   H213    1.112   .     S
C188   C189    1.420   .     A
C188   C190    1.426   .     A
C189   C913    1.401   .     S
C190   C911    1.426   .     S
C191   C192    1.426   .     A
C191   C910    1.426   1_554 S
C192   N223    1.425   .     S
C192   C193    1.398   .     A
C193   H194    1.082   .     S
C193   C909    1.401   1_554 S
H195   N221    1.031   .     S
H196   C662    1.111   1_545 S
H198   C662    1.109   1_545 S
H200   C424    1.110   .     S
H201   C424    1.111   .     S
H202   N222    1.032   .     S
H209   C906    1.110   1_554 S
H210   N223    1.032   .     S
H215   C11     1.086   1_655 S
N221   C653    1.432   1_545 S
N221   C662    1.447   1_545 S
O224   Zn237   1.955   .     S
O224   Zn240   1.933   .     S
O224   Zn239   1.931   .     S
O224   Zn238   1.950   .     S
O225   Zn238   1.920   .     S
O226   Zn240   1.931   .     S
O227   Zn239   1.930   .     S
O228   Zn237   1.920   .     S
O229   Zn237   1.945   .     S
O230   Zn240   1.944   .     S
O231   Zn238   1.921   .     S
O232   Zn239   1.931   .     S
O233   Zn240   1.930   .     S
O234   Zn237   1.919   .     S
O235   Zn238   1.947   .     S
O236   Zn239   1.945   .     S
C241   C251    1.435   .     S
C241   O311    1.273   .     A
C241   O313    1.273   .     A
C242   H300    1.077   .     S
C242   C270    1.415   .     A
C242   C243    1.383   .     A
C243   H297    1.085   .     S
C243   C965    1.389   .     S
C244   O314    1.277   .     A
C244   C250    1.453   .     S
C244   O312    1.280   .     A
C245   C247    1.401   .     A
C245   C246    1.420   .     A
C245   C963    1.389   1_554 S
C246   C249    1.410   .     A
C246   C271    1.434   .     A
C247   H285    1.085   .     S
C247   C248    1.396   .     A
C248   C260    1.406   .     A
C248   N302    1.425   .     S
C249   C260    1.397   .     A
C249   H296    1.078   .     S
C250   C331    1.334   .     S
C250   H374    1.088   .     S
C251   C410    1.334   1_455 S
C251   H455    1.086   1_455 S
C252   H298    1.084   .     S
C252   C261    1.402   .     A
C252   C259    1.397   .     A
C253   C256    1.460   .     S
C253   C494    1.361   .     S
C253   N541    1.432   .     S
C254   C264    1.516   .     S
C254   C255    1.431   .     S
C255   O315    1.275   .     A
C255   O309    1.268   .     A
C256   O310    1.262   .     A
C256   O316    1.274   .     A
C257   O307    1.275   .     A
C257   C260    1.459   .     S
C257   O305    1.280   .     A
C258   O308    1.284   .     A
C258   C259    1.473   .     S
C258   O306    1.284   .     A
C259   C263    1.393   .     A
C261   C266    1.510   .     S
C261   C269    1.423   .     A
C262   H277    1.111   .     S
C262   H516    1.111   .     S
C262   H518    1.109   .     S
C262   N541    1.447   .     S
C263   H299    1.076   .     S
C263   C268    1.409   .     A
C264   H279    1.112   .     S
C265   H283    1.111   .     S
C265   H284    1.110   .     S
C265   N302    1.445   .     S
C265   H286    1.111   .     S
C266   H288    1.110   .     S
C266   H287    1.111   .     S
C266   H1009   1.110   .     S
C267   H291    1.110   .     S
C267   N303    1.446   .     S
C267   H292    1.111   .     S
C267   H293    1.112   .     S
C268   C269    1.420   .     A
C268   C270    1.426   .     A
C269   C993    1.401   .     S
C270   C991    1.426   .     S
C271   C272    1.426   .     A
C271   C990    1.426   1_554 S
C272   N303    1.425   .     S
C272   C273    1.398   .     A
C273   H274    1.082   .     S
C273   C989    1.401   1_554 S
H275   N301    1.031   .     S
H280   C504    1.110   .     S
H281   C504    1.111   .     S
H282   N302    1.032   .     S
H289   C986    1.110   1_554 S
H290   N303    1.032   .     S
H294   C410    1.088   1_455 S
H295   C331    1.086   .     S
O304   Zn317   1.955   .     S
O304   Zn320   1.933   .     S
O304   Zn319   1.931   .     S
O304   Zn318   1.950   .     S
O305   Zn318   1.920   .     S
O306   Zn320   1.931   .     S
O307   Zn319   1.930   .     S
O308   Zn317   1.920   .     S
O309   Zn317   1.945   .     S
O310   Zn320   1.944   .     S
O311   Zn318   1.921   .     S
O312   Zn319   1.931   .     S
O313   Zn320   1.930   .     S
O314   Zn317   1.919   .     S
O315   Zn318   1.947   .     S
O316   Zn319   1.945   .     S
C321   C331    1.435   .     S
C321   O391    1.273   .     A
C321   O393    1.273   .     A
C322   H380    1.077   .     S
C322   C350    1.415   .     A
C322   C323    1.383   .     A
C323   H377    1.085   .     S
C323   C1045   1.389   .     S
C324   O394    1.277   .     A
C324   C330    1.453   .     S
C324   O392    1.280   .     A
C325   C327    1.401   .     A
C325   C326    1.420   .     A
C325   C1043   1.389   1_554 S
C326   C329    1.410   .     A
C326   C351    1.434   .     A
C327   H365    1.085   .     S
C327   C328    1.396   .     A
C328   C340    1.406   .     A
C328   N382    1.425   .     S
C329   C340    1.397   .     A
C329   H376    1.078   .     S
C330   C411    1.334   .     S
C330   H454    1.088   .     S
C332   H378    1.084   .     S
C332   C341    1.402   .     A
C332   C339    1.397   .     A
C333   C336    1.460   .     S
C333   C574    1.361   .     S
C333   N621    1.432   .     S
C334   C344    1.516   .     S
C334   C335    1.431   .     S
C335   O395    1.275   .     A
C335   O389    1.268   .     A
C336   O390    1.262   .     A
C336   O396    1.274   .     A
C337   O387    1.275   .     A
C337   C340    1.459   .     S
C337   O385    1.280   .     A
C338   O388    1.284   .     A
C338   C339    1.473   .     S
C338   O386    1.284   .     A
C339   C343    1.393   .     A
C341   C346    1.510   .     S
C341   C349    1.423   .     A
C342   H357    1.111   .     S
C342   H596    1.111   .     S
C342   H598    1.109   .     S
C342   N621    1.447   .     S
C343   H379    1.076   .     S
C343   C348    1.409   .     A
C344   H359    1.112   .     S
C345   H363    1.111   .     S
C345   H364    1.110   .     S
C345   N382    1.445   .     S
C345   H366    1.111   .     S
C346   H368    1.110   .     S
C346   H367    1.111   .     S
C346   H1089   1.110   .     S
C347   H371    1.110   .     S
C347   N383    1.446   .     S
C347   H372    1.111   .     S
C347   H373    1.112   .     S
C348   C349    1.420   .     A
C348   C350    1.426   .     A
C349   C1073   1.401   .     S
C350   C1071   1.426   .     S
C351   C352    1.426   .     A
C351   C1070   1.426   1_554 S
C352   N383    1.425   .     S
C352   C353    1.398   .     A
C353   H354    1.082   .     S
C353   C1069   1.401   1_554 S
H355   N381    1.031   .     S
H360   C584    1.110   .     S
H361   C584    1.111   .     S
H362   N382    1.032   .     S
H369   C1066   1.110   1_554 S
H370   N383    1.032   .     S
H375   C411    1.086   .     S
O384   Zn397   1.955   .     S
O384   Zn400   1.933   .     S
O384   Zn399   1.931   .     S
O384   Zn398   1.950   .     S
O385   Zn398   1.920   .     S
O386   Zn400   1.931   .     S
O387   Zn399   1.930   .     S
O388   Zn397   1.920   .     S
O389   Zn397   1.945   .     S
O390   Zn400   1.944   .     S
O391   Zn398   1.921   .     S
O392   Zn399   1.931   .     S
O393   Zn400   1.930   .     S
O394   Zn397   1.919   .     S
O395   Zn398   1.947   .     S
O396   Zn399   1.945   .     S
C401   C411    1.435   .     S
C401   O471    1.273   .     A
C401   O473    1.273   .     A
C402   H460    1.077   .     S
C402   C430    1.415   .     A
C402   C403    1.383   .     A
C403   H457    1.085   .     S
C403   C1125   1.389   .     S
C404   O474    1.277   .     A
C404   C410    1.453   .     S
C404   O472    1.280   .     A
C405   C407    1.401   .     A
C405   C406    1.420   .     A
C405   C1123   1.389   1_554 S
C406   C409    1.410   .     A
C406   C431    1.434   .     A
C407   H445    1.085   .     S
C407   C408    1.396   .     A
C408   C420    1.406   .     A
C408   N462    1.425   .     S
C409   C420    1.397   .     A
C409   H456    1.078   .     S
C410   C251    1.334   1_655 S
C410   H294    1.088   1_655 S
C412   H458    1.084   .     S
C412   C421    1.402   .     A
C412   C419    1.397   .     A
C413   C416    1.460   .     S
C413   C654    1.361   .     S
C413   N701    1.432   .     S
C414   C424    1.516   .     S
C414   C415    1.431   .     S
C415   O475    1.275   .     A
C415   O469    1.268   .     A
C416   O470    1.262   .     A
C416   O476    1.274   .     A
C417   O467    1.275   .     A
C417   C420    1.459   .     S
C417   O465    1.280   .     A
C418   O468    1.284   .     A
C418   C419    1.473   .     S
C418   O466    1.284   .     A
C419   C423    1.393   .     A
C421   C426    1.510   .     S
C421   C429    1.423   .     A
C422   H437    1.111   .     S
C422   H676    1.111   .     S
C422   H678    1.109   .     S
C422   N701    1.447   .     S
C423   H459    1.076   .     S
C423   C428    1.409   .     A
C424   H439    1.112   .     S
C425   H443    1.111   .     S
C425   H444    1.110   .     S
C425   N462    1.445   .     S
C425   H446    1.111   .     S
C426   H448    1.110   .     S
C426   H447    1.111   .     S
C426   H1169   1.110   .     S
C427   H451    1.110   .     S
C427   N463    1.446   .     S
C427   H452    1.111   .     S
C427   H453    1.112   .     S
C428   C429    1.420   .     A
C428   C430    1.426   .     A
C429   C1153   1.401   .     S
C430   C1151   1.426   .     S
C431   C432    1.426   .     A
C431   C1150   1.426   1_554 S
C432   N463    1.425   .     S
C432   C433    1.398   .     A
C433   H434    1.082   .     S
C433   C1149   1.401   1_554 S
H435   N461    1.031   .     S
H440   C664    1.110   .     S
H441   C664    1.111   .     S
H442   N462    1.032   .     S
H449   C1146   1.110   1_554 S
H450   N463    1.032   .     S
H455   C251    1.086   1_655 S
O464   Zn477   1.955   .     S
O464   Zn480   1.933   .     S
O464   Zn479   1.931   .     S
O464   Zn478   1.950   .     S
O465   Zn478   1.920   .     S
O466   Zn480   1.931   .     S
O467   Zn479   1.930   .     S
O468   Zn477   1.920   .     S
O469   Zn477   1.945   .     S
O470   Zn480   1.944   .     S
O471   Zn478   1.921   .     S
O472   Zn479   1.931   .     S
O473   Zn480   1.930   .     S
O474   Zn477   1.919   .     S
O475   Zn478   1.947   .     S
O476   Zn479   1.945   .     S
C481   C491    1.435   .     S
C481   O551    1.273   .     A
C481   O553    1.273   .     A
C482   H540    1.077   .     S
C482   C510    1.415   .     A
C482   C483    1.383   .     A
C483   H537    1.085   .     S
C483   C1205   1.389   .     S
C484   O554    1.277   .     A
C484   C490    1.453   .     S
C484   O552    1.280   .     A
C485   C487    1.401   .     A
C485   C486    1.420   .     A
C485   C1203   1.389   1_554 S
C486   C489    1.410   .     A
C486   C511    1.434   .     A
C487   H525    1.085   .     S
C487   C488    1.396   .     A
C488   C500    1.406   .     A
C488   N542    1.425   .     S
C489   C500    1.397   .     A
C489   H536    1.078   .     S
C490   C571    1.334   .     S
C490   H614    1.088   .     S
C491   C650    1.334   1_455 S
C491   H695    1.086   1_455 S
C492   H538    1.084   .     S
C492   C501    1.402   .     A
C492   C499    1.397   .     A
C493   C496    1.460   .     S
C493   C14     1.361   1_565 S
C493   N61     1.432   1_565 S
C494   C504    1.516   .     S
C494   C495    1.431   .     S
C495   O555    1.275   .     A
C495   O549    1.268   .     A
C496   O550    1.262   .     A
C496   O556    1.274   .     A
C497   O547    1.275   .     A
C497   C500    1.459   .     S
C497   O545    1.280   .     A
C498   O548    1.284   .     A
C498   C499    1.473   .     S
C498   O546    1.284   .     A
C499   C503    1.393   .     A
C501   C506    1.510   .     S
C501   C509    1.423   .     A
C502   H517    1.111   .     S
C502   H36     1.111   1_565 S
C502   H38     1.109   1_565 S
C502   N61     1.447   1_565 S
C503   H539    1.076   .     S
C503   C508    1.409   .     A
C504   H519    1.112   .     S
C505   H523    1.111   .     S
C505   H524    1.110   .     S
C505   N542    1.445   .     S
C505   H526    1.111   .     S
C506   H528    1.110   .     S
C506   H527    1.111   .     S
C506   H1249   1.110   .     S
C507   H531    1.110   .     S
C507   N543    1.446   .     S
C507   H532    1.111   .     S
C507   H533    1.112   .     S
C508   C509    1.420   .     A
C508   C510    1.426   .     A
C509   C1233   1.401   .     S
C510   C1231   1.426   .     S
C511   C512    1.426   .     A
C511   C1230   1.426   1_554 S
C512   N543    1.425   .     S
C512   C513    1.398   .     A
C513   H514    1.082   .     S
C513   C1229   1.401   1_554 S
H515   N541    1.031   .     S
H520   C24     1.110   1_565 S
H521   C24     1.111   1_565 S
H522   N542    1.032   .     S
H529   C1226   1.110   1_554 S
H530   N543    1.032   .     S
H534   C650    1.088   1_455 S
H535   C571    1.086   .     S
O544   Zn557   1.955   .     S
O544   Zn560   1.933   .     S
O544   Zn559   1.931   .     S
O544   Zn558   1.950   .     S
O545   Zn558   1.920   .     S
O546   Zn560   1.931   .     S
O547   Zn559   1.930   .     S
O548   Zn557   1.920   .     S
O549   Zn557   1.945   .     S
O550   Zn560   1.944   .     S
O551   Zn558   1.921   .     S
O552   Zn559   1.931   .     S
O553   Zn560   1.930   .     S
O554   Zn557   1.919   .     S
O555   Zn558   1.947   .     S
O556   Zn559   1.945   .     S
C561   C571    1.435   .     S
C561   O631    1.273   .     A
C561   O633    1.273   .     A
C562   H620    1.077   .     S
C562   C590    1.415   .     A
C562   C563    1.383   .     A
C563   H617    1.085   .     S
C563   C1285   1.389   .     S
C564   O634    1.277   .     A
C564   C570    1.453   .     S
C564   O632    1.280   .     A
C565   C567    1.401   .     A
C565   C566    1.420   .     A
C565   C1283   1.389   1_554 S
C566   C569    1.410   .     A
C566   C591    1.434   .     A
C567   H605    1.085   .     S
C567   C568    1.396   .     A
C568   C580    1.406   .     A
C568   N622    1.425   .     S
C569   C580    1.397   .     A
C569   H616    1.078   .     S
C570   C651    1.334   .     S
C570   H694    1.088   .     S
C572   H618    1.084   .     S
C572   C581    1.402   .     A
C572   C579    1.397   .     A
C573   C576    1.460   .     S
C573   C94     1.361   1_565 S
C573   N141    1.432   1_565 S
C574   C584    1.516   .     S
C574   C575    1.431   .     S
C575   O635    1.275   .     A
C575   O629    1.268   .     A
C576   O630    1.262   .     A
C576   O636    1.274   .     A
C577   O627    1.275   .     A
C577   C580    1.459   .     S
C577   O625    1.280   .     A
C578   O628    1.284   .     A
C578   C579    1.473   .     S
C578   O626    1.284   .     A
C579   C583    1.393   .     A
C581   C586    1.510   .     S
C581   C589    1.423   .     A
C582   H597    1.111   .     S
C582   H116    1.111   1_565 S
C582   H118    1.109   1_565 S
C582   N141    1.447   1_565 S
C583   H619    1.076   .     S
C583   C588    1.409   .     A
C584   H599    1.112   .     S
C585   H603    1.111   .     S
C585   H604    1.110   .     S
C585   N622    1.445   .     S
C585   H606    1.111   .     S
C586   H608    1.110   .     S
C586   H607    1.111   .     S
C586   H1329   1.110   .     S
C587   H611    1.110   .     S
C587   N623    1.446   .     S
C587   H612    1.111   .     S
C587   H613    1.112   .     S
C588   C589    1.420   .     A
C588   C590    1.426   .     A
C589   C1313   1.401   .     S
C590   C1311   1.426   .     S
C591   C592    1.426   .     A
C591   C1310   1.426   1_554 S
C592   N623    1.425   .     S
C592   C593    1.398   .     A
C593   H594    1.082   .     S
C593   C1309   1.401   1_554 S
H595   N621    1.031   .     S
H600   C104    1.110   1_565 S
H601   C104    1.111   1_565 S
H602   N622    1.032   .     S
H609   C1306   1.110   1_554 S
H610   N623    1.032   .     S
H615   C651    1.086   .     S
O624   Zn637   1.955   .     S
O624   Zn640   1.933   .     S
O624   Zn639   1.931   .     S
O624   Zn638   1.950   .     S
O625   Zn638   1.920   .     S
O626   Zn640   1.931   .     S
O627   Zn639   1.930   .     S
O628   Zn637   1.920   .     S
O629   Zn637   1.945   .     S
O630   Zn640   1.944   .     S
O631   Zn638   1.921   .     S
O632   Zn639   1.931   .     S
O633   Zn640   1.930   .     S
O634   Zn637   1.919   .     S
O635   Zn638   1.947   .     S
O636   Zn639   1.945   .     S
C641   C651    1.435   .     S
C641   O711    1.273   .     A
C641   O713    1.273   .     A
C642   H700    1.077   .     S
C642   C670    1.415   .     A
C642   C643    1.383   .     A
C643   H697    1.085   .     S
C643   C1365   1.389   .     S
C644   O714    1.277   .     A
C644   C650    1.453   .     S
C644   O712    1.280   .     A
C645   C647    1.401   .     A
C645   C646    1.420   .     A
C645   C1363   1.389   1_554 S
C646   C649    1.410   .     A
C646   C671    1.434   .     A
C647   H685    1.085   .     S
C647   C648    1.396   .     A
C648   C660    1.406   .     A
C648   N702    1.425   .     S
C649   C660    1.397   .     A
C649   H696    1.078   .     S
C650   C491    1.334   1_655 S
C650   H534    1.088   1_655 S
C652   H698    1.084   .     S
C652   C661    1.402   .     A
C652   C659    1.397   .     A
C653   C656    1.460   .     S
C653   C174    1.361   1_565 S
C653   N221    1.432   1_565 S
C654   C664    1.516   .     S
C654   C655    1.431   .     S
C655   O715    1.275   .     A
C655   O709    1.268   .     A
C656   O710    1.262   .     A
C656   O716    1.274   .     A
C657   O707    1.275   .     A
C657   C660    1.459   .     S
C657   O705    1.280   .     A
C658   O708    1.284   .     A
C658   C659    1.473   .     S
C658   O706    1.284   .     A
C659   C663    1.393   .     A
C661   C666    1.510   .     S
C661   C669    1.423   .     A
C662   H677    1.111   .     S
C662   H196    1.111   1_565 S
C662   H198    1.109   1_565 S
C662   N221    1.447   1_565 S
C663   H699    1.076   .     S
C663   C668    1.409   .     A
C664   H679    1.112   .     S
C665   H683    1.111   .     S
C665   H684    1.110   .     S
C665   N702    1.445   .     S
C665   H686    1.111   .     S
C666   H688    1.110   .     S
C666   H687    1.111   .     S
C666   H1409   1.110   .     S
C667   H691    1.110   .     S
C667   N703    1.446   .     S
C667   H692    1.111   .     S
C667   H693    1.112   .     S
C668   C669    1.420   .     A
C668   C670    1.426   .     A
C669   C1393   1.401   .     S
C670   C1391   1.426   .     S
C671   C672    1.426   .     A
C671   C1390   1.426   1_554 S
C672   N703    1.425   .     S
C672   C673    1.398   .     A
C673   H674    1.082   .     S
C673   C1389   1.401   1_554 S
H675   N701    1.031   .     S
H680   C184    1.110   1_565 S
H681   C184    1.111   1_565 S
H682   N702    1.032   .     S
H689   C1386   1.110   1_554 S
H690   N703    1.032   .     S
H695   C491    1.086   1_655 S
O704   Zn717   1.955   .     S
O704   Zn720   1.933   .     S
O704   Zn719   1.931   .     S
O704   Zn718   1.950   .     S
O705   Zn718   1.920   .     S
O706   Zn720   1.931   .     S
O707   Zn719   1.930   .     S
O708   Zn717   1.920   .     S
O709   Zn717   1.945   .     S
O710   Zn720   1.944   .     S
O711   Zn718   1.921   .     S
O712   Zn719   1.931   .     S
O713   Zn720   1.930   .     S
O714   Zn717   1.919   .     S
O715   Zn718   1.947   .     S
O716   Zn719   1.945   .     S
C721   C731    1.435   .     S
C721   O791    1.273   .     A
C721   O793    1.273   .     A
C722   H780    1.077   .     S
C722   C750    1.415   .     A
C722   C723    1.383   .     A
C723   H777    1.085   .     S
C723   C5      1.389   1_556 S
C724   O794    1.277   .     A
C724   C730    1.453   .     S
C724   O792    1.280   .     A
C725   C727    1.401   .     A
C725   C726    1.420   .     A
C726   C729    1.410   .     A
C726   C751    1.434   .     A
C727   H765    1.085   .     S
C727   C728    1.396   .     A
C728   C740    1.406   .     A
C728   N782    1.425   .     S
C729   C740    1.397   .     A
C729   H776    1.078   .     S
C730   C811    1.334   .     S
C730   H854    1.088   .     S
C731   C890    1.334   1_455 S
C731   H935    1.086   1_455 S
C732   H778    1.084   .     S
C732   C741    1.402   .     A
C732   C739    1.397   .     A
C733   C736    1.460   .     S
C733   C974    1.361   .     S
C733   N1021   1.432   .     S
C734   C744    1.516   .     S
C734   C735    1.431   .     S
C734   C1213   1.361   1_545 S
C735   O795    1.275   .     A
C735   O789    1.268   .     A
C736   O790    1.262   .     A
C736   O796    1.274   .     A
C737   O787    1.275   .     A
C737   C740    1.459   .     S
C737   O785    1.280   .     A
C738   O788    1.284   .     A
C738   C739    1.473   .     S
C738   O786    1.284   .     A
C739   C743    1.393   .     A
C741   C746    1.510   .     S
C741   C749    1.423   .     A
C742   H757    1.111   .     S
C742   H996    1.111   .     S
C742   H998    1.109   .     S
C742   N1021   1.447   .     S
C743   H779    1.076   .     S
C743   C748    1.409   .     A
C744   H759    1.112   .     S
C744   H1240   1.110   1_545 S
C744   H1241   1.111   1_545 S
C745   H763    1.111   .     S
C745   H764    1.110   .     S
C745   N782    1.445   .     S
C745   H766    1.111   .     S
C746   H768    1.110   .     S
C746   H767    1.111   .     S
C746   H49     1.110   1_556 S
C747   H771    1.110   .     S
C747   N783    1.446   .     S
C747   H772    1.111   .     S
C747   H773    1.112   .     S
C748   C749    1.420   .     A
C748   C750    1.426   .     A
C749   C33     1.401   1_556 S
C750   C31     1.426   1_556 S
C751   C752    1.426   .     A
C752   N783    1.425   .     S
C752   C753    1.398   .     A
C753   H754    1.082   .     S
H755   N781    1.031   .     S
H756   C1222   1.111   1_545 S
H758   C1222   1.109   1_545 S
H760   C984    1.110   .     S
H761   C984    1.111   .     S
H762   N782    1.032   .     S
H770   N783    1.032   .     S
H774   C890    1.088   1_455 S
H775   C811    1.086   .     S
N781   C1213   1.432   1_545 S
N781   C1222   1.447   1_545 S
O784   Zn797   1.955   .     S
O784   Zn800   1.933   .     S
O784   Zn799   1.931   .     S
O784   Zn798   1.950   .     S
O785   Zn798   1.920   .     S
O786   Zn800   1.931   .     S
O787   Zn799   1.930   .     S
O788   Zn797   1.920   .     S
O789   Zn797   1.945   .     S
O790   Zn800   1.944   .     S
O791   Zn798   1.921   .     S
O792   Zn799   1.931   .     S
O793   Zn800   1.930   .     S
O794   Zn797   1.919   .     S
O795   Zn798   1.947   .     S
O796   Zn799   1.945   .     S
C801   C811    1.435   .     S
C801   O871    1.273   .     A
C801   O873    1.273   .     A
C802   H860    1.077   .     S
C802   C830    1.415   .     A
C802   C803    1.383   .     A
C803   H857    1.085   .     S
C803   C85     1.389   1_556 S
C804   O874    1.277   .     A
C804   C810    1.453   .     S
C804   O872    1.280   .     A
C805   C807    1.401   .     A
C805   C806    1.420   .     A
C806   C809    1.410   .     A
C806   C831    1.434   .     A
C807   H845    1.085   .     S
C807   C808    1.396   .     A
C808   C820    1.406   .     A
C808   N862    1.425   .     S
C809   C820    1.397   .     A
C809   H856    1.078   .     S
C810   C891    1.334   .     S
C810   H934    1.088   .     S
C812   H858    1.084   .     S
C812   C821    1.402   .     A
C812   C819    1.397   .     A
C813   C816    1.460   .     S
C813   C1054   1.361   .     S
C813   N1101   1.432   .     S
C814   C824    1.516   .     S
C814   C815    1.431   .     S
C814   C1293   1.361   1_545 S
C815   O875    1.275   .     A
C815   O869    1.268   .     A
C816   O870    1.262   .     A
C816   O876    1.274   .     A
C817   O867    1.275   .     A
C817   C820    1.459   .     S
C817   O865    1.280   .     A
C818   O868    1.284   .     A
C818   C819    1.473   .     S
C818   O866    1.284   .     A
C819   C823    1.393   .     A
C821   C826    1.510   .     S
C821   C829    1.423   .     A
C822   H837    1.111   .     S
C822   H1076   1.111   .     S
C822   H1078   1.109   .     S
C822   N1101   1.447   .     S
C823   H859    1.076   .     S
C823   C828    1.409   .     A
C824   H839    1.112   .     S
C824   H1320   1.110   1_545 S
C824   H1321   1.111   1_545 S
C825   H843    1.111   .     S
C825   H844    1.110   .     S
C825   N862    1.445   .     S
C825   H846    1.111   .     S
C826   H848    1.110   .     S
C826   H847    1.111   .     S
C826   H129    1.110   1_556 S
C827   H851    1.110   .     S
C827   N863    1.446   .     S
C827   H852    1.111   .     S
C827   H853    1.112   .     S
C828   C829    1.420   .     A
C828   C830    1.426   .     A
C829   C113    1.401   1_556 S
C830   C111    1.426   1_556 S
C831   C832    1.426   .     A
C832   N863    1.425   .     S
C832   C833    1.398   .     A
C833   H834    1.082   .     S
H835   N861    1.031   .     S
H836   C1302   1.111   1_545 S
H838   C1302   1.109   1_545 S
H840   C1064   1.110   .     S
H841   C1064   1.111   .     S
H842   N862    1.032   .     S
H850   N863    1.032   .     S
H855   C891    1.086   .     S
N861   C1293   1.432   1_545 S
N861   C1302   1.447   1_545 S
O864   Zn877   1.955   .     S
O864   Zn880   1.933   .     S
O864   Zn879   1.931   .     S
O864   Zn878   1.950   .     S
O865   Zn878   1.920   .     S
O866   Zn880   1.931   .     S
O867   Zn879   1.930   .     S
O868   Zn877   1.920   .     S
O869   Zn877   1.945   .     S
O870   Zn880   1.944   .     S
O871   Zn878   1.921   .     S
O872   Zn879   1.931   .     S
O873   Zn880   1.930   .     S
O874   Zn877   1.919   .     S
O875   Zn878   1.947   .     S
O876   Zn879   1.945   .     S
C881   C891    1.435   .     S
C881   O951    1.273   .     A
C881   O953    1.273   .     A
C882   H940    1.077   .     S
C882   C910    1.415   .     A
C882   C883    1.383   .     A
C883   H937    1.085   .     S
C883   C165    1.389   1_556 S
C884   O954    1.277   .     A
C884   C890    1.453   .     S
C884   O952    1.280   .     A
C885   C887    1.401   .     A
C885   C886    1.420   .     A
C886   C889    1.410   .     A
C886   C911    1.434   .     A
C887   H925    1.085   .     S
C887   C888    1.396   .     A
C888   C900    1.406   .     A
C888   N942    1.425   .     S
C889   C900    1.397   .     A
C889   H936    1.078   .     S
C890   C731    1.334   1_655 S
C890   H774    1.088   1_655 S
C892   H938    1.084   .     S
C892   C901    1.402   .     A
C892   C899    1.397   .     A
C893   C896    1.460   .     S
C893   C1134   1.361   .     S
C893   N1181   1.432   .     S
C894   C904    1.516   .     S
C894   C895    1.431   .     S
C894   C1373   1.361   1_545 S
C895   O955    1.275   .     A
C895   O949    1.268   .     A
C896   O950    1.262   .     A
C896   O956    1.274   .     A
C897   O947    1.275   .     A
C897   C900    1.459   .     S
C897   O945    1.280   .     A
C898   O948    1.284   .     A
C898   C899    1.473   .     S
C898   O946    1.284   .     A
C899   C903    1.393   .     A
C901   C906    1.510   .     S
C901   C909    1.423   .     A
C902   H917    1.111   .     S
C902   H1156   1.111   .     S
C902   H1158   1.109   .     S
C902   N1181   1.447   .     S
C903   H939    1.076   .     S
C903   C908    1.409   .     A
C904   H919    1.112   .     S
C904   H1400   1.110   1_545 S
C904   H1401   1.111   1_545 S
C905   H923    1.111   .     S
C905   H924    1.110   .     S
C905   N942    1.445   .     S
C905   H926    1.111   .     S
C906   H928    1.110   .     S
C906   H927    1.111   .     S
C906   H209    1.110   1_556 S
C907   H931    1.110   .     S
C907   N943    1.446   .     S
C907   H932    1.111   .     S
C907   H933    1.112   .     S
C908   C909    1.420   .     A
C908   C910    1.426   .     A
C909   C193    1.401   1_556 S
C910   C191    1.426   1_556 S
C911   C912    1.426   .     A
C912   N943    1.425   .     S
C912   C913    1.398   .     A
C913   H914    1.082   .     S
H915   N941    1.031   .     S
H916   C1382   1.111   1_545 S
H918   C1382   1.109   1_545 S
H920   C1144   1.110   .     S
H921   C1144   1.111   .     S
H922   N942    1.032   .     S
H930   N943    1.032   .     S
H935   C731    1.086   1_655 S
N941   C1373   1.432   1_545 S
N941   C1382   1.447   1_545 S
O944   Zn957   1.955   .     S
O944   Zn960   1.933   .     S
O944   Zn959   1.931   .     S
O944   Zn958   1.950   .     S
O945   Zn958   1.920   .     S
O946   Zn960   1.931   .     S
O947   Zn959   1.930   .     S
O948   Zn957   1.920   .     S
O949   Zn957   1.945   .     S
O950   Zn960   1.944   .     S
O951   Zn958   1.921   .     S
O952   Zn959   1.931   .     S
O953   Zn960   1.930   .     S
O954   Zn957   1.919   .     S
O955   Zn958   1.947   .     S
O956   Zn959   1.945   .     S
C961   C971    1.435   .     S
C961   O1031   1.273   .     A
C961   O1033   1.273   .     A
C962   H1020   1.077   .     S
C962   C990    1.415   .     A
C962   C963    1.383   .     A
C963   H1017   1.085   .     S
C963   C245    1.389   1_556 S
C964   O1034   1.277   .     A
C964   C970    1.453   .     S
C964   O1032   1.280   .     A
C965   C967    1.401   .     A
C965   C966    1.420   .     A
C966   C969    1.410   .     A
C966   C991    1.434   .     A
C967   H1005   1.085   .     S
C967   C968    1.396   .     A
C968   C980    1.406   .     A
C968   N1022   1.425   .     S
C969   C980    1.397   .     A
C969   H1016   1.078   .     S
C970   C1051   1.334   .     S
C970   H1094   1.088   .     S
C971   C1130   1.334   1_455 S
C971   H1175   1.086   1_455 S
C972   H1018   1.084   .     S
C972   C981    1.402   .     A
C972   C979    1.397   .     A
C973   C976    1.460   .     S
C973   C1214   1.361   .     S
C973   N1261   1.432   .     S
C974   C984    1.516   .     S
C974   C975    1.431   .     S
C975   O1035   1.275   .     A
C975   O1029   1.268   .     A
C976   O1030   1.262   .     A
C976   O1036   1.274   .     A
C977   O1027   1.275   .     A
C977   C980    1.459   .     S
C977   O1025   1.280   .     A
C978   O1028   1.284   .     A
C978   C979    1.473   .     S
C978   O1026   1.284   .     A
C979   C983    1.393   .     A
C981   C986    1.510   .     S
C981   C989    1.423   .     A
C982   H997    1.111   .     S
C982   H1236   1.111   .     S
C982   H1238   1.109   .     S
C982   N1261   1.447   .     S
C983   H1019   1.076   .     S
C983   C988    1.409   .     A
C984   H999    1.112   .     S
C985   H1003   1.111   .     S
C985   H1004   1.110   .     S
C985   N1022   1.445   .     S
C985   H1006   1.111   .     S
C986   H1008   1.110   .     S
C986   H1007   1.111   .     S
C986   H289    1.110   1_556 S
C987   H1011   1.110   .     S
C987   N1023   1.446   .     S
C987   H1012   1.111   .     S
C987   H1013   1.112   .     S
C988   C989    1.420   .     A
C988   C990    1.426   .     A
C989   C273    1.401   1_556 S
C990   C271    1.426   1_556 S
C991   C992    1.426   .     A
C992   N1023   1.425   .     S
C992   C993    1.398   .     A
C993   H994    1.082   .     S
H995   N1021   1.031   .     S
H1000  C1224   1.110   .     S
H1001  C1224   1.111   .     S
H1002  N1022   1.032   .     S
H1010  N1023   1.032   .     S
H1014  C1130   1.088   1_455 S
H1015  C1051   1.086   .     S
O1024  Zn1037  1.955   .     S
O1024  Zn1040  1.933   .     S
O1024  Zn1039  1.931   .     S
O1024  Zn1038  1.950   .     S
O1025  Zn1038  1.920   .     S
O1026  Zn1040  1.931   .     S
O1027  Zn1039  1.930   .     S
O1028  Zn1037  1.920   .     S
O1029  Zn1037  1.945   .     S
O1030  Zn1040  1.944   .     S
O1031  Zn1038  1.921   .     S
O1032  Zn1039  1.931   .     S
O1033  Zn1040  1.930   .     S
O1034  Zn1037  1.919   .     S
O1035  Zn1038  1.947   .     S
O1036  Zn1039  1.945   .     S
C1041  C1051   1.435   .     S
C1041  O1111   1.273   .     A
C1041  O1113   1.273   .     A
C1042  H1100   1.077   .     S
C1042  C1070   1.415   .     A
C1042  C1043   1.383   .     A
C1043  H1097   1.085   .     S
C1043  C325    1.389   1_556 S
C1044  O1114   1.277   .     A
C1044  C1050   1.453   .     S
C1044  O1112   1.280   .     A
C1045  C1047   1.401   .     A
C1045  C1046   1.420   .     A
C1046  C1049   1.410   .     A
C1046  C1071   1.434   .     A
C1047  H1085   1.085   .     S
C1047  C1048   1.396   .     A
C1048  C1060   1.406   .     A
C1048  N1102   1.425   .     S
C1049  C1060   1.397   .     A
C1049  H1096   1.078   .     S
C1050  C1131   1.334   .     S
C1050  H1174   1.088   .     S
C1052  H1098   1.084   .     S
C1052  C1061   1.402   .     A
C1052  C1059   1.397   .     A
C1053  C1056   1.460   .     S
C1053  C1294   1.361   .     S
C1053  N1341   1.432   .     S
C1054  C1064   1.516   .     S
C1054  C1055   1.431   .     S
C1055  O1115   1.275   .     A
C1055  O1109   1.268   .     A
C1056  O1110   1.262   .     A
C1056  O1116   1.274   .     A
C1057  O1107   1.275   .     A
C1057  C1060   1.459   .     S
C1057  O1105   1.280   .     A
C1058  O1108   1.284   .     A
C1058  C1059   1.473   .     S
C1058  O1106   1.284   .     A
C1059  C1063   1.393   .     A
C1061  C1066   1.510   .     S
C1061  C1069   1.423   .     A
C1062  H1077   1.111   .     S
C1062  H1316   1.111   .     S
C1062  H1318   1.109   .     S
C1062  N1341   1.447   .     S
C1063  H1099   1.076   .     S
C1063  C1068   1.409   .     A
C1064  H1079   1.112   .     S
C1065  H1083   1.111   .     S
C1065  H1084   1.110   .     S
C1065  N1102   1.445   .     S
C1065  H1086   1.111   .     S
C1066  H1088   1.110   .     S
C1066  H1087   1.111   .     S
C1066  H369    1.110   1_556 S
C1067  H1091   1.110   .     S
C1067  N1103   1.446   .     S
C1067  H1092   1.111   .     S
C1067  H1093   1.112   .     S
C1068  C1069   1.420   .     A
C1068  C1070   1.426   .     A
C1069  C353    1.401   1_556 S
C1070  C351    1.426   1_556 S
C1071  C1072   1.426   .     A
C1072  N1103   1.425   .     S
C1072  C1073   1.398   .     A
C1073  H1074   1.082   .     S
H1075  N1101   1.031   .     S
H1080  C1304   1.110   .     S
H1081  C1304   1.111   .     S
H1082  N1102   1.032   .     S
H1090  N1103   1.032   .     S
H1095  C1131   1.086   .     S
O1104  Zn1117  1.955   .     S
O1104  Zn1120  1.933   .     S
O1104  Zn1119  1.931   .     S
O1104  Zn1118  1.950   .     S
O1105  Zn1118  1.920   .     S
O1106  Zn1120  1.931   .     S
O1107  Zn1119  1.930   .     S
O1108  Zn1117  1.920   .     S
O1109  Zn1117  1.945   .     S
O1110  Zn1120  1.944   .     S
O1111  Zn1118  1.921   .     S
O1112  Zn1119  1.931   .     S
O1113  Zn1120  1.930   .     S
O1114  Zn1117  1.919   .     S
O1115  Zn1118  1.947   .     S
O1116  Zn1119  1.945   .     S
C1121  C1131   1.435   .     S
C1121  O1191   1.273   .     A
C1121  O1193   1.273   .     A
C1122  H1180   1.077   .     S
C1122  C1150   1.415   .     A
C1122  C1123   1.383   .     A
C1123  H1177   1.085   .     S
C1123  C405    1.389   1_556 S
C1124  O1194   1.277   .     A
C1124  C1130   1.453   .     S
C1124  O1192   1.280   .     A
C1125  C1127   1.401   .     A
C1125  C1126   1.420   .     A
C1126  C1129   1.410   .     A
C1126  C1151   1.434   .     A
C1127  H1165   1.085   .     S
C1127  C1128   1.396   .     A
C1128  C1140   1.406   .     A
C1128  N1182   1.425   .     S
C1129  C1140   1.397   .     A
C1129  H1176   1.078   .     S
C1130  C971    1.334   1_655 S
C1130  H1014   1.088   1_655 S
C1132  H1178   1.084   .     S
C1132  C1141   1.402   .     A
C1132  C1139   1.397   .     A
C1133  C1136   1.460   .     S
C1133  C1374   1.361   .     S
C1133  N1421   1.432   .     S
C1134  C1144   1.516   .     S
C1134  C1135   1.431   .     S
C1135  O1195   1.275   .     A
C1135  O1189   1.268   .     A
C1136  O1190   1.262   .     A
C1136  O1196   1.274   .     A
C1137  O1187   1.275   .     A
C1137  C1140   1.459   .     S
C1137  O1185   1.280   .     A
C1138  O1188   1.284   .     A
C1138  C1139   1.473   .     S
C1138  O1186   1.284   .     A
C1139  C1143   1.393   .     A
C1141  C1146   1.510   .     S
C1141  C1149   1.423   .     A
C1142  H1157   1.111   .     S
C1142  H1396   1.111   .     S
C1142  H1398   1.109   .     S
C1142  N1421   1.447   .     S
C1143  H1179   1.076   .     S
C1143  C1148   1.409   .     A
C1144  H1159   1.112   .     S
C1145  H1163   1.111   .     S
C1145  H1164   1.110   .     S
C1145  N1182   1.445   .     S
C1145  H1166   1.111   .     S
C1146  H1168   1.110   .     S
C1146  H1167   1.111   .     S
C1146  H449    1.110   1_556 S
C1147  H1171   1.110   .     S
C1147  N1183   1.446   .     S
C1147  H1172   1.111   .     S
C1147  H1173   1.112   .     S
C1148  C1149   1.420   .     A
C1148  C1150   1.426   .     A
C1149  C433    1.401   1_556 S
C1150  C431    1.426   1_556 S
C1151  C1152   1.426   .     A
C1152  N1183   1.425   .     S
C1152  C1153   1.398   .     A
C1153  H1154   1.082   .     S
H1155  N1181   1.031   .     S
H1160  C1384   1.110   .     S
H1161  C1384   1.111   .     S
H1162  N1182   1.032   .     S
H1170  N1183   1.032   .     S
H1175  C971    1.086   1_655 S
O1184  Zn1197  1.955   .     S
O1184  Zn1200  1.933   .     S
O1184  Zn1199  1.931   .     S
O1184  Zn1198  1.950   .     S
O1185  Zn1198  1.920   .     S
O1186  Zn1200  1.931   .     S
O1187  Zn1199  1.930   .     S
O1188  Zn1197  1.920   .     S
O1189  Zn1197  1.945   .     S
O1190  Zn1200  1.944   .     S
O1191  Zn1198  1.921   .     S
O1192  Zn1199  1.931   .     S
O1193  Zn1200  1.930   .     S
O1194  Zn1197  1.919   .     S
O1195  Zn1198  1.947   .     S
O1196  Zn1199  1.945   .     S
C1201  C1211   1.435   .     S
C1201  O1271   1.273   .     A
C1201  O1273   1.273   .     A
C1202  H1260   1.077   .     S
C1202  C1230   1.415   .     A
C1202  C1203   1.383   .     A
C1203  H1257   1.085   .     S
C1203  C485    1.389   1_556 S
C1204  O1274   1.277   .     A
C1204  C1210   1.453   .     S
C1204  O1272   1.280   .     A
C1205  C1207   1.401   .     A
C1205  C1206   1.420   .     A
C1206  C1209   1.410   .     A
C1206  C1231   1.434   .     A
C1207  H1245   1.085   .     S
C1207  C1208   1.396   .     A
C1208  C1220   1.406   .     A
C1208  N1262   1.425   .     S
C1209  C1220   1.397   .     A
C1209  H1256   1.078   .     S
C1210  C1291   1.334   .     S
C1210  H1334   1.088   .     S
C1211  C1370   1.334   1_455 S
C1211  H1415   1.086   1_455 S
C1212  H1258   1.084   .     S
C1212  C1221   1.402   .     A
C1212  C1219   1.397   .     A
C1213  C1216   1.460   .     S
C1213  C734    1.361   1_565 S
C1213  N781    1.432   1_565 S
C1214  C1224   1.516   .     S
C1214  C1215   1.431   .     S
C1215  O1275   1.275   .     A
C1215  O1269   1.268   .     A
C1216  O1270   1.262   .     A
C1216  O1276   1.274   .     A
C1217  O1267   1.275   .     A
C1217  C1220   1.459   .     S
C1217  O1265   1.280   .     A
C1218  O1268   1.284   .     A
C1218  C1219   1.473   .     S
C1218  O1266   1.284   .     A
C1219  C1223   1.393   .     A
C1221  C1226   1.510   .     S
C1221  C1229   1.423   .     A
C1222  H1237   1.111   .     S
C1222  H756    1.111   1_565 S
C1222  H758    1.109   1_565 S
C1222  N781    1.447   1_565 S
C1223  H1259   1.076   .     S
C1223  C1228   1.409   .     A
C1224  H1239   1.112   .     S
C1225  H1243   1.111   .     S
C1225  H1244   1.110   .     S
C1225  N1262   1.445   .     S
C1225  H1246   1.111   .     S
C1226  H1248   1.110   .     S
C1226  H1247   1.111   .     S
C1226  H529    1.110   1_556 S
C1227  H1251   1.110   .     S
C1227  N1263   1.446   .     S
C1227  H1252   1.111   .     S
C1227  H1253   1.112   .     S
C1228  C1229   1.420   .     A
C1228  C1230   1.426   .     A
C1229  C513    1.401   1_556 S
C1230  C511    1.426   1_556 S
C1231  C1232   1.426   .     A
C1232  N1263   1.425   .     S
C1232  C1233   1.398   .     A
C1233  H1234   1.082   .     S
H1235  N1261   1.031   .     S
H1240  C744    1.110   1_565 S
H1241  C744    1.111   1_565 S
H1242  N1262   1.032   .     S
H1250  N1263   1.032   .     S
H1254  C1370   1.088   1_455 S
H1255  C1291   1.086   .     S
O1264  Zn1277  1.955   .     S
O1264  Zn1280  1.933   .     S
O1264  Zn1279  1.931   .     S
O1264  Zn1278  1.950   .     S
O1265  Zn1278  1.920   .     S
O1266  Zn1280  1.931   .     S
O1267  Zn1279  1.930   .     S
O1268  Zn1277  1.920   .     S
O1269  Zn1277  1.945   .     S
O1270  Zn1280  1.944   .     S
O1271  Zn1278  1.921   .     S
O1272  Zn1279  1.931   .     S
O1273  Zn1280  1.930   .     S
O1274  Zn1277  1.919   .     S
O1275  Zn1278  1.947   .     S
O1276  Zn1279  1.945   .     S
C1281  C1291   1.435   .     S
C1281  O1351   1.273   .     A
C1281  O1353   1.273   .     A
C1282  H1340   1.077   .     S
C1282  C1310   1.415   .     A
C1282  C1283   1.383   .     A
C1283  H1337   1.085   .     S
C1283  C565    1.389   1_556 S
C1284  O1354   1.277   .     A
C1284  C1290   1.453   .     S
C1284  O1352   1.280   .     A
C1285  C1287   1.401   .     A
C1285  C1286   1.420   .     A
C1286  C1289   1.410   .     A
C1286  C1311   1.434   .     A
C1287  H1325   1.085   .     S
C1287  C1288   1.396   .     A
C1288  C1300   1.406   .     A
C1288  N1342   1.425   .     S
C1289  C1300   1.397   .     A
C1289  H1336   1.078   .     S
C1290  C1371   1.334   .     S
C1290  H1414   1.088   .     S
C1292  H1338   1.084   .     S
C1292  C1301   1.402   .     A
C1292  C1299   1.397   .     A
C1293  C1296   1.460   .     S
C1293  C814    1.361   1_565 S
C1293  N861    1.432   1_565 S
C1294  C1304   1.516   .     S
C1294  C1295   1.431   .     S
C1295  O1355   1.275   .     A
C1295  O1349   1.268   .     A
C1296  O1350   1.262   .     A
C1296  O1356   1.274   .     A
C1297  O1347   1.275   .     A
C1297  C1300   1.459   .     S
C1297  O1345   1.280   .     A
C1298  O1348   1.284   .     A
C1298  C1299   1.473   .     S
C1298  O1346   1.284   .     A
C1299  C1303   1.393   .     A
C1301  C1306   1.510   .     S
C1301  C1309   1.423   .     A
C1302  H1317   1.111   .     S
C1302  H836    1.111   1_565 S
C1302  H838    1.109   1_565 S
C1302  N861    1.447   1_565 S
C1303  H1339   1.076   .     S
C1303  C1308   1.409   .     A
C1304  H1319   1.112   .     S
C1305  H1323   1.111   .     S
C1305  H1324   1.110   .     S
C1305  N1342   1.445   .     S
C1305  H1326   1.111   .     S
C1306  H1328   1.110   .     S
C1306  H1327   1.111   .     S
C1306  H609    1.110   1_556 S
C1307  H1331   1.110   .     S
C1307  N1343   1.446   .     S
C1307  H1332   1.111   .     S
C1307  H1333   1.112   .     S
C1308  C1309   1.420   .     A
C1308  C1310   1.426   .     A
C1309  C593    1.401   1_556 S
C1310  C591    1.426   1_556 S
C1311  C1312   1.426   .     A
C1312  N1343   1.425   .     S
C1312  C1313   1.398   .     A
C1313  H1314   1.082   .     S
H1315  N1341   1.031   .     S
H1320  C824    1.110   1_565 S
H1321  C824    1.111   1_565 S
H1322  N1342   1.032   .     S
H1330  N1343   1.032   .     S
H1335  C1371   1.086   .     S
O1344  Zn1357  1.955   .     S
O1344  Zn1360  1.933   .     S
O1344  Zn1359  1.931   .     S
O1344  Zn1358  1.950   .     S
O1345  Zn1358  1.920   .     S
O1346  Zn1360  1.931   .     S
O1347  Zn1359  1.930   .     S
O1348  Zn1357  1.920   .     S
O1349  Zn1357  1.945   .     S
O1350  Zn1360  1.944   .     S
O1351  Zn1358  1.921   .     S
O1352  Zn1359  1.931   .     S
O1353  Zn1360  1.930   .     S
O1354  Zn1357  1.919   .     S
O1355  Zn1358  1.947   .     S
O1356  Zn1359  1.945   .     S
C1361  C1371   1.435   .     S
C1361  O1431   1.273   .     A
C1361  O1433   1.273   .     A
C1362  H1420   1.077   .     S
C1362  C1390   1.415   .     A
C1362  C1363   1.383   .     A
C1363  H1417   1.085   .     S
C1363  C645    1.389   1_556 S
C1364  O1434   1.277   .     A
C1364  C1370   1.453   .     S
C1364  O1432   1.280   .     A
C1365  C1367   1.401   .     A
C1365  C1366   1.420   .     A
C1366  C1369   1.410   .     A
C1366  C1391   1.434   .     A
C1367  H1405   1.085   .     S
C1367  C1368   1.396   .     A
C1368  C1380   1.406   .     A
C1368  N1422   1.425   .     S
C1369  C1380   1.397   .     A
C1369  H1416   1.078   .     S
C1370  C1211   1.334   1_655 S
C1370  H1254   1.088   1_655 S
C1372  H1418   1.084   .     S
C1372  C1381   1.402   .     A
C1372  C1379   1.397   .     A
C1373  C1376   1.460   .     S
C1373  C894    1.361   1_565 S
C1373  N941    1.432   1_565 S
C1374  C1384   1.516   .     S
C1374  C1375   1.431   .     S
C1375  O1435   1.275   .     A
C1375  O1429   1.268   .     A
C1376  O1430   1.262   .     A
C1376  O1436   1.274   .     A
C1377  O1427   1.275   .     A
C1377  C1380   1.459   .     S
C1377  O1425   1.280   .     A
C1378  O1428   1.284   .     A
C1378  C1379   1.473   .     S
C1378  O1426   1.284   .     A
C1379  C1383   1.393   .     A
C1381  C1386   1.510   .     S
C1381  C1389   1.423   .     A
C1382  H1397   1.111   .     S
C1382  H916    1.111   1_565 S
C1382  H918    1.109   1_565 S
C1382  N941    1.447   1_565 S
C1383  H1419   1.076   .     S
C1383  C1388   1.409   .     A
C1384  H1399   1.112   .     S
C1385  H1403   1.111   .     S
C1385  H1404   1.110   .     S
C1385  N1422   1.445   .     S
C1385  H1406   1.111   .     S
C1386  H1408   1.110   .     S
C1386  H1407   1.111   .     S
C1386  H689    1.110   1_556 S
C1387  H1411   1.110   .     S
C1387  N1423   1.446   .     S
C1387  H1412   1.111   .     S
C1387  H1413   1.112   .     S
C1388  C1389   1.420   .     A
C1388  C1390   1.426   .     A
C1389  C673    1.401   1_556 S
C1390  C671    1.426   1_556 S
C1391  C1392   1.426   .     A
C1392  N1423   1.425   .     S
C1392  C1393   1.398   .     A
C1393  H1394   1.082   .     S
H1395  N1421   1.031   .     S
H1400  C904    1.110   1_565 S
H1401  C904    1.111   1_565 S
H1402  N1422   1.032   .     S
H1410  N1423   1.032   .     S
H1415  C1211   1.086   1_655 S
O1424  Zn1437  1.955   .     S
O1424  Zn1440  1.933   .     S
O1424  Zn1439  1.931   .     S
O1424  Zn1438  1.950   .     S
O1425  Zn1438  1.920   .     S
O1426  Zn1440  1.931   .     S
O1427  Zn1439  1.930   .     S
O1428  Zn1437  1.920   .     S
O1429  Zn1437  1.945   .     S
O1430  Zn1440  1.944   .     S
O1431  Zn1438  1.921   .     S
O1432  Zn1439  1.931   .     S
O1433  Zn1440  1.930   .     S
O1434  Zn1437  1.919   .     S
O1435  Zn1438  1.947   .     S
O1436  Zn1439  1.945   .     S
