data_str_m1_o10_o16_pcu_sym.3
_audit_creation_date              2020-01-03
_audit_creation_method            'Materials Studio'
_symmetry_space_group_name_H-M    'P1'
_symmetry_Int_Tables_number       1
_symmetry_cell_setting            triclinic
loop_
_symmetry_equiv_pos_as_xyz
  x,y,z
_cell_length_a                    32.5586
_cell_length_b                    32.5774
_cell_length_c                    30.9861
_cell_angle_alpha                 96.2737
_cell_angle_beta                  74.2335
_cell_angle_gamma                 98.8036
loop_
_atom_site_label
_atom_site_type_symbol
_atom_site_fract_x
_atom_site_fract_y
_atom_site_fract_z
_atom_site_U_iso_or_equiv
_atom_site_adp_type
_atom_site_occupancy
C1     C     0.05267   0.15942   0.26044   0.00000  Uiso   1.00
C2     C     0.16637   0.15685   0.05863   0.00000  Uiso   1.00
C3     C     0.23162   0.12626   0.05485   0.00000  Uiso   1.00
C4     C     0.28105   0.17385   0.23963   0.00000  Uiso   1.00
C5     C     0.13686   0.18895   0.42084   0.00000  Uiso   1.00
C6     C     0.32755   0.17630   0.23455   0.00000  Uiso   1.00
C7     C     0.00747   0.15770   0.26384   0.00000  Uiso   1.00
C8     C     0.18168   0.32291   0.23551   0.00000  Uiso   1.00
C9     C     0.15247   0.01174   0.26327   0.00000  Uiso   1.00
C10    C     0.15557   0.05599   0.26075   0.00000  Uiso   1.00
C11    C     0.17690   0.27809   0.23991   0.00000  Uiso   1.00
C12    C     0.07587   0.17278   0.48513   0.00000  Uiso   1.00
C13    C     0.18544   0.14847   0.12920   0.00000  Uiso   1.00
C14    C     0.14851   0.18486   0.37103   0.00000  Uiso   1.00
C15    C     0.24458   0.12927   0.00834   0.00000  Uiso   1.00
C16    C     0.19367   0.14229   0.08040   0.00000  Uiso   1.00
C17    C     0.09322   0.19150   0.44414   0.00000  Uiso   1.00
C18    C     0.21896   0.01006   0.20024   0.00000  Uiso   1.00
C19    C     0.23302   0.21657   0.39169   0.00000  Uiso   1.00
C20    C     0.10324   0.15586   0.00469   0.00000  Uiso   1.00
C21    C     0.14858   0.16422   0.48747   0.00000  Uiso   1.00
C22    C     0.16570   0.17967   0.44436   0.00000  Uiso   1.00
C23    C     0.17734   0.15516   0.01119   0.00000  Uiso   1.00
C24    C     0.21963   0.14831   0.48706   0.00000  Uiso   1.00
C25    C     0.23716   0.16447   0.44446   0.00000  Uiso   1.00
C26    C     0.21117   0.18489   0.42596   0.00000  Uiso   1.00
H27    H     0.31838   0.14164   0.29145   0.00000  Uiso   1.00
H28    H     0.08228   0.23438   0.41237   0.00000  Uiso   1.00
H29    H     0.05492   0.12354   0.04504   0.00000  Uiso   1.00
H30    H     0.01689   0.18253   0.48919   0.00000  Uiso   1.00
H31    H     0.26014   0.23608   0.40236   0.00000  Uiso   1.00
H32    H     0.24580   0.20079   0.35814   0.00000  Uiso   1.00
H33    H     0.21112   0.23857   0.38901   0.00000  Uiso   1.00
H34    H     0.00925   0.20842   0.18171   0.00000  Uiso   1.00
H35    H     0.12553   0.33061   0.28840   0.00000  Uiso   1.00
H36    H     0.24279   0.10292   0.10552   0.00000  Uiso   1.00
H37    H     0.24009   0.32073   0.18007   0.00000  Uiso   1.00
H38    H     0.20650   0.02513   0.17677   0.00000  Uiso   1.00
H39    H     0.23900   0.03400   0.21674   0.00000  Uiso   1.00
H40    H     0.28673   0.16834   0.39225   0.00000  Uiso   1.00
H41    H     0.27752   0.10089   0.45526   0.00000  Uiso   1.00
H42    H     0.12501   0.17451   0.11458   0.00000  Uiso   1.00
O43    O     0.16667   0.16667   0.25000   0.00000  Uiso   1.00
O44    O     0.15451   0.12637   0.15459   0.00000  Uiso   1.00
O45    O     0.12940   0.20391   0.34968   0.00000  Uiso   1.00
O46    O     0.20824   0.17759   0.14606   0.00000  Uiso   1.00
O47    O     0.17451   0.15880   0.34968   0.00000  Uiso   1.00
O48    O     0.25793   0.10874   0.07407   0.00000  Uiso   1.00
O49    O     0.28087   0.16551   0.42493   0.00000  Uiso   1.00
O50    O     0.28157   0.11283   0.48486   0.00000  Uiso   1.00
O51    O     0.13266   0.17859   0.08211   0.00000  Uiso   1.00
O52    O     0.06614   0.20848   0.42574   0.00000  Uiso   1.00
O53    O     0.08665   0.12914   0.03891   0.00000  Uiso   1.00
O54    O     0.17930   0.08019   0.28214   0.00000  Uiso   1.00
O55    O     0.03239   0.16985   0.00664   0.00000  Uiso   1.00
O56    O     0.02437   0.19704   0.20056   0.00000  Uiso   1.00
O57    O     0.14632   0.26085   0.27014   0.00000  Uiso   1.00
O58    O     0.07412   0.13291   0.23413   0.00000  Uiso   1.00
O59    O     0.26693   0.19272   0.21361   0.00000  Uiso   1.00
O60    O     0.07071   0.18878   0.28213   0.00000  Uiso   1.00
O61    O     0.25491   0.15226   0.27014   0.00000  Uiso   1.00
O62    O     0.13760   0.06944   0.23413   0.00000  Uiso   1.00
O63    O     0.20345   0.25620   0.21361   0.00000  Uiso   1.00
Zn64   Zn    0.19338   0.13994   0.28734   0.00000  Uiso   1.00
Zn65   Zn    0.13379   0.12458   0.21876   0.00000  Uiso   1.00
Zn66   Zn    0.21056   0.19775   0.20657   0.00000  Uiso   1.00
Zn67   Zn    0.12893   0.20439   0.28734   0.00000  Uiso   1.00
C68    C     0.38600   0.15942   0.26044   0.00000  Uiso   1.00
C69    C     0.49970   0.15685   0.05863   0.00000  Uiso   1.00
C70    C     0.56496   0.12626   0.05485   0.00000  Uiso   1.00
C71    C     0.61438   0.17385   0.23963   0.00000  Uiso   1.00
C72    C     0.47019   0.18895   0.42084   0.00000  Uiso   1.00
C73    C     0.66088   0.17630   0.23455   0.00000  Uiso   1.00
C74    C     0.34080   0.15770   0.26384   0.00000  Uiso   1.00
C75    C     0.51502   0.32291   0.23551   0.00000  Uiso   1.00
C76    C     0.48580   0.01174   0.26327   0.00000  Uiso   1.00
C77    C     0.48890   0.05599   0.26075   0.00000  Uiso   1.00
C78    C     0.51023   0.27809   0.23991   0.00000  Uiso   1.00
C79    C     0.40921   0.17278   0.48513   0.00000  Uiso   1.00
C80    C     0.51877   0.14847   0.12920   0.00000  Uiso   1.00
C81    C     0.48184   0.18486   0.37103   0.00000  Uiso   1.00
C82    C     0.57791   0.12927   0.00834   0.00000  Uiso   1.00
C83    C     0.52700   0.14229   0.08040   0.00000  Uiso   1.00
C84    C     0.42656   0.19150   0.44414   0.00000  Uiso   1.00
C85    C     0.55229   0.01006   0.20024   0.00000  Uiso   1.00
C86    C     0.56635   0.21657   0.39169   0.00000  Uiso   1.00
C87    C     0.43657   0.15586   0.00469   0.00000  Uiso   1.00
C88    C     0.48191   0.16422   0.48747   0.00000  Uiso   1.00
C89    C     0.49904   0.17967   0.44436   0.00000  Uiso   1.00
C90    C     0.51067   0.15516   0.01119   0.00000  Uiso   1.00
C91    C     0.55296   0.14831   0.48706   0.00000  Uiso   1.00
C92    C     0.57050   0.16447   0.44446   0.00000  Uiso   1.00
C93    C     0.54450   0.18489   0.42596   0.00000  Uiso   1.00
H94    H     0.65171   0.14164   0.29145   0.00000  Uiso   1.00
H95    H     0.41561   0.23438   0.41237   0.00000  Uiso   1.00
H96    H     0.38826   0.12354   0.04504   0.00000  Uiso   1.00
H97    H     0.35022   0.18253   0.48919   0.00000  Uiso   1.00
H98    H     0.59347   0.23608   0.40236   0.00000  Uiso   1.00
H99    H     0.57913   0.20079   0.35814   0.00000  Uiso   1.00
H100   H     0.54446   0.23857   0.38901   0.00000  Uiso   1.00
H101   H     0.34258   0.20842   0.18171   0.00000  Uiso   1.00
H102   H     0.45886   0.33061   0.28840   0.00000  Uiso   1.00
H103   H     0.57612   0.10292   0.10552   0.00000  Uiso   1.00
H104   H     0.57342   0.32073   0.18007   0.00000  Uiso   1.00
H105   H     0.53984   0.02513   0.17677   0.00000  Uiso   1.00
H106   H     0.57233   0.03400   0.21674   0.00000  Uiso   1.00
H107   H     0.62007   0.16834   0.39225   0.00000  Uiso   1.00
H108   H     0.61085   0.10089   0.45526   0.00000  Uiso   1.00
H109   H     0.45835   0.17451   0.11458   0.00000  Uiso   1.00
O110   O     0.50000   0.16667   0.25000   0.00000  Uiso   1.00
O111   O     0.48784   0.12637   0.15459   0.00000  Uiso   1.00
O112   O     0.46274   0.20391   0.34968   0.00000  Uiso   1.00
O113   O     0.54157   0.17759   0.14606   0.00000  Uiso   1.00
O114   O     0.50785   0.15880   0.34968   0.00000  Uiso   1.00
O115   O     0.59126   0.10874   0.07407   0.00000  Uiso   1.00
O116   O     0.61420   0.16551   0.42493   0.00000  Uiso   1.00
O117   O     0.61491   0.11283   0.48486   0.00000  Uiso   1.00
O118   O     0.46599   0.17859   0.08211   0.00000  Uiso   1.00
O119   O     0.39947   0.20848   0.42574   0.00000  Uiso   1.00
O120   O     0.41998   0.12914   0.03891   0.00000  Uiso   1.00
O121   O     0.51264   0.08019   0.28214   0.00000  Uiso   1.00
O122   O     0.36572   0.16985   0.00664   0.00000  Uiso   1.00
O123   O     0.35771   0.19704   0.20056   0.00000  Uiso   1.00
O124   O     0.47965   0.26085   0.27014   0.00000  Uiso   1.00
O125   O     0.40745   0.13291   0.23413   0.00000  Uiso   1.00
O126   O     0.60026   0.19272   0.21361   0.00000  Uiso   1.00
O127   O     0.40405   0.18878   0.28213   0.00000  Uiso   1.00
O128   O     0.58824   0.15226   0.27014   0.00000  Uiso   1.00
O129   O     0.47093   0.06944   0.23413   0.00000  Uiso   1.00
O130   O     0.53678   0.25620   0.21361   0.00000  Uiso   1.00
Zn131  Zn    0.52672   0.13994   0.28734   0.00000  Uiso   1.00
Zn132  Zn    0.46713   0.12458   0.21876   0.00000  Uiso   1.00
Zn133  Zn    0.54389   0.19775   0.20657   0.00000  Uiso   1.00
Zn134  Zn    0.46226   0.20439   0.28734   0.00000  Uiso   1.00
C135   C     0.71933   0.15942   0.26044   0.00000  Uiso   1.00
C136   C     0.83304   0.15685   0.05863   0.00000  Uiso   1.00
C137   C     0.89829   0.12626   0.05485   0.00000  Uiso   1.00
C138   C     0.94771   0.17385   0.23963   0.00000  Uiso   1.00
C139   C     0.80352   0.18895   0.42084   0.00000  Uiso   1.00
C140   C     0.99422   0.17630   0.23455   0.00000  Uiso   1.00
C141   C     0.67413   0.15770   0.26384   0.00000  Uiso   1.00
C142   C     0.84835   0.32291   0.23551   0.00000  Uiso   1.00
C143   C     0.81913   0.01174   0.26327   0.00000  Uiso   1.00
C144   C     0.82224   0.05599   0.26075   0.00000  Uiso   1.00
C145   C     0.84356   0.27809   0.23991   0.00000  Uiso   1.00
C146   C     0.74254   0.17278   0.48513   0.00000  Uiso   1.00
C147   C     0.85210   0.14847   0.12920   0.00000  Uiso   1.00
C148   C     0.81517   0.18486   0.37103   0.00000  Uiso   1.00
C149   C     0.91125   0.12927   0.00834   0.00000  Uiso   1.00
C150   C     0.86034   0.14229   0.08040   0.00000  Uiso   1.00
C151   C     0.75989   0.19150   0.44414   0.00000  Uiso   1.00
C152   C     0.88562   0.01006   0.20024   0.00000  Uiso   1.00
C153   C     0.89968   0.21657   0.39169   0.00000  Uiso   1.00
C154   C     0.76990   0.15586   0.00469   0.00000  Uiso   1.00
C155   C     0.81524   0.16422   0.48747   0.00000  Uiso   1.00
C156   C     0.83237   0.17967   0.44436   0.00000  Uiso   1.00
C157   C     0.84401   0.15516   0.01119   0.00000  Uiso   1.00
C158   C     0.88630   0.14831   0.48706   0.00000  Uiso   1.00
C159   C     0.90383   0.16447   0.44446   0.00000  Uiso   1.00
C160   C     0.87783   0.18489   0.42596   0.00000  Uiso   1.00
H161   H     0.98504   0.14164   0.29145   0.00000  Uiso   1.00
H162   H     0.74894   0.23438   0.41237   0.00000  Uiso   1.00
H163   H     0.72159   0.12354   0.04504   0.00000  Uiso   1.00
H164   H     0.68355   0.18253   0.48919   0.00000  Uiso   1.00
H165   H     0.92681   0.23608   0.40236   0.00000  Uiso   1.00
H166   H     0.91247   0.20079   0.35814   0.00000  Uiso   1.00
H167   H     0.87779   0.23857   0.38901   0.00000  Uiso   1.00
H168   H     0.67592   0.20842   0.18171   0.00000  Uiso   1.00
H169   H     0.79219   0.33061   0.28840   0.00000  Uiso   1.00
H170   H     0.90945   0.10292   0.10552   0.00000  Uiso   1.00
H171   H     0.90675   0.32073   0.18007   0.00000  Uiso   1.00
H172   H     0.87317   0.02513   0.17677   0.00000  Uiso   1.00
H173   H     0.90566   0.03400   0.21674   0.00000  Uiso   1.00
H174   H     0.95340   0.16834   0.39225   0.00000  Uiso   1.00
H175   H     0.94419   0.10089   0.45526   0.00000  Uiso   1.00
H176   H     0.79168   0.17451   0.11458   0.00000  Uiso   1.00
O177   O     0.83333   0.16667   0.25000   0.00000  Uiso   1.00
O178   O     0.82118   0.12637   0.15459   0.00000  Uiso   1.00
O179   O     0.79607   0.20391   0.34968   0.00000  Uiso   1.00
O180   O     0.87491   0.17759   0.14606   0.00000  Uiso   1.00
O181   O     0.84118   0.15880   0.34968   0.00000  Uiso   1.00
O182   O     0.92460   0.10874   0.07407   0.00000  Uiso   1.00
O183   O     0.94754   0.16551   0.42493   0.00000  Uiso   1.00
O184   O     0.94824   0.11283   0.48486   0.00000  Uiso   1.00
O185   O     0.79933   0.17859   0.08211   0.00000  Uiso   1.00
O186   O     0.73281   0.20848   0.42574   0.00000  Uiso   1.00
O187   O     0.75332   0.12914   0.03891   0.00000  Uiso   1.00
O188   O     0.84597   0.08019   0.28214   0.00000  Uiso   1.00
O189   O     0.69906   0.16985   0.00664   0.00000  Uiso   1.00
O190   O     0.69104   0.19704   0.20056   0.00000  Uiso   1.00
O191   O     0.81298   0.26085   0.27014   0.00000  Uiso   1.00
O192   O     0.74078   0.13291   0.23413   0.00000  Uiso   1.00
O193   O     0.93360   0.19272   0.21361   0.00000  Uiso   1.00
O194   O     0.73738   0.18878   0.28213   0.00000  Uiso   1.00
O195   O     0.92158   0.15226   0.27014   0.00000  Uiso   1.00
O196   O     0.80426   0.06944   0.23413   0.00000  Uiso   1.00
O197   O     0.87012   0.25620   0.21361   0.00000  Uiso   1.00
Zn198  Zn    0.86005   0.13994   0.28734   0.00000  Uiso   1.00
Zn199  Zn    0.80046   0.12458   0.21876   0.00000  Uiso   1.00
Zn200  Zn    0.87723   0.19775   0.20657   0.00000  Uiso   1.00
Zn201  Zn    0.79560   0.20439   0.28734   0.00000  Uiso   1.00
C202   C     0.05267   0.49275   0.26044   0.00000  Uiso   1.00
C203   C     0.16637   0.49018   0.05863   0.00000  Uiso   1.00
C204   C     0.23162   0.45959   0.05485   0.00000  Uiso   1.00
C205   C     0.28105   0.50718   0.23963   0.00000  Uiso   1.00
C206   C     0.13686   0.52229   0.42084   0.00000  Uiso   1.00
C207   C     0.32755   0.50964   0.23455   0.00000  Uiso   1.00
C208   C     0.00747   0.49103   0.26384   0.00000  Uiso   1.00
C209   C     0.18168   0.65625   0.23551   0.00000  Uiso   1.00
C210   C     0.15247   0.34507   0.26327   0.00000  Uiso   1.00
C211   C     0.15557   0.38932   0.26075   0.00000  Uiso   1.00
C212   C     0.17690   0.61142   0.23991   0.00000  Uiso   1.00
C213   C     0.07587   0.50612   0.48513   0.00000  Uiso   1.00
C214   C     0.18544   0.48180   0.12920   0.00000  Uiso   1.00
C215   C     0.14851   0.51819   0.37103   0.00000  Uiso   1.00
C216   C     0.24458   0.46261   0.00834   0.00000  Uiso   1.00
C217   C     0.19367   0.47563   0.08040   0.00000  Uiso   1.00
C218   C     0.09322   0.52483   0.44414   0.00000  Uiso   1.00
C219   C     0.21896   0.34340   0.20024   0.00000  Uiso   1.00
C220   C     0.23302   0.54991   0.39169   0.00000  Uiso   1.00
C221   C     0.10324   0.48920   0.00469   0.00000  Uiso   1.00
C222   C     0.14858   0.49755   0.48747   0.00000  Uiso   1.00
C223   C     0.16570   0.51301   0.44436   0.00000  Uiso   1.00
C224   C     0.17734   0.48849   0.01119   0.00000  Uiso   1.00
C225   C     0.21963   0.48164   0.48706   0.00000  Uiso   1.00
C226   C     0.23716   0.49780   0.44446   0.00000  Uiso   1.00
C227   C     0.21117   0.51822   0.42596   0.00000  Uiso   1.00
H228   H     0.31838   0.47497   0.29145   0.00000  Uiso   1.00
H229   H     0.08228   0.56771   0.41237   0.00000  Uiso   1.00
H230   H     0.05492   0.45687   0.04504   0.00000  Uiso   1.00
H231   H     0.01689   0.51586   0.48919   0.00000  Uiso   1.00
H232   H     0.26014   0.56941   0.40236   0.00000  Uiso   1.00
H233   H     0.24580   0.53412   0.35814   0.00000  Uiso   1.00
H234   H     0.21112   0.57190   0.38901   0.00000  Uiso   1.00
H235   H     0.00925   0.54175   0.18171   0.00000  Uiso   1.00
H236   H     0.12553   0.66395   0.28840   0.00000  Uiso   1.00
H237   H     0.24279   0.43625   0.10552   0.00000  Uiso   1.00
H238   H     0.24009   0.65406   0.18007   0.00000  Uiso   1.00
H239   H     0.20650   0.35846   0.17677   0.00000  Uiso   1.00
H240   H     0.23900   0.36733   0.21674   0.00000  Uiso   1.00
H241   H     0.28673   0.50167   0.39225   0.00000  Uiso   1.00
H242   H     0.27752   0.43422   0.45526   0.00000  Uiso   1.00
H243   H     0.12501   0.50785   0.11458   0.00000  Uiso   1.00
O244   O     0.16667   0.50000   0.25000   0.00000  Uiso   1.00
O245   O     0.15451   0.45970   0.15459   0.00000  Uiso   1.00
O246   O     0.12940   0.53724   0.34968   0.00000  Uiso   1.00
O247   O     0.20824   0.51092   0.14606   0.00000  Uiso   1.00
O248   O     0.17451   0.49213   0.34968   0.00000  Uiso   1.00
O249   O     0.25793   0.44207   0.07407   0.00000  Uiso   1.00
O250   O     0.28087   0.49885   0.42493   0.00000  Uiso   1.00
O251   O     0.28157   0.44617   0.48486   0.00000  Uiso   1.00
O252   O     0.13266   0.51193   0.08211   0.00000  Uiso   1.00
O253   O     0.06614   0.54181   0.42574   0.00000  Uiso   1.00
O254   O     0.08665   0.46248   0.03891   0.00000  Uiso   1.00
O255   O     0.17930   0.41352   0.28214   0.00000  Uiso   1.00
O256   O     0.03239   0.50318   0.00664   0.00000  Uiso   1.00
O257   O     0.02437   0.53038   0.20056   0.00000  Uiso   1.00
O258   O     0.14632   0.59418   0.27014   0.00000  Uiso   1.00
O259   O     0.07412   0.46625   0.23413   0.00000  Uiso   1.00
O260   O     0.26693   0.52605   0.21361   0.00000  Uiso   1.00
O261   O     0.07071   0.52211   0.28213   0.00000  Uiso   1.00
O262   O     0.25491   0.48559   0.27014   0.00000  Uiso   1.00
O263   O     0.13760   0.40277   0.23413   0.00000  Uiso   1.00
O264   O     0.20345   0.58953   0.21361   0.00000  Uiso   1.00
Zn265  Zn    0.19338   0.47327   0.28734   0.00000  Uiso   1.00
Zn266  Zn    0.13379   0.45791   0.21876   0.00000  Uiso   1.00
Zn267  Zn    0.21056   0.53109   0.20657   0.00000  Uiso   1.00
Zn268  Zn    0.12893   0.53773   0.28734   0.00000  Uiso   1.00
C269   C     0.38600   0.49275   0.26044   0.00000  Uiso   1.00
C270   C     0.49970   0.49018   0.05863   0.00000  Uiso   1.00
C271   C     0.56496   0.45959   0.05485   0.00000  Uiso   1.00
C272   C     0.61438   0.50718   0.23963   0.00000  Uiso   1.00
C273   C     0.47019   0.52229   0.42084   0.00000  Uiso   1.00
C274   C     0.66088   0.50964   0.23455   0.00000  Uiso   1.00
C275   C     0.34080   0.49103   0.26384   0.00000  Uiso   1.00
C276   C     0.51502   0.65625   0.23551   0.00000  Uiso   1.00
C277   C     0.48580   0.34507   0.26327   0.00000  Uiso   1.00
C278   C     0.48890   0.38932   0.26075   0.00000  Uiso   1.00
C279   C     0.51023   0.61142   0.23991   0.00000  Uiso   1.00
C280   C     0.40921   0.50612   0.48513   0.00000  Uiso   1.00
C281   C     0.51877   0.48180   0.12920   0.00000  Uiso   1.00
C282   C     0.48184   0.51819   0.37103   0.00000  Uiso   1.00
C283   C     0.57791   0.46261   0.00834   0.00000  Uiso   1.00
C284   C     0.52700   0.47563   0.08040   0.00000  Uiso   1.00
C285   C     0.42656   0.52483   0.44414   0.00000  Uiso   1.00
C286   C     0.55229   0.34340   0.20024   0.00000  Uiso   1.00
C287   C     0.56635   0.54991   0.39169   0.00000  Uiso   1.00
C288   C     0.43657   0.48920   0.00469   0.00000  Uiso   1.00
C289   C     0.48191   0.49755   0.48747   0.00000  Uiso   1.00
C290   C     0.49904   0.51301   0.44436   0.00000  Uiso   1.00
C291   C     0.51067   0.48849   0.01119   0.00000  Uiso   1.00
C292   C     0.55296   0.48164   0.48706   0.00000  Uiso   1.00
C293   C     0.57050   0.49780   0.44446   0.00000  Uiso   1.00
C294   C     0.54450   0.51822   0.42596   0.00000  Uiso   1.00
H295   H     0.65171   0.47497   0.29145   0.00000  Uiso   1.00
H296   H     0.41561   0.56771   0.41237   0.00000  Uiso   1.00
H297   H     0.38826   0.45687   0.04504   0.00000  Uiso   1.00
H298   H     0.35022   0.51586   0.48919   0.00000  Uiso   1.00
H299   H     0.59347   0.56941   0.40236   0.00000  Uiso   1.00
H300   H     0.57913   0.53412   0.35814   0.00000  Uiso   1.00
H301   H     0.54446   0.57190   0.38901   0.00000  Uiso   1.00
H302   H     0.34258   0.54175   0.18171   0.00000  Uiso   1.00
H303   H     0.45886   0.66395   0.28840   0.00000  Uiso   1.00
H304   H     0.57612   0.43625   0.10552   0.00000  Uiso   1.00
H305   H     0.57342   0.65406   0.18007   0.00000  Uiso   1.00
H306   H     0.53984   0.35846   0.17677   0.00000  Uiso   1.00
H307   H     0.57233   0.36733   0.21674   0.00000  Uiso   1.00
H308   H     0.62007   0.50167   0.39225   0.00000  Uiso   1.00
H309   H     0.61085   0.43422   0.45526   0.00000  Uiso   1.00
H310   H     0.45835   0.50785   0.11458   0.00000  Uiso   1.00
O311   O     0.50000   0.50000   0.25000   0.00000  Uiso   1.00
O312   O     0.48784   0.45970   0.15459   0.00000  Uiso   1.00
O313   O     0.46274   0.53724   0.34968   0.00000  Uiso   1.00
O314   O     0.54157   0.51092   0.14606   0.00000  Uiso   1.00
O315   O     0.50785   0.49213   0.34968   0.00000  Uiso   1.00
O316   O     0.59126   0.44207   0.07407   0.00000  Uiso   1.00
O317   O     0.61420   0.49885   0.42493   0.00000  Uiso   1.00
O318   O     0.61491   0.44617   0.48486   0.00000  Uiso   1.00
O319   O     0.46599   0.51193   0.08211   0.00000  Uiso   1.00
O320   O     0.39947   0.54181   0.42574   0.00000  Uiso   1.00
O321   O     0.41998   0.46248   0.03891   0.00000  Uiso   1.00
O322   O     0.51264   0.41352   0.28214   0.00000  Uiso   1.00
O323   O     0.36572   0.50318   0.00664   0.00000  Uiso   1.00
O324   O     0.35771   0.53038   0.20056   0.00000  Uiso   1.00
O325   O     0.47965   0.59418   0.27014   0.00000  Uiso   1.00
O326   O     0.40745   0.46625   0.23413   0.00000  Uiso   1.00
O327   O     0.60026   0.52605   0.21361   0.00000  Uiso   1.00
O328   O     0.40405   0.52211   0.28213   0.00000  Uiso   1.00
O329   O     0.58824   0.48559   0.27014   0.00000  Uiso   1.00
O330   O     0.47093   0.40277   0.23413   0.00000  Uiso   1.00
O331   O     0.53678   0.58953   0.21361   0.00000  Uiso   1.00
Zn332  Zn    0.52672   0.47327   0.28734   0.00000  Uiso   1.00
Zn333  Zn    0.46713   0.45791   0.21876   0.00000  Uiso   1.00
Zn334  Zn    0.54389   0.53109   0.20657   0.00000  Uiso   1.00
Zn335  Zn    0.46226   0.53773   0.28734   0.00000  Uiso   1.00
C336   C     0.71933   0.49275   0.26044   0.00000  Uiso   1.00
C337   C     0.83304   0.49018   0.05863   0.00000  Uiso   1.00
C338   C     0.89829   0.45959   0.05485   0.00000  Uiso   1.00
C339   C     0.94771   0.50718   0.23963   0.00000  Uiso   1.00
C340   C     0.80352   0.52229   0.42084   0.00000  Uiso   1.00
C341   C     0.99422   0.50964   0.23455   0.00000  Uiso   1.00
C342   C     0.67413   0.49103   0.26384   0.00000  Uiso   1.00
C343   C     0.84835   0.65625   0.23551   0.00000  Uiso   1.00
C344   C     0.81913   0.34507   0.26327   0.00000  Uiso   1.00
C345   C     0.82224   0.38932   0.26075   0.00000  Uiso   1.00
C346   C     0.84356   0.61142   0.23991   0.00000  Uiso   1.00
C347   C     0.74254   0.50612   0.48513   0.00000  Uiso   1.00
C348   C     0.85210   0.48180   0.12920   0.00000  Uiso   1.00
C349   C     0.81517   0.51819   0.37103   0.00000  Uiso   1.00
C350   C     0.91125   0.46261   0.00834   0.00000  Uiso   1.00
C351   C     0.86034   0.47563   0.08040   0.00000  Uiso   1.00
C352   C     0.75989   0.52483   0.44414   0.00000  Uiso   1.00
C353   C     0.88562   0.34340   0.20024   0.00000  Uiso   1.00
C354   C     0.89968   0.54991   0.39169   0.00000  Uiso   1.00
C355   C     0.76990   0.48920   0.00469   0.00000  Uiso   1.00
C356   C     0.81524   0.49755   0.48747   0.00000  Uiso   1.00
C357   C     0.83237   0.51301   0.44436   0.00000  Uiso   1.00
C358   C     0.84401   0.48849   0.01119   0.00000  Uiso   1.00
C359   C     0.88630   0.48164   0.48706   0.00000  Uiso   1.00
C360   C     0.90383   0.49780   0.44446   0.00000  Uiso   1.00
C361   C     0.87783   0.51822   0.42596   0.00000  Uiso   1.00
H362   H     0.98504   0.47497   0.29145   0.00000  Uiso   1.00
H363   H     0.74894   0.56771   0.41237   0.00000  Uiso   1.00
H364   H     0.72159   0.45687   0.04504   0.00000  Uiso   1.00
H365   H     0.68355   0.51586   0.48919   0.00000  Uiso   1.00
H366   H     0.92681   0.56941   0.40236   0.00000  Uiso   1.00
H367   H     0.91247   0.53412   0.35814   0.00000  Uiso   1.00
H368   H     0.87779   0.57190   0.38901   0.00000  Uiso   1.00
H369   H     0.67592   0.54175   0.18171   0.00000  Uiso   1.00
H370   H     0.79219   0.66395   0.28840   0.00000  Uiso   1.00
H371   H     0.90945   0.43625   0.10552   0.00000  Uiso   1.00
H372   H     0.90675   0.65406   0.18007   0.00000  Uiso   1.00
H373   H     0.87317   0.35846   0.17677   0.00000  Uiso   1.00
H374   H     0.90566   0.36733   0.21674   0.00000  Uiso   1.00
H375   H     0.95340   0.50167   0.39225   0.00000  Uiso   1.00
H376   H     0.94419   0.43422   0.45526   0.00000  Uiso   1.00
H377   H     0.79168   0.50785   0.11458   0.00000  Uiso   1.00
O378   O     0.83333   0.50000   0.25000   0.00000  Uiso   1.00
O379   O     0.82118   0.45970   0.15459   0.00000  Uiso   1.00
O380   O     0.79607   0.53724   0.34968   0.00000  Uiso   1.00
O381   O     0.87491   0.51092   0.14606   0.00000  Uiso   1.00
O382   O     0.84118   0.49213   0.34968   0.00000  Uiso   1.00
O383   O     0.92460   0.44207   0.07407   0.00000  Uiso   1.00
O384   O     0.94754   0.49885   0.42493   0.00000  Uiso   1.00
O385   O     0.94824   0.44617   0.48486   0.00000  Uiso   1.00
O386   O     0.79933   0.51193   0.08211   0.00000  Uiso   1.00
O387   O     0.73281   0.54181   0.42574   0.00000  Uiso   1.00
O388   O     0.75332   0.46248   0.03891   0.00000  Uiso   1.00
O389   O     0.84597   0.41352   0.28214   0.00000  Uiso   1.00
O390   O     0.69906   0.50318   0.00664   0.00000  Uiso   1.00
O391   O     0.69104   0.53038   0.20056   0.00000  Uiso   1.00
O392   O     0.81298   0.59418   0.27014   0.00000  Uiso   1.00
O393   O     0.74078   0.46625   0.23413   0.00000  Uiso   1.00
O394   O     0.93360   0.52605   0.21361   0.00000  Uiso   1.00
O395   O     0.73738   0.52211   0.28213   0.00000  Uiso   1.00
O396   O     0.92158   0.48559   0.27014   0.00000  Uiso   1.00
O397   O     0.80426   0.40277   0.23413   0.00000  Uiso   1.00
O398   O     0.87012   0.58953   0.21361   0.00000  Uiso   1.00
Zn399  Zn    0.86005   0.47327   0.28734   0.00000  Uiso   1.00
Zn400  Zn    0.80046   0.45791   0.21876   0.00000  Uiso   1.00
Zn401  Zn    0.87723   0.53109   0.20657   0.00000  Uiso   1.00
Zn402  Zn    0.79560   0.53773   0.28734   0.00000  Uiso   1.00
C403   C     0.05267   0.82608   0.26044   0.00000  Uiso   1.00
C404   C     0.16637   0.82352   0.05863   0.00000  Uiso   1.00
C405   C     0.23162   0.79292   0.05485   0.00000  Uiso   1.00
C406   C     0.28105   0.84051   0.23963   0.00000  Uiso   1.00
C407   C     0.13686   0.85562   0.42084   0.00000  Uiso   1.00
C408   C     0.32755   0.84297   0.23455   0.00000  Uiso   1.00
C409   C     0.00747   0.82436   0.26384   0.00000  Uiso   1.00
C410   C     0.18168   0.98958   0.23551   0.00000  Uiso   1.00
C411   C     0.15247   0.67841   0.26327   0.00000  Uiso   1.00
C412   C     0.15557   0.72265   0.26075   0.00000  Uiso   1.00
C413   C     0.17690   0.94476   0.23991   0.00000  Uiso   1.00
C414   C     0.07587   0.83945   0.48513   0.00000  Uiso   1.00
C415   C     0.18544   0.81513   0.12920   0.00000  Uiso   1.00
C416   C     0.14851   0.85153   0.37103   0.00000  Uiso   1.00
C417   C     0.24458   0.79594   0.00834   0.00000  Uiso   1.00
C418   C     0.19367   0.80896   0.08040   0.00000  Uiso   1.00
C419   C     0.09322   0.85816   0.44414   0.00000  Uiso   1.00
C420   C     0.21896   0.67673   0.20024   0.00000  Uiso   1.00
C421   C     0.23302   0.88324   0.39169   0.00000  Uiso   1.00
C422   C     0.10324   0.82253   0.00469   0.00000  Uiso   1.00
C423   C     0.14858   0.83088   0.48747   0.00000  Uiso   1.00
C424   C     0.16570   0.84634   0.44436   0.00000  Uiso   1.00
C425   C     0.17734   0.82182   0.01119   0.00000  Uiso   1.00
C426   C     0.21963   0.81497   0.48706   0.00000  Uiso   1.00
C427   C     0.23716   0.83113   0.44446   0.00000  Uiso   1.00
C428   C     0.21117   0.85156   0.42596   0.00000  Uiso   1.00
H429   H     0.31838   0.80830   0.29145   0.00000  Uiso   1.00
H430   H     0.08228   0.90105   0.41237   0.00000  Uiso   1.00
H431   H     0.05492   0.79021   0.04504   0.00000  Uiso   1.00
H432   H     0.01689   0.84920   0.48919   0.00000  Uiso   1.00
H433   H     0.26014   0.90274   0.40236   0.00000  Uiso   1.00
H434   H     0.24580   0.86745   0.35814   0.00000  Uiso   1.00
H435   H     0.21112   0.90524   0.38901   0.00000  Uiso   1.00
H436   H     0.00925   0.87509   0.18171   0.00000  Uiso   1.00
H437   H     0.12553   0.99728   0.28840   0.00000  Uiso   1.00
H438   H     0.24279   0.76959   0.10552   0.00000  Uiso   1.00
H439   H     0.24009   0.98740   0.18007   0.00000  Uiso   1.00
H440   H     0.20650   0.69180   0.17677   0.00000  Uiso   1.00
H441   H     0.23900   0.70067   0.21674   0.00000  Uiso   1.00
H442   H     0.28673   0.83501   0.39225   0.00000  Uiso   1.00
H443   H     0.27752   0.76756   0.45526   0.00000  Uiso   1.00
H444   H     0.12501   0.84118   0.11458   0.00000  Uiso   1.00
O445   O     0.16667   0.83333   0.25000   0.00000  Uiso   1.00
O446   O     0.15451   0.79304   0.15459   0.00000  Uiso   1.00
O447   O     0.12940   0.87058   0.34968   0.00000  Uiso   1.00
O448   O     0.20824   0.84425   0.14606   0.00000  Uiso   1.00
O449   O     0.17451   0.82546   0.34968   0.00000  Uiso   1.00
O450   O     0.25793   0.77541   0.07407   0.00000  Uiso   1.00
O451   O     0.28087   0.83218   0.42493   0.00000  Uiso   1.00
O452   O     0.28157   0.77950   0.48486   0.00000  Uiso   1.00
O453   O     0.13266   0.84526   0.08211   0.00000  Uiso   1.00
O454   O     0.06614   0.87515   0.42574   0.00000  Uiso   1.00
O455   O     0.08665   0.79581   0.03891   0.00000  Uiso   1.00
O456   O     0.17930   0.74686   0.28214   0.00000  Uiso   1.00
O457   O     0.03239   0.83652   0.00664   0.00000  Uiso   1.00
O458   O     0.02437   0.86371   0.20056   0.00000  Uiso   1.00
O459   O     0.14632   0.92751   0.27014   0.00000  Uiso   1.00
O460   O     0.07412   0.79958   0.23413   0.00000  Uiso   1.00
O461   O     0.26693   0.85939   0.21361   0.00000  Uiso   1.00
O462   O     0.07071   0.85544   0.28213   0.00000  Uiso   1.00
O463   O     0.25491   0.81892   0.27014   0.00000  Uiso   1.00
O464   O     0.13760   0.73610   0.23413   0.00000  Uiso   1.00
O465   O     0.20345   0.92286   0.21361   0.00000  Uiso   1.00
Zn466  Zn    0.19338   0.80661   0.28734   0.00000  Uiso   1.00
Zn467  Zn    0.13379   0.79124   0.21876   0.00000  Uiso   1.00
Zn468  Zn    0.21056   0.86442   0.20657   0.00000  Uiso   1.00
Zn469  Zn    0.12893   0.87106   0.28734   0.00000  Uiso   1.00
C470   C     0.38600   0.82608   0.26044   0.00000  Uiso   1.00
C471   C     0.49970   0.82352   0.05863   0.00000  Uiso   1.00
C472   C     0.56496   0.79292   0.05485   0.00000  Uiso   1.00
C473   C     0.61438   0.84051   0.23963   0.00000  Uiso   1.00
C474   C     0.47019   0.85562   0.42084   0.00000  Uiso   1.00
C475   C     0.66088   0.84297   0.23455   0.00000  Uiso   1.00
C476   C     0.34080   0.82436   0.26384   0.00000  Uiso   1.00
C477   C     0.51502   0.98958   0.23551   0.00000  Uiso   1.00
C478   C     0.48580   0.67841   0.26327   0.00000  Uiso   1.00
C479   C     0.48890   0.72265   0.26075   0.00000  Uiso   1.00
C480   C     0.51023   0.94476   0.23991   0.00000  Uiso   1.00
C481   C     0.40921   0.83945   0.48513   0.00000  Uiso   1.00
C482   C     0.51877   0.81513   0.12920   0.00000  Uiso   1.00
C483   C     0.48184   0.85153   0.37103   0.00000  Uiso   1.00
C484   C     0.57791   0.79594   0.00834   0.00000  Uiso   1.00
C485   C     0.52700   0.80896   0.08040   0.00000  Uiso   1.00
C486   C     0.42656   0.85816   0.44414   0.00000  Uiso   1.00
C487   C     0.55229   0.67673   0.20024   0.00000  Uiso   1.00
C488   C     0.56635   0.88324   0.39169   0.00000  Uiso   1.00
C489   C     0.43657   0.82253   0.00469   0.00000  Uiso   1.00
C490   C     0.48191   0.83088   0.48747   0.00000  Uiso   1.00
C491   C     0.49904   0.84634   0.44436   0.00000  Uiso   1.00
C492   C     0.51067   0.82182   0.01119   0.00000  Uiso   1.00
C493   C     0.55296   0.81497   0.48706   0.00000  Uiso   1.00
C494   C     0.57050   0.83113   0.44446   0.00000  Uiso   1.00
C495   C     0.54450   0.85156   0.42596   0.00000  Uiso   1.00
H496   H     0.65171   0.80830   0.29145   0.00000  Uiso   1.00
H497   H     0.41561   0.90105   0.41237   0.00000  Uiso   1.00
H498   H     0.38826   0.79021   0.04504   0.00000  Uiso   1.00
H499   H     0.35022   0.84920   0.48919   0.00000  Uiso   1.00
H500   H     0.59347   0.90274   0.40236   0.00000  Uiso   1.00
H501   H     0.57913   0.86745   0.35814   0.00000  Uiso   1.00
H502   H     0.54446   0.90524   0.38901   0.00000  Uiso   1.00
H503   H     0.34258   0.87509   0.18171   0.00000  Uiso   1.00
H504   H     0.45886   0.99728   0.28840   0.00000  Uiso   1.00
H505   H     0.57612   0.76959   0.10552   0.00000  Uiso   1.00
H506   H     0.57342   0.98740   0.18007   0.00000  Uiso   1.00
H507   H     0.53984   0.69180   0.17677   0.00000  Uiso   1.00
H508   H     0.57233   0.70067   0.21674   0.00000  Uiso   1.00
H509   H     0.62007   0.83501   0.39225   0.00000  Uiso   1.00
H510   H     0.61085   0.76756   0.45526   0.00000  Uiso   1.00
H511   H     0.45835   0.84118   0.11458   0.00000  Uiso   1.00
O512   O     0.50000   0.83333   0.25000   0.00000  Uiso   1.00
O513   O     0.48784   0.79304   0.15459   0.00000  Uiso   1.00
O514   O     0.46274   0.87058   0.34968   0.00000  Uiso   1.00
O515   O     0.54157   0.84425   0.14606   0.00000  Uiso   1.00
O516   O     0.50785   0.82546   0.34968   0.00000  Uiso   1.00
O517   O     0.59126   0.77541   0.07407   0.00000  Uiso   1.00
O518   O     0.61420   0.83218   0.42493   0.00000  Uiso   1.00
O519   O     0.61491   0.77950   0.48486   0.00000  Uiso   1.00
O520   O     0.46599   0.84526   0.08211   0.00000  Uiso   1.00
O521   O     0.39947   0.87515   0.42574   0.00000  Uiso   1.00
O522   O     0.41998   0.79581   0.03891   0.00000  Uiso   1.00
O523   O     0.51264   0.74686   0.28214   0.00000  Uiso   1.00
O524   O     0.36572   0.83652   0.00664   0.00000  Uiso   1.00
O525   O     0.35771   0.86371   0.20056   0.00000  Uiso   1.00
O526   O     0.47965   0.92751   0.27014   0.00000  Uiso   1.00
O527   O     0.40745   0.79958   0.23413   0.00000  Uiso   1.00
O528   O     0.60026   0.85939   0.21361   0.00000  Uiso   1.00
O529   O     0.40405   0.85544   0.28213   0.00000  Uiso   1.00
O530   O     0.58824   0.81892   0.27014   0.00000  Uiso   1.00
O531   O     0.47093   0.73610   0.23413   0.00000  Uiso   1.00
O532   O     0.53678   0.92286   0.21361   0.00000  Uiso   1.00
Zn533  Zn    0.52672   0.80661   0.28734   0.00000  Uiso   1.00
Zn534  Zn    0.46713   0.79124   0.21876   0.00000  Uiso   1.00
Zn535  Zn    0.54389   0.86442   0.20657   0.00000  Uiso   1.00
Zn536  Zn    0.46226   0.87106   0.28734   0.00000  Uiso   1.00
C537   C     0.71933   0.82608   0.26044   0.00000  Uiso   1.00
C538   C     0.83304   0.82352   0.05863   0.00000  Uiso   1.00
C539   C     0.89829   0.79292   0.05485   0.00000  Uiso   1.00
C540   C     0.94771   0.84051   0.23963   0.00000  Uiso   1.00
C541   C     0.80352   0.85562   0.42084   0.00000  Uiso   1.00
C542   C     0.99422   0.84297   0.23455   0.00000  Uiso   1.00
C543   C     0.67413   0.82436   0.26384   0.00000  Uiso   1.00
C544   C     0.84835   0.98958   0.23551   0.00000  Uiso   1.00
C545   C     0.81913   0.67841   0.26327   0.00000  Uiso   1.00
C546   C     0.82224   0.72265   0.26075   0.00000  Uiso   1.00
C547   C     0.84356   0.94476   0.23991   0.00000  Uiso   1.00
C548   C     0.74254   0.83945   0.48513   0.00000  Uiso   1.00
C549   C     0.85210   0.81513   0.12920   0.00000  Uiso   1.00
C550   C     0.81517   0.85153   0.37103   0.00000  Uiso   1.00
C551   C     0.91125   0.79594   0.00834   0.00000  Uiso   1.00
C552   C     0.86034   0.80896   0.08040   0.00000  Uiso   1.00
C553   C     0.75989   0.85816   0.44414   0.00000  Uiso   1.00
C554   C     0.88562   0.67673   0.20024   0.00000  Uiso   1.00
C555   C     0.89968   0.88324   0.39169   0.00000  Uiso   1.00
C556   C     0.76990   0.82253   0.00469   0.00000  Uiso   1.00
C557   C     0.81524   0.83088   0.48747   0.00000  Uiso   1.00
C558   C     0.83237   0.84634   0.44436   0.00000  Uiso   1.00
C559   C     0.84401   0.82182   0.01119   0.00000  Uiso   1.00
C560   C     0.88630   0.81497   0.48706   0.00000  Uiso   1.00
C561   C     0.90383   0.83113   0.44446   0.00000  Uiso   1.00
C562   C     0.87783   0.85156   0.42596   0.00000  Uiso   1.00
H563   H     0.98504   0.80830   0.29145   0.00000  Uiso   1.00
H564   H     0.74894   0.90105   0.41237   0.00000  Uiso   1.00
H565   H     0.72159   0.79021   0.04504   0.00000  Uiso   1.00
H566   H     0.68355   0.84920   0.48919   0.00000  Uiso   1.00
H567   H     0.92681   0.90274   0.40236   0.00000  Uiso   1.00
H568   H     0.91247   0.86745   0.35814   0.00000  Uiso   1.00
H569   H     0.87779   0.90524   0.38901   0.00000  Uiso   1.00
H570   H     0.67592   0.87509   0.18171   0.00000  Uiso   1.00
H571   H     0.79219   0.99728   0.28840   0.00000  Uiso   1.00
H572   H     0.90945   0.76959   0.10552   0.00000  Uiso   1.00
H573   H     0.90675   0.98740   0.18007   0.00000  Uiso   1.00
H574   H     0.87317   0.69180   0.17677   0.00000  Uiso   1.00
H575   H     0.90566   0.70067   0.21674   0.00000  Uiso   1.00
H576   H     0.95340   0.83501   0.39225   0.00000  Uiso   1.00
H577   H     0.94419   0.76756   0.45526   0.00000  Uiso   1.00
H578   H     0.79168   0.84118   0.11458   0.00000  Uiso   1.00
O579   O     0.83333   0.83333   0.25000   0.00000  Uiso   1.00
O580   O     0.82118   0.79304   0.15459   0.00000  Uiso   1.00
O581   O     0.79607   0.87058   0.34968   0.00000  Uiso   1.00
O582   O     0.87491   0.84425   0.14606   0.00000  Uiso   1.00
O583   O     0.84118   0.82546   0.34968   0.00000  Uiso   1.00
O584   O     0.92460   0.77541   0.07407   0.00000  Uiso   1.00
O585   O     0.94754   0.83218   0.42493   0.00000  Uiso   1.00
O586   O     0.94824   0.77950   0.48486   0.00000  Uiso   1.00
O587   O     0.79933   0.84526   0.08211   0.00000  Uiso   1.00
O588   O     0.73281   0.87515   0.42574   0.00000  Uiso   1.00
O589   O     0.75332   0.79581   0.03891   0.00000  Uiso   1.00
O590   O     0.84597   0.74686   0.28214   0.00000  Uiso   1.00
O591   O     0.69906   0.83652   0.00664   0.00000  Uiso   1.00
O592   O     0.69104   0.86371   0.20056   0.00000  Uiso   1.00
O593   O     0.81298   0.92751   0.27014   0.00000  Uiso   1.00
O594   O     0.74078   0.79958   0.23413   0.00000  Uiso   1.00
O595   O     0.93360   0.85939   0.21361   0.00000  Uiso   1.00
O596   O     0.73738   0.85544   0.28213   0.00000  Uiso   1.00
O597   O     0.92158   0.81892   0.27014   0.00000  Uiso   1.00
O598   O     0.80426   0.73610   0.23413   0.00000  Uiso   1.00
O599   O     0.87012   0.92286   0.21361   0.00000  Uiso   1.00
Zn600  Zn    0.86005   0.80661   0.28734   0.00000  Uiso   1.00
Zn601  Zn    0.80046   0.79124   0.21876   0.00000  Uiso   1.00
Zn602  Zn    0.87723   0.86442   0.20657   0.00000  Uiso   1.00
Zn603  Zn    0.79560   0.87106   0.28734   0.00000  Uiso   1.00
C604   C     0.05267   0.15942   0.76044   0.00000  Uiso   1.00
C605   C     0.16637   0.15685   0.55863   0.00000  Uiso   1.00
C606   C     0.23162   0.12626   0.55485   0.00000  Uiso   1.00
C607   C     0.28105   0.17385   0.73963   0.00000  Uiso   1.00
C608   C     0.13686   0.18895   0.92084   0.00000  Uiso   1.00
C609   C     0.32755   0.17630   0.73455   0.00000  Uiso   1.00
C610   C     0.00747   0.15770   0.76384   0.00000  Uiso   1.00
C611   C     0.18168   0.32291   0.73551   0.00000  Uiso   1.00
C612   C     0.15247   0.01174   0.76327   0.00000  Uiso   1.00
C613   C     0.15557   0.05599   0.76075   0.00000  Uiso   1.00
C614   C     0.17690   0.27809   0.73991   0.00000  Uiso   1.00
C615   C     0.07587   0.17278   0.98513   0.00000  Uiso   1.00
C616   C     0.18544   0.14847   0.62920   0.00000  Uiso   1.00
C617   C     0.14851   0.18486   0.87103   0.00000  Uiso   1.00
C618   C     0.24458   0.12927   0.50834   0.00000  Uiso   1.00
C619   C     0.19367   0.14229   0.58040   0.00000  Uiso   1.00
C620   C     0.09322   0.19150   0.94414   0.00000  Uiso   1.00
C621   C     0.21896   0.01006   0.70024   0.00000  Uiso   1.00
C622   C     0.23302   0.21657   0.89169   0.00000  Uiso   1.00
C623   C     0.10324   0.15586   0.50469   0.00000  Uiso   1.00
C624   C     0.14858   0.16422   0.98747   0.00000  Uiso   1.00
C625   C     0.16570   0.17967   0.94436   0.00000  Uiso   1.00
C626   C     0.17734   0.15516   0.51119   0.00000  Uiso   1.00
C627   C     0.21963   0.14831   0.98706   0.00000  Uiso   1.00
C628   C     0.23716   0.16447   0.94446   0.00000  Uiso   1.00
C629   C     0.21117   0.18489   0.92596   0.00000  Uiso   1.00
H630   H     0.31838   0.14164   0.79145   0.00000  Uiso   1.00
H631   H     0.08228   0.23438   0.91237   0.00000  Uiso   1.00
H632   H     0.05492   0.12354   0.54504   0.00000  Uiso   1.00
H633   H     0.01689   0.18253   0.98919   0.00000  Uiso   1.00
H634   H     0.26014   0.23608   0.90236   0.00000  Uiso   1.00
H635   H     0.24580   0.20079   0.85814   0.00000  Uiso   1.00
H636   H     0.21112   0.23857   0.88901   0.00000  Uiso   1.00
H637   H     0.00925   0.20842   0.68171   0.00000  Uiso   1.00
H638   H     0.12553   0.33061   0.78840   0.00000  Uiso   1.00
H639   H     0.24279   0.10292   0.60552   0.00000  Uiso   1.00
H640   H     0.24009   0.32073   0.68007   0.00000  Uiso   1.00
H641   H     0.20650   0.02513   0.67677   0.00000  Uiso   1.00
H642   H     0.23900   0.03400   0.71674   0.00000  Uiso   1.00
H643   H     0.28673   0.16834   0.89225   0.00000  Uiso   1.00
H644   H     0.27752   0.10089   0.95526   0.00000  Uiso   1.00
H645   H     0.12501   0.17451   0.61458   0.00000  Uiso   1.00
O646   O     0.16667   0.16667   0.75000   0.00000  Uiso   1.00
O647   O     0.15451   0.12637   0.65459   0.00000  Uiso   1.00
O648   O     0.12940   0.20391   0.84968   0.00000  Uiso   1.00
O649   O     0.20824   0.17759   0.64606   0.00000  Uiso   1.00
O650   O     0.17451   0.15880   0.84968   0.00000  Uiso   1.00
O651   O     0.25793   0.10874   0.57407   0.00000  Uiso   1.00
O652   O     0.28087   0.16551   0.92493   0.00000  Uiso   1.00
O653   O     0.28157   0.11283   0.98486   0.00000  Uiso   1.00
O654   O     0.13266   0.17859   0.58211   0.00000  Uiso   1.00
O655   O     0.06614   0.20848   0.92574   0.00000  Uiso   1.00
O656   O     0.08665   0.12914   0.53891   0.00000  Uiso   1.00
O657   O     0.17930   0.08019   0.78214   0.00000  Uiso   1.00
O658   O     0.03239   0.16985   0.50664   0.00000  Uiso   1.00
O659   O     0.02437   0.19704   0.70056   0.00000  Uiso   1.00
O660   O     0.14632   0.26085   0.77014   0.00000  Uiso   1.00
O661   O     0.07412   0.13291   0.73413   0.00000  Uiso   1.00
O662   O     0.26693   0.19272   0.71361   0.00000  Uiso   1.00
O663   O     0.07071   0.18878   0.78213   0.00000  Uiso   1.00
O664   O     0.25491   0.15226   0.77014   0.00000  Uiso   1.00
O665   O     0.13760   0.06944   0.73413   0.00000  Uiso   1.00
O666   O     0.20345   0.25620   0.71361   0.00000  Uiso   1.00
Zn667  Zn    0.19338   0.13994   0.78734   0.00000  Uiso   1.00
Zn668  Zn    0.13379   0.12458   0.71876   0.00000  Uiso   1.00
Zn669  Zn    0.21056   0.19775   0.70657   0.00000  Uiso   1.00
Zn670  Zn    0.12893   0.20439   0.78734   0.00000  Uiso   1.00
C671   C     0.38600   0.15942   0.76044   0.00000  Uiso   1.00
C672   C     0.49970   0.15685   0.55863   0.00000  Uiso   1.00
C673   C     0.56496   0.12626   0.55485   0.00000  Uiso   1.00
C674   C     0.61438   0.17385   0.73963   0.00000  Uiso   1.00
C675   C     0.47019   0.18895   0.92084   0.00000  Uiso   1.00
C676   C     0.66088   0.17630   0.73455   0.00000  Uiso   1.00
C677   C     0.34080   0.15770   0.76384   0.00000  Uiso   1.00
C678   C     0.51502   0.32291   0.73551   0.00000  Uiso   1.00
C679   C     0.48580   0.01174   0.76327   0.00000  Uiso   1.00
C680   C     0.48890   0.05599   0.76075   0.00000  Uiso   1.00
C681   C     0.51023   0.27809   0.73991   0.00000  Uiso   1.00
C682   C     0.40921   0.17278   0.98513   0.00000  Uiso   1.00
C683   C     0.51877   0.14847   0.62920   0.00000  Uiso   1.00
C684   C     0.48184   0.18486   0.87103   0.00000  Uiso   1.00
C685   C     0.57791   0.12927   0.50834   0.00000  Uiso   1.00
C686   C     0.52700   0.14229   0.58040   0.00000  Uiso   1.00
C687   C     0.42656   0.19150   0.94414   0.00000  Uiso   1.00
C688   C     0.55229   0.01006   0.70024   0.00000  Uiso   1.00
C689   C     0.56635   0.21657   0.89169   0.00000  Uiso   1.00
C690   C     0.43657   0.15586   0.50469   0.00000  Uiso   1.00
C691   C     0.48191   0.16422   0.98747   0.00000  Uiso   1.00
C692   C     0.49904   0.17967   0.94436   0.00000  Uiso   1.00
C693   C     0.51067   0.15516   0.51119   0.00000  Uiso   1.00
C694   C     0.55296   0.14831   0.98706   0.00000  Uiso   1.00
C695   C     0.57050   0.16447   0.94446   0.00000  Uiso   1.00
C696   C     0.54450   0.18489   0.92596   0.00000  Uiso   1.00
H697   H     0.65171   0.14164   0.79145   0.00000  Uiso   1.00
H698   H     0.41561   0.23438   0.91237   0.00000  Uiso   1.00
H699   H     0.38826   0.12354   0.54504   0.00000  Uiso   1.00
H700   H     0.35022   0.18253   0.98919   0.00000  Uiso   1.00
H701   H     0.59347   0.23608   0.90236   0.00000  Uiso   1.00
H702   H     0.57913   0.20079   0.85814   0.00000  Uiso   1.00
H703   H     0.54446   0.23857   0.88901   0.00000  Uiso   1.00
H704   H     0.34258   0.20842   0.68171   0.00000  Uiso   1.00
H705   H     0.45886   0.33061   0.78840   0.00000  Uiso   1.00
H706   H     0.57612   0.10292   0.60552   0.00000  Uiso   1.00
H707   H     0.57342   0.32073   0.68007   0.00000  Uiso   1.00
H708   H     0.53984   0.02513   0.67677   0.00000  Uiso   1.00
H709   H     0.57233   0.03400   0.71674   0.00000  Uiso   1.00
H710   H     0.62007   0.16834   0.89225   0.00000  Uiso   1.00
H711   H     0.61085   0.10089   0.95526   0.00000  Uiso   1.00
H712   H     0.45835   0.17451   0.61458   0.00000  Uiso   1.00
O713   O     0.50000   0.16667   0.75000   0.00000  Uiso   1.00
O714   O     0.48784   0.12637   0.65459   0.00000  Uiso   1.00
O715   O     0.46274   0.20391   0.84968   0.00000  Uiso   1.00
O716   O     0.54157   0.17759   0.64606   0.00000  Uiso   1.00
O717   O     0.50785   0.15880   0.84968   0.00000  Uiso   1.00
O718   O     0.59126   0.10874   0.57407   0.00000  Uiso   1.00
O719   O     0.61420   0.16551   0.92493   0.00000  Uiso   1.00
O720   O     0.61491   0.11283   0.98486   0.00000  Uiso   1.00
O721   O     0.46599   0.17859   0.58211   0.00000  Uiso   1.00
O722   O     0.39947   0.20848   0.92574   0.00000  Uiso   1.00
O723   O     0.41998   0.12914   0.53891   0.00000  Uiso   1.00
O724   O     0.51264   0.08019   0.78214   0.00000  Uiso   1.00
O725   O     0.36572   0.16985   0.50664   0.00000  Uiso   1.00
O726   O     0.35771   0.19704   0.70056   0.00000  Uiso   1.00
O727   O     0.47965   0.26085   0.77014   0.00000  Uiso   1.00
O728   O     0.40745   0.13291   0.73413   0.00000  Uiso   1.00
O729   O     0.60026   0.19272   0.71361   0.00000  Uiso   1.00
O730   O     0.40405   0.18878   0.78213   0.00000  Uiso   1.00
O731   O     0.58824   0.15226   0.77014   0.00000  Uiso   1.00
O732   O     0.47093   0.06944   0.73413   0.00000  Uiso   1.00
O733   O     0.53678   0.25620   0.71361   0.00000  Uiso   1.00
Zn734  Zn    0.52672   0.13994   0.78734   0.00000  Uiso   1.00
Zn735  Zn    0.46713   0.12458   0.71876   0.00000  Uiso   1.00
Zn736  Zn    0.54389   0.19775   0.70657   0.00000  Uiso   1.00
Zn737  Zn    0.46226   0.20439   0.78734   0.00000  Uiso   1.00
C738   C     0.71933   0.15942   0.76044   0.00000  Uiso   1.00
C739   C     0.83304   0.15685   0.55863   0.00000  Uiso   1.00
C740   C     0.89829   0.12626   0.55485   0.00000  Uiso   1.00
C741   C     0.94771   0.17385   0.73963   0.00000  Uiso   1.00
C742   C     0.80352   0.18895   0.92084   0.00000  Uiso   1.00
C743   C     0.99422   0.17630   0.73455   0.00000  Uiso   1.00
C744   C     0.67413   0.15770   0.76384   0.00000  Uiso   1.00
C745   C     0.84835   0.32291   0.73551   0.00000  Uiso   1.00
C746   C     0.81913   0.01174   0.76327   0.00000  Uiso   1.00
C747   C     0.82224   0.05599   0.76075   0.00000  Uiso   1.00
C748   C     0.84356   0.27809   0.73991   0.00000  Uiso   1.00
C749   C     0.74254   0.17278   0.98513   0.00000  Uiso   1.00
C750   C     0.85210   0.14847   0.62920   0.00000  Uiso   1.00
C751   C     0.81517   0.18486   0.87103   0.00000  Uiso   1.00
C752   C     0.91125   0.12927   0.50834   0.00000  Uiso   1.00
C753   C     0.86034   0.14229   0.58040   0.00000  Uiso   1.00
C754   C     0.75989   0.19150   0.94414   0.00000  Uiso   1.00
C755   C     0.88562   0.01006   0.70024   0.00000  Uiso   1.00
C756   C     0.89968   0.21657   0.89169   0.00000  Uiso   1.00
C757   C     0.76990   0.15586   0.50469   0.00000  Uiso   1.00
C758   C     0.81524   0.16422   0.98747   0.00000  Uiso   1.00
C759   C     0.83237   0.17967   0.94436   0.00000  Uiso   1.00
C760   C     0.84401   0.15516   0.51119   0.00000  Uiso   1.00
C761   C     0.88630   0.14831   0.98706   0.00000  Uiso   1.00
C762   C     0.90383   0.16447   0.94446   0.00000  Uiso   1.00
C763   C     0.87783   0.18489   0.92596   0.00000  Uiso   1.00
H764   H     0.98504   0.14164   0.79145   0.00000  Uiso   1.00
H765   H     0.74894   0.23438   0.91237   0.00000  Uiso   1.00
H766   H     0.72159   0.12354   0.54504   0.00000  Uiso   1.00
H767   H     0.68355   0.18253   0.98919   0.00000  Uiso   1.00
H768   H     0.92681   0.23608   0.90236   0.00000  Uiso   1.00
H769   H     0.91247   0.20079   0.85814   0.00000  Uiso   1.00
H770   H     0.87779   0.23857   0.88901   0.00000  Uiso   1.00
H771   H     0.67592   0.20842   0.68171   0.00000  Uiso   1.00
H772   H     0.79219   0.33061   0.78840   0.00000  Uiso   1.00
H773   H     0.90945   0.10292   0.60552   0.00000  Uiso   1.00
H774   H     0.90675   0.32073   0.68007   0.00000  Uiso   1.00
H775   H     0.87317   0.02513   0.67677   0.00000  Uiso   1.00
H776   H     0.90566   0.03400   0.71674   0.00000  Uiso   1.00
H777   H     0.95340   0.16834   0.89225   0.00000  Uiso   1.00
H778   H     0.94419   0.10089   0.95526   0.00000  Uiso   1.00
H779   H     0.79168   0.17451   0.61458   0.00000  Uiso   1.00
O780   O     0.83333   0.16667   0.75000   0.00000  Uiso   1.00
O781   O     0.82118   0.12637   0.65459   0.00000  Uiso   1.00
O782   O     0.79607   0.20391   0.84968   0.00000  Uiso   1.00
O783   O     0.87491   0.17759   0.64606   0.00000  Uiso   1.00
O784   O     0.84118   0.15880   0.84968   0.00000  Uiso   1.00
O785   O     0.92460   0.10874   0.57407   0.00000  Uiso   1.00
O786   O     0.94754   0.16551   0.92493   0.00000  Uiso   1.00
O787   O     0.94824   0.11283   0.98486   0.00000  Uiso   1.00
O788   O     0.79933   0.17859   0.58211   0.00000  Uiso   1.00
O789   O     0.73281   0.20848   0.92574   0.00000  Uiso   1.00
O790   O     0.75332   0.12914   0.53891   0.00000  Uiso   1.00
O791   O     0.84597   0.08019   0.78214   0.00000  Uiso   1.00
O792   O     0.69906   0.16985   0.50664   0.00000  Uiso   1.00
O793   O     0.69104   0.19704   0.70056   0.00000  Uiso   1.00
O794   O     0.81298   0.26085   0.77014   0.00000  Uiso   1.00
O795   O     0.74078   0.13291   0.73413   0.00000  Uiso   1.00
O796   O     0.93360   0.19272   0.71361   0.00000  Uiso   1.00
O797   O     0.73738   0.18878   0.78213   0.00000  Uiso   1.00
O798   O     0.92158   0.15226   0.77014   0.00000  Uiso   1.00
O799   O     0.80426   0.06944   0.73413   0.00000  Uiso   1.00
O800   O     0.87012   0.25620   0.71361   0.00000  Uiso   1.00
Zn801  Zn    0.86005   0.13994   0.78734   0.00000  Uiso   1.00
Zn802  Zn    0.80046   0.12458   0.71876   0.00000  Uiso   1.00
Zn803  Zn    0.87723   0.19775   0.70657   0.00000  Uiso   1.00
Zn804  Zn    0.79560   0.20439   0.78734   0.00000  Uiso   1.00
C805   C     0.05267   0.49275   0.76044   0.00000  Uiso   1.00
C806   C     0.16637   0.49018   0.55863   0.00000  Uiso   1.00
C807   C     0.23162   0.45959   0.55485   0.00000  Uiso   1.00
C808   C     0.28105   0.50718   0.73963   0.00000  Uiso   1.00
C809   C     0.13686   0.52229   0.92084   0.00000  Uiso   1.00
C810   C     0.32755   0.50964   0.73455   0.00000  Uiso   1.00
C811   C     0.00747   0.49103   0.76384   0.00000  Uiso   1.00
C812   C     0.18168   0.65625   0.73551   0.00000  Uiso   1.00
C813   C     0.15247   0.34507   0.76327   0.00000  Uiso   1.00
C814   C     0.15557   0.38932   0.76075   0.00000  Uiso   1.00
C815   C     0.17690   0.61142   0.73991   0.00000  Uiso   1.00
C816   C     0.07587   0.50612   0.98513   0.00000  Uiso   1.00
C817   C     0.18544   0.48180   0.62920   0.00000  Uiso   1.00
C818   C     0.14851   0.51819   0.87103   0.00000  Uiso   1.00
C819   C     0.24458   0.46261   0.50834   0.00000  Uiso   1.00
C820   C     0.19367   0.47563   0.58040   0.00000  Uiso   1.00
C821   C     0.09322   0.52483   0.94414   0.00000  Uiso   1.00
C822   C     0.21896   0.34340   0.70024   0.00000  Uiso   1.00
C823   C     0.23302   0.54991   0.89169   0.00000  Uiso   1.00
C824   C     0.10324   0.48920   0.50469   0.00000  Uiso   1.00
C825   C     0.14858   0.49755   0.98747   0.00000  Uiso   1.00
C826   C     0.16570   0.51301   0.94436   0.00000  Uiso   1.00
C827   C     0.17734   0.48849   0.51119   0.00000  Uiso   1.00
C828   C     0.21963   0.48164   0.98706   0.00000  Uiso   1.00
C829   C     0.23716   0.49780   0.94446   0.00000  Uiso   1.00
C830   C     0.21117   0.51822   0.92596   0.00000  Uiso   1.00
H831   H     0.31838   0.47497   0.79145   0.00000  Uiso   1.00
H832   H     0.08228   0.56771   0.91237   0.00000  Uiso   1.00
H833   H     0.05492   0.45687   0.54504   0.00000  Uiso   1.00
H834   H     0.01689   0.51586   0.98919   0.00000  Uiso   1.00
H835   H     0.26014   0.56941   0.90236   0.00000  Uiso   1.00
H836   H     0.24580   0.53412   0.85814   0.00000  Uiso   1.00
H837   H     0.21112   0.57190   0.88901   0.00000  Uiso   1.00
H838   H     0.00925   0.54175   0.68171   0.00000  Uiso   1.00
H839   H     0.12553   0.66395   0.78840   0.00000  Uiso   1.00
H840   H     0.24279   0.43625   0.60552   0.00000  Uiso   1.00
H841   H     0.24009   0.65406   0.68007   0.00000  Uiso   1.00
H842   H     0.20650   0.35846   0.67677   0.00000  Uiso   1.00
H843   H     0.23900   0.36733   0.71674   0.00000  Uiso   1.00
H844   H     0.28673   0.50167   0.89225   0.00000  Uiso   1.00
H845   H     0.27752   0.43422   0.95526   0.00000  Uiso   1.00
H846   H     0.12501   0.50785   0.61458   0.00000  Uiso   1.00
O847   O     0.16667   0.50000   0.75000   0.00000  Uiso   1.00
O848   O     0.15451   0.45970   0.65459   0.00000  Uiso   1.00
O849   O     0.12940   0.53724   0.84968   0.00000  Uiso   1.00
O850   O     0.20824   0.51092   0.64606   0.00000  Uiso   1.00
O851   O     0.17451   0.49213   0.84968   0.00000  Uiso   1.00
O852   O     0.25793   0.44207   0.57407   0.00000  Uiso   1.00
O853   O     0.28087   0.49885   0.92493   0.00000  Uiso   1.00
O854   O     0.28157   0.44617   0.98486   0.00000  Uiso   1.00
O855   O     0.13266   0.51193   0.58211   0.00000  Uiso   1.00
O856   O     0.06614   0.54181   0.92574   0.00000  Uiso   1.00
O857   O     0.08665   0.46248   0.53891   0.00000  Uiso   1.00
O858   O     0.17930   0.41352   0.78214   0.00000  Uiso   1.00
O859   O     0.03239   0.50318   0.50664   0.00000  Uiso   1.00
O860   O     0.02437   0.53038   0.70056   0.00000  Uiso   1.00
O861   O     0.14632   0.59418   0.77014   0.00000  Uiso   1.00
O862   O     0.07412   0.46625   0.73413   0.00000  Uiso   1.00
O863   O     0.26693   0.52605   0.71361   0.00000  Uiso   1.00
O864   O     0.07071   0.52211   0.78213   0.00000  Uiso   1.00
O865   O     0.25491   0.48559   0.77014   0.00000  Uiso   1.00
O866   O     0.13760   0.40277   0.73413   0.00000  Uiso   1.00
O867   O     0.20345   0.58953   0.71361   0.00000  Uiso   1.00
Zn868  Zn    0.19338   0.47327   0.78734   0.00000  Uiso   1.00
Zn869  Zn    0.13379   0.45791   0.71876   0.00000  Uiso   1.00
Zn870  Zn    0.21056   0.53109   0.70657   0.00000  Uiso   1.00
Zn871  Zn    0.12893   0.53773   0.78734   0.00000  Uiso   1.00
C872   C     0.38600   0.49275   0.76044   0.00000  Uiso   1.00
C873   C     0.49970   0.49018   0.55863   0.00000  Uiso   1.00
C874   C     0.56496   0.45959   0.55485   0.00000  Uiso   1.00
C875   C     0.61438   0.50718   0.73963   0.00000  Uiso   1.00
C876   C     0.47019   0.52229   0.92084   0.00000  Uiso   1.00
C877   C     0.66088   0.50964   0.73455   0.00000  Uiso   1.00
C878   C     0.34080   0.49103   0.76384   0.00000  Uiso   1.00
C879   C     0.51502   0.65625   0.73551   0.00000  Uiso   1.00
C880   C     0.48580   0.34507   0.76327   0.00000  Uiso   1.00
C881   C     0.48890   0.38932   0.76075   0.00000  Uiso   1.00
C882   C     0.51023   0.61142   0.73991   0.00000  Uiso   1.00
C883   C     0.40921   0.50612   0.98513   0.00000  Uiso   1.00
C884   C     0.51877   0.48180   0.62920   0.00000  Uiso   1.00
C885   C     0.48184   0.51819   0.87103   0.00000  Uiso   1.00
C886   C     0.57791   0.46261   0.50834   0.00000  Uiso   1.00
C887   C     0.52700   0.47563   0.58040   0.00000  Uiso   1.00
C888   C     0.42656   0.52483   0.94414   0.00000  Uiso   1.00
C889   C     0.55229   0.34340   0.70024   0.00000  Uiso   1.00
C890   C     0.56635   0.54991   0.89169   0.00000  Uiso   1.00
C891   C     0.43657   0.48920   0.50469   0.00000  Uiso   1.00
C892   C     0.48191   0.49755   0.98747   0.00000  Uiso   1.00
C893   C     0.49904   0.51301   0.94436   0.00000  Uiso   1.00
C894   C     0.51067   0.48849   0.51119   0.00000  Uiso   1.00
C895   C     0.55296   0.48164   0.98706   0.00000  Uiso   1.00
C896   C     0.57050   0.49780   0.94446   0.00000  Uiso   1.00
C897   C     0.54450   0.51822   0.92596   0.00000  Uiso   1.00
H898   H     0.65171   0.47497   0.79145   0.00000  Uiso   1.00
H899   H     0.41561   0.56771   0.91237   0.00000  Uiso   1.00
H900   H     0.38826   0.45687   0.54504   0.00000  Uiso   1.00
H901   H     0.35022   0.51586   0.98919   0.00000  Uiso   1.00
H902   H     0.59347   0.56941   0.90236   0.00000  Uiso   1.00
H903   H     0.57913   0.53412   0.85814   0.00000  Uiso   1.00
H904   H     0.54446   0.57190   0.88901   0.00000  Uiso   1.00
H905   H     0.34258   0.54175   0.68171   0.00000  Uiso   1.00
H906   H     0.45886   0.66395   0.78840   0.00000  Uiso   1.00
H907   H     0.57612   0.43625   0.60552   0.00000  Uiso   1.00
H908   H     0.57342   0.65406   0.68007   0.00000  Uiso   1.00
H909   H     0.53984   0.35846   0.67677   0.00000  Uiso   1.00
H910   H     0.57233   0.36733   0.71674   0.00000  Uiso   1.00
H911   H     0.62007   0.50167   0.89225   0.00000  Uiso   1.00
H912   H     0.61085   0.43422   0.95526   0.00000  Uiso   1.00
H913   H     0.45835   0.50785   0.61458   0.00000  Uiso   1.00
O914   O     0.50000   0.50000   0.75000   0.00000  Uiso   1.00
O915   O     0.48784   0.45970   0.65459   0.00000  Uiso   1.00
O916   O     0.46274   0.53724   0.84968   0.00000  Uiso   1.00
O917   O     0.54157   0.51092   0.64606   0.00000  Uiso   1.00
O918   O     0.50785   0.49213   0.84968   0.00000  Uiso   1.00
O919   O     0.59126   0.44207   0.57407   0.00000  Uiso   1.00
O920   O     0.61420   0.49885   0.92493   0.00000  Uiso   1.00
O921   O     0.61491   0.44617   0.98486   0.00000  Uiso   1.00
O922   O     0.46599   0.51193   0.58211   0.00000  Uiso   1.00
O923   O     0.39947   0.54181   0.92574   0.00000  Uiso   1.00
O924   O     0.41998   0.46248   0.53891   0.00000  Uiso   1.00
O925   O     0.51264   0.41352   0.78214   0.00000  Uiso   1.00
O926   O     0.36572   0.50318   0.50664   0.00000  Uiso   1.00
O927   O     0.35771   0.53038   0.70056   0.00000  Uiso   1.00
O928   O     0.47965   0.59418   0.77014   0.00000  Uiso   1.00
O929   O     0.40745   0.46625   0.73413   0.00000  Uiso   1.00
O930   O     0.60026   0.52605   0.71361   0.00000  Uiso   1.00
O931   O     0.40405   0.52211   0.78213   0.00000  Uiso   1.00
O932   O     0.58824   0.48559   0.77014   0.00000  Uiso   1.00
O933   O     0.47093   0.40277   0.73413   0.00000  Uiso   1.00
O934   O     0.53678   0.58953   0.71361   0.00000  Uiso   1.00
Zn935  Zn    0.52672   0.47327   0.78734   0.00000  Uiso   1.00
Zn936  Zn    0.46713   0.45791   0.71876   0.00000  Uiso   1.00
Zn937  Zn    0.54389   0.53109   0.70657   0.00000  Uiso   1.00
Zn938  Zn    0.46226   0.53773   0.78734   0.00000  Uiso   1.00
C939   C     0.71933   0.49275   0.76044   0.00000  Uiso   1.00
C940   C     0.83304   0.49018   0.55863   0.00000  Uiso   1.00
C941   C     0.89829   0.45959   0.55485   0.00000  Uiso   1.00
C942   C     0.94771   0.50718   0.73963   0.00000  Uiso   1.00
C943   C     0.80352   0.52229   0.92084   0.00000  Uiso   1.00
C944   C     0.99422   0.50964   0.73455   0.00000  Uiso   1.00
C945   C     0.67413   0.49103   0.76384   0.00000  Uiso   1.00
C946   C     0.84835   0.65625   0.73551   0.00000  Uiso   1.00
C947   C     0.81913   0.34507   0.76327   0.00000  Uiso   1.00
C948   C     0.82224   0.38932   0.76075   0.00000  Uiso   1.00
C949   C     0.84356   0.61142   0.73991   0.00000  Uiso   1.00
C950   C     0.74254   0.50612   0.98513   0.00000  Uiso   1.00
C951   C     0.85210   0.48180   0.62920   0.00000  Uiso   1.00
C952   C     0.81517   0.51819   0.87103   0.00000  Uiso   1.00
C953   C     0.91125   0.46261   0.50834   0.00000  Uiso   1.00
C954   C     0.86034   0.47563   0.58040   0.00000  Uiso   1.00
C955   C     0.75989   0.52483   0.94414   0.00000  Uiso   1.00
C956   C     0.88562   0.34340   0.70024   0.00000  Uiso   1.00
C957   C     0.89968   0.54991   0.89169   0.00000  Uiso   1.00
C958   C     0.76990   0.48920   0.50469   0.00000  Uiso   1.00
C959   C     0.81524   0.49755   0.98747   0.00000  Uiso   1.00
C960   C     0.83237   0.51301   0.94436   0.00000  Uiso   1.00
C961   C     0.84401   0.48849   0.51119   0.00000  Uiso   1.00
C962   C     0.88630   0.48164   0.98706   0.00000  Uiso   1.00
C963   C     0.90383   0.49780   0.94446   0.00000  Uiso   1.00
C964   C     0.87783   0.51822   0.92596   0.00000  Uiso   1.00
H965   H     0.98504   0.47497   0.79145   0.00000  Uiso   1.00
H966   H     0.74894   0.56771   0.91237   0.00000  Uiso   1.00
H967   H     0.72159   0.45687   0.54504   0.00000  Uiso   1.00
H968   H     0.68355   0.51586   0.98919   0.00000  Uiso   1.00
H969   H     0.92681   0.56941   0.90236   0.00000  Uiso   1.00
H970   H     0.91247   0.53412   0.85814   0.00000  Uiso   1.00
H971   H     0.87779   0.57190   0.88901   0.00000  Uiso   1.00
H972   H     0.67592   0.54175   0.68171   0.00000  Uiso   1.00
H973   H     0.79219   0.66395   0.78840   0.00000  Uiso   1.00
H974   H     0.90945   0.43625   0.60552   0.00000  Uiso   1.00
H975   H     0.90675   0.65406   0.68007   0.00000  Uiso   1.00
H976   H     0.87317   0.35846   0.67677   0.00000  Uiso   1.00
H977   H     0.90566   0.36733   0.71674   0.00000  Uiso   1.00
H978   H     0.95340   0.50167   0.89225   0.00000  Uiso   1.00
H979   H     0.94419   0.43422   0.95526   0.00000  Uiso   1.00
H980   H     0.79168   0.50785   0.61458   0.00000  Uiso   1.00
O981   O     0.83333   0.50000   0.75000   0.00000  Uiso   1.00
O982   O     0.82118   0.45970   0.65459   0.00000  Uiso   1.00
O983   O     0.79607   0.53724   0.84968   0.00000  Uiso   1.00
O984   O     0.87491   0.51092   0.64606   0.00000  Uiso   1.00
O985   O     0.84118   0.49213   0.84968   0.00000  Uiso   1.00
O986   O     0.92460   0.44207   0.57407   0.00000  Uiso   1.00
O987   O     0.94754   0.49885   0.92493   0.00000  Uiso   1.00
O988   O     0.94824   0.44617   0.98486   0.00000  Uiso   1.00
O989   O     0.79933   0.51193   0.58211   0.00000  Uiso   1.00
O990   O     0.73281   0.54181   0.92574   0.00000  Uiso   1.00
O991   O     0.75332   0.46248   0.53891   0.00000  Uiso   1.00
O992   O     0.84597   0.41352   0.78214   0.00000  Uiso   1.00
O993   O     0.69906   0.50318   0.50664   0.00000  Uiso   1.00
O994   O     0.69104   0.53038   0.70056   0.00000  Uiso   1.00
O995   O     0.81298   0.59418   0.77014   0.00000  Uiso   1.00
O996   O     0.74078   0.46625   0.73413   0.00000  Uiso   1.00
O997   O     0.93360   0.52605   0.71361   0.00000  Uiso   1.00
O998   O     0.73738   0.52211   0.78213   0.00000  Uiso   1.00
O999   O     0.92158   0.48559   0.77014   0.00000  Uiso   1.00
O1000  O     0.80426   0.40277   0.73413   0.00000  Uiso   1.00
O1001  O     0.87012   0.58953   0.71361   0.00000  Uiso   1.00
Zn1002 Zn    0.86005   0.47327   0.78734   0.00000  Uiso   1.00
Zn1003 Zn    0.80046   0.45791   0.71876   0.00000  Uiso   1.00
Zn1004 Zn    0.87723   0.53109   0.70657   0.00000  Uiso   1.00
Zn1005 Zn    0.79560   0.53773   0.78734   0.00000  Uiso   1.00
C1006  C     0.05267   0.82608   0.76044   0.00000  Uiso   1.00
C1007  C     0.16637   0.82352   0.55863   0.00000  Uiso   1.00
C1008  C     0.23162   0.79292   0.55485   0.00000  Uiso   1.00
C1009  C     0.28105   0.84051   0.73963   0.00000  Uiso   1.00
C1010  C     0.13686   0.85562   0.92084   0.00000  Uiso   1.00
C1011  C     0.32755   0.84297   0.73455   0.00000  Uiso   1.00
C1012  C     0.00747   0.82436   0.76384   0.00000  Uiso   1.00
C1013  C     0.18168   0.98958   0.73551   0.00000  Uiso   1.00
C1014  C     0.15247   0.67841   0.76327   0.00000  Uiso   1.00
C1015  C     0.15557   0.72265   0.76075   0.00000  Uiso   1.00
C1016  C     0.17690   0.94476   0.73991   0.00000  Uiso   1.00
C1017  C     0.07587   0.83945   0.98513   0.00000  Uiso   1.00
C1018  C     0.18544   0.81513   0.62920   0.00000  Uiso   1.00
C1019  C     0.14851   0.85153   0.87103   0.00000  Uiso   1.00
C1020  C     0.24458   0.79594   0.50834   0.00000  Uiso   1.00
C1021  C     0.19367   0.80896   0.58040   0.00000  Uiso   1.00
C1022  C     0.09322   0.85816   0.94414   0.00000  Uiso   1.00
C1023  C     0.21896   0.67673   0.70024   0.00000  Uiso   1.00
C1024  C     0.23302   0.88324   0.89169   0.00000  Uiso   1.00
C1025  C     0.10324   0.82253   0.50469   0.00000  Uiso   1.00
C1026  C     0.14858   0.83088   0.98747   0.00000  Uiso   1.00
C1027  C     0.16570   0.84634   0.94436   0.00000  Uiso   1.00
C1028  C     0.17734   0.82182   0.51119   0.00000  Uiso   1.00
C1029  C     0.21963   0.81497   0.98706   0.00000  Uiso   1.00
C1030  C     0.23716   0.83113   0.94446   0.00000  Uiso   1.00
C1031  C     0.21117   0.85156   0.92596   0.00000  Uiso   1.00
H1032  H     0.31838   0.80830   0.79145   0.00000  Uiso   1.00
H1033  H     0.08228   0.90105   0.91237   0.00000  Uiso   1.00
H1034  H     0.05492   0.79021   0.54504   0.00000  Uiso   1.00
H1035  H     0.01689   0.84920   0.98919   0.00000  Uiso   1.00
H1036  H     0.26014   0.90274   0.90236   0.00000  Uiso   1.00
H1037  H     0.24580   0.86745   0.85814   0.00000  Uiso   1.00
H1038  H     0.21112   0.90524   0.88901   0.00000  Uiso   1.00
H1039  H     0.00925   0.87509   0.68171   0.00000  Uiso   1.00
H1040  H     0.12553   0.99728   0.78840   0.00000  Uiso   1.00
H1041  H     0.24279   0.76959   0.60552   0.00000  Uiso   1.00
H1042  H     0.24009   0.98740   0.68007   0.00000  Uiso   1.00
H1043  H     0.20650   0.69180   0.67677   0.00000  Uiso   1.00
H1044  H     0.23900   0.70067   0.71674   0.00000  Uiso   1.00
H1045  H     0.28673   0.83501   0.89225   0.00000  Uiso   1.00
H1046  H     0.27752   0.76756   0.95526   0.00000  Uiso   1.00
H1047  H     0.12501   0.84118   0.61458   0.00000  Uiso   1.00
O1048  O     0.16667   0.83333   0.75000   0.00000  Uiso   1.00
O1049  O     0.15451   0.79304   0.65459   0.00000  Uiso   1.00
O1050  O     0.12940   0.87058   0.84968   0.00000  Uiso   1.00
O1051  O     0.20824   0.84425   0.64606   0.00000  Uiso   1.00
O1052  O     0.17451   0.82546   0.84968   0.00000  Uiso   1.00
O1053  O     0.25793   0.77541   0.57407   0.00000  Uiso   1.00
O1054  O     0.28087   0.83218   0.92493   0.00000  Uiso   1.00
O1055  O     0.28157   0.77950   0.98486   0.00000  Uiso   1.00
O1056  O     0.13266   0.84526   0.58211   0.00000  Uiso   1.00
O1057  O     0.06614   0.87515   0.92574   0.00000  Uiso   1.00
O1058  O     0.08665   0.79581   0.53891   0.00000  Uiso   1.00
O1059  O     0.17930   0.74686   0.78214   0.00000  Uiso   1.00
O1060  O     0.03239   0.83652   0.50664   0.00000  Uiso   1.00
O1061  O     0.02437   0.86371   0.70056   0.00000  Uiso   1.00
O1062  O     0.14632   0.92751   0.77014   0.00000  Uiso   1.00
O1063  O     0.07412   0.79958   0.73413   0.00000  Uiso   1.00
O1064  O     0.26693   0.85939   0.71361   0.00000  Uiso   1.00
O1065  O     0.07071   0.85544   0.78213   0.00000  Uiso   1.00
O1066  O     0.25491   0.81892   0.77014   0.00000  Uiso   1.00
O1067  O     0.13760   0.73610   0.73413   0.00000  Uiso   1.00
O1068  O     0.20345   0.92286   0.71361   0.00000  Uiso   1.00
Zn1069 Zn    0.19338   0.80661   0.78734   0.00000  Uiso   1.00
Zn1070 Zn    0.13379   0.79124   0.71876   0.00000  Uiso   1.00
Zn1071 Zn    0.21056   0.86442   0.70657   0.00000  Uiso   1.00
Zn1072 Zn    0.12893   0.87106   0.78734   0.00000  Uiso   1.00
C1073  C     0.38600   0.82608   0.76044   0.00000  Uiso   1.00
C1074  C     0.49970   0.82352   0.55863   0.00000  Uiso   1.00
C1075  C     0.56496   0.79292   0.55485   0.00000  Uiso   1.00
C1076  C     0.61438   0.84051   0.73963   0.00000  Uiso   1.00
C1077  C     0.47019   0.85562   0.92084   0.00000  Uiso   1.00
C1078  C     0.66088   0.84297   0.73455   0.00000  Uiso   1.00
C1079  C     0.34080   0.82436   0.76384   0.00000  Uiso   1.00
C1080  C     0.51502   0.98958   0.73551   0.00000  Uiso   1.00
C1081  C     0.48580   0.67841   0.76327   0.00000  Uiso   1.00
C1082  C     0.48890   0.72265   0.76075   0.00000  Uiso   1.00
C1083  C     0.51023   0.94476   0.73991   0.00000  Uiso   1.00
C1084  C     0.40921   0.83945   0.98513   0.00000  Uiso   1.00
C1085  C     0.51877   0.81513   0.62920   0.00000  Uiso   1.00
C1086  C     0.48184   0.85153   0.87103   0.00000  Uiso   1.00
C1087  C     0.57791   0.79594   0.50834   0.00000  Uiso   1.00
C1088  C     0.52700   0.80896   0.58040   0.00000  Uiso   1.00
C1089  C     0.42656   0.85816   0.94414   0.00000  Uiso   1.00
C1090  C     0.55229   0.67673   0.70024   0.00000  Uiso   1.00
C1091  C     0.56635   0.88324   0.89169   0.00000  Uiso   1.00
C1092  C     0.43657   0.82253   0.50469   0.00000  Uiso   1.00
C1093  C     0.48191   0.83088   0.98747   0.00000  Uiso   1.00
C1094  C     0.49904   0.84634   0.94436   0.00000  Uiso   1.00
C1095  C     0.51067   0.82182   0.51119   0.00000  Uiso   1.00
C1096  C     0.55296   0.81497   0.98706   0.00000  Uiso   1.00
C1097  C     0.57050   0.83113   0.94446   0.00000  Uiso   1.00
C1098  C     0.54450   0.85156   0.92596   0.00000  Uiso   1.00
H1099  H     0.65171   0.80830   0.79145   0.00000  Uiso   1.00
H1100  H     0.41561   0.90105   0.91237   0.00000  Uiso   1.00
H1101  H     0.38826   0.79021   0.54504   0.00000  Uiso   1.00
H1102  H     0.35022   0.84920   0.98919   0.00000  Uiso   1.00
H1103  H     0.59347   0.90274   0.90236   0.00000  Uiso   1.00
H1104  H     0.57913   0.86745   0.85814   0.00000  Uiso   1.00
H1105  H     0.54446   0.90524   0.88901   0.00000  Uiso   1.00
H1106  H     0.34258   0.87509   0.68171   0.00000  Uiso   1.00
H1107  H     0.45886   0.99728   0.78840   0.00000  Uiso   1.00
H1108  H     0.57612   0.76959   0.60552   0.00000  Uiso   1.00
H1109  H     0.57342   0.98740   0.68007   0.00000  Uiso   1.00
H1110  H     0.53984   0.69180   0.67677   0.00000  Uiso   1.00
H1111  H     0.57233   0.70067   0.71674   0.00000  Uiso   1.00
H1112  H     0.62007   0.83501   0.89225   0.00000  Uiso   1.00
H1113  H     0.61085   0.76756   0.95526   0.00000  Uiso   1.00
H1114  H     0.45835   0.84118   0.61458   0.00000  Uiso   1.00
O1115  O     0.50000   0.83333   0.75000   0.00000  Uiso   1.00
O1116  O     0.48784   0.79304   0.65459   0.00000  Uiso   1.00
O1117  O     0.46274   0.87058   0.84968   0.00000  Uiso   1.00
O1118  O     0.54157   0.84425   0.64606   0.00000  Uiso   1.00
O1119  O     0.50785   0.82546   0.84968   0.00000  Uiso   1.00
O1120  O     0.59126   0.77541   0.57407   0.00000  Uiso   1.00
O1121  O     0.61420   0.83218   0.92493   0.00000  Uiso   1.00
O1122  O     0.61491   0.77950   0.98486   0.00000  Uiso   1.00
O1123  O     0.46599   0.84526   0.58211   0.00000  Uiso   1.00
O1124  O     0.39947   0.87515   0.92574   0.00000  Uiso   1.00
O1125  O     0.41998   0.79581   0.53891   0.00000  Uiso   1.00
O1126  O     0.51264   0.74686   0.78214   0.00000  Uiso   1.00
O1127  O     0.36572   0.83652   0.50664   0.00000  Uiso   1.00
O1128  O     0.35771   0.86371   0.70056   0.00000  Uiso   1.00
O1129  O     0.47965   0.92751   0.77014   0.00000  Uiso   1.00
O1130  O     0.40745   0.79958   0.73413   0.00000  Uiso   1.00
O1131  O     0.60026   0.85939   0.71361   0.00000  Uiso   1.00
O1132  O     0.40405   0.85544   0.78213   0.00000  Uiso   1.00
O1133  O     0.58824   0.81892   0.77014   0.00000  Uiso   1.00
O1134  O     0.47093   0.73610   0.73413   0.00000  Uiso   1.00
O1135  O     0.53678   0.92286   0.71361   0.00000  Uiso   1.00
Zn1136 Zn    0.52672   0.80661   0.78734   0.00000  Uiso   1.00
Zn1137 Zn    0.46713   0.79124   0.71876   0.00000  Uiso   1.00
Zn1138 Zn    0.54389   0.86442   0.70657   0.00000  Uiso   1.00
Zn1139 Zn    0.46226   0.87106   0.78734   0.00000  Uiso   1.00
C1140  C     0.71933   0.82608   0.76044   0.00000  Uiso   1.00
C1141  C     0.83304   0.82352   0.55863   0.00000  Uiso   1.00
C1142  C     0.89829   0.79292   0.55485   0.00000  Uiso   1.00
C1143  C     0.94771   0.84051   0.73963   0.00000  Uiso   1.00
C1144  C     0.80352   0.85562   0.92084   0.00000  Uiso   1.00
C1145  C     0.99422   0.84297   0.73455   0.00000  Uiso   1.00
C1146  C     0.67413   0.82436   0.76384   0.00000  Uiso   1.00
C1147  C     0.84835   0.98958   0.73551   0.00000  Uiso   1.00
C1148  C     0.81913   0.67841   0.76327   0.00000  Uiso   1.00
C1149  C     0.82224   0.72265   0.76075   0.00000  Uiso   1.00
C1150  C     0.84356   0.94476   0.73991   0.00000  Uiso   1.00
C1151  C     0.74254   0.83945   0.98513   0.00000  Uiso   1.00
C1152  C     0.85210   0.81513   0.62920   0.00000  Uiso   1.00
C1153  C     0.81517   0.85153   0.87103   0.00000  Uiso   1.00
C1154  C     0.91125   0.79594   0.50834   0.00000  Uiso   1.00
C1155  C     0.86034   0.80896   0.58040   0.00000  Uiso   1.00
C1156  C     0.75989   0.85816   0.94414   0.00000  Uiso   1.00
C1157  C     0.88562   0.67673   0.70024   0.00000  Uiso   1.00
C1158  C     0.89968   0.88324   0.89169   0.00000  Uiso   1.00
C1159  C     0.76990   0.82253   0.50469   0.00000  Uiso   1.00
C1160  C     0.81524   0.83088   0.98747   0.00000  Uiso   1.00
C1161  C     0.83237   0.84634   0.94436   0.00000  Uiso   1.00
C1162  C     0.84401   0.82182   0.51119   0.00000  Uiso   1.00
C1163  C     0.88630   0.81497   0.98706   0.00000  Uiso   1.00
C1164  C     0.90383   0.83113   0.94446   0.00000  Uiso   1.00
C1165  C     0.87783   0.85156   0.92596   0.00000  Uiso   1.00
H1166  H     0.98504   0.80830   0.79145   0.00000  Uiso   1.00
H1167  H     0.74894   0.90105   0.91237   0.00000  Uiso   1.00
H1168  H     0.72159   0.79021   0.54504   0.00000  Uiso   1.00
H1169  H     0.68355   0.84920   0.98919   0.00000  Uiso   1.00
H1170  H     0.92681   0.90274   0.90236   0.00000  Uiso   1.00
H1171  H     0.91247   0.86745   0.85814   0.00000  Uiso   1.00
H1172  H     0.87779   0.90524   0.88901   0.00000  Uiso   1.00
H1173  H     0.67592   0.87509   0.68171   0.00000  Uiso   1.00
H1174  H     0.79219   0.99728   0.78840   0.00000  Uiso   1.00
H1175  H     0.90945   0.76959   0.60552   0.00000  Uiso   1.00
H1176  H     0.90675   0.98740   0.68007   0.00000  Uiso   1.00
H1177  H     0.87317   0.69180   0.67677   0.00000  Uiso   1.00
H1178  H     0.90566   0.70067   0.71674   0.00000  Uiso   1.00
H1179  H     0.95340   0.83501   0.89225   0.00000  Uiso   1.00
H1180  H     0.94419   0.76756   0.95526   0.00000  Uiso   1.00
H1181  H     0.79168   0.84118   0.61458   0.00000  Uiso   1.00
O1182  O     0.83333   0.83333   0.75000   0.00000  Uiso   1.00
O1183  O     0.82118   0.79304   0.65459   0.00000  Uiso   1.00
O1184  O     0.79607   0.87058   0.84968   0.00000  Uiso   1.00
O1185  O     0.87491   0.84425   0.64606   0.00000  Uiso   1.00
O1186  O     0.84118   0.82546   0.84968   0.00000  Uiso   1.00
O1187  O     0.92460   0.77541   0.57407   0.00000  Uiso   1.00
O1188  O     0.94754   0.83218   0.92493   0.00000  Uiso   1.00
O1189  O     0.94824   0.77950   0.98486   0.00000  Uiso   1.00
O1190  O     0.79933   0.84526   0.58211   0.00000  Uiso   1.00
O1191  O     0.73281   0.87515   0.92574   0.00000  Uiso   1.00
O1192  O     0.75332   0.79581   0.53891   0.00000  Uiso   1.00
O1193  O     0.84597   0.74686   0.78214   0.00000  Uiso   1.00
O1194  O     0.69906   0.83652   0.50664   0.00000  Uiso   1.00
O1195  O     0.69104   0.86371   0.70056   0.00000  Uiso   1.00
O1196  O     0.81298   0.92751   0.77014   0.00000  Uiso   1.00
O1197  O     0.74078   0.79958   0.73413   0.00000  Uiso   1.00
O1198  O     0.93360   0.85939   0.71361   0.00000  Uiso   1.00
O1199  O     0.73738   0.85544   0.78213   0.00000  Uiso   1.00
O1200  O     0.92158   0.81892   0.77014   0.00000  Uiso   1.00
O1201  O     0.80426   0.73610   0.73413   0.00000  Uiso   1.00
O1202  O     0.87012   0.92286   0.71361   0.00000  Uiso   1.00
Zn1203 Zn    0.86005   0.80661   0.78734   0.00000  Uiso   1.00
Zn1204 Zn    0.80046   0.79124   0.71876   0.00000  Uiso   1.00
Zn1205 Zn    0.87723   0.86442   0.70657   0.00000  Uiso   1.00
Zn1206 Zn    0.79560   0.87106   0.78734   0.00000  Uiso   1.00
loop_
_geom_bond_atom_site_label_1
_geom_bond_atom_site_label_2
_geom_bond_distance
_geom_bond_site_symmetry_2
_ccdc_geom_bond_type
C1     O58     1.272   .     A
C1     O60     1.270   .     A
C1     C7      1.439   .     S
C2     C16     1.412   .     A
C2     O51     1.388   .     S
C2     C23     1.412   .     A
C3     O48     1.384   .     S
C3     C15     1.397   .     A
C3     C16     1.415   .     A
C4     O59     1.279   .     A
C4     C6      1.470   .     S
C4     O61     1.279   .     A
C5     C14     1.482   .     S
C5     C17     1.418   .     A
C5     C22     1.418   .     A
C6     C74     1.338   .     S
C6     O123    1.386   .     S
C7     C140    1.338   1_455 S
C7     H161    1.086   1_455 S
C8     C11     1.462   .     S
C8     C210    1.340   .     S
C8     C219    1.518   .     S
C9     C10     1.439   .     S
C9     C410    1.340   1_545 S
C9     H437    1.086   1_545 S
C10    O62     1.279   .     A
C10    O54     1.279   .     A
C11    O63     1.265   .     A
C11    O57     1.273   .     A
C12    C17     1.407   .     A
C12    C623    1.408   .     S
C12    O658    1.385   .     S
C13    C16     1.459   .     S
C13    O46     1.269   .     A
C13    O44     1.274   .     A
C14    O47     1.292   .     A
C14    O45     1.281   .     A
C15    C627    1.419   1_554 S
C15    O653    1.379   1_554 S
C17    O52     1.378   .     S
C18    H39     1.111   .     S
C18    H38     1.111   .     S
C18    C410    1.518   1_545 S
C18    H439    1.109   1_545 S
C19    H31     1.111   .     S
C19    H32     1.110   .     S
C19    C26     1.518   .     S
C19    H33     1.109   .     S
C20    O53     1.386   .     S
C20    C615    1.408   1_554 S
C20    C624    1.421   1_554 S
C21    C22     1.416   .     A
C21    C623    1.421   .     S
C21    C626    1.418   .     S
C22    C26     1.425   .     A
C23    C624    1.418   1_554 S
C23    C627    1.415   1_554 S
C24    C25     1.413   .     A
C24    C618    1.419   .     S
C24    C626    1.415   .     S
C25    O49     1.384   .     S
C25    C26     1.417   .     A
H27    C74     1.086   .     S
H28    O52     0.991   .     S
H29    O53     0.990   .     S
H30    O658    0.989   .     S
H34    O56     0.990   .     S
H35    C210    1.086   .     S
H36    O48     0.989   .     S
H37    C219    1.109   .     S
H40    O49     0.990   .     S
H41    O50     0.991   .     S
H42    O51     0.987   .     S
O43    Zn65    1.946   .     S
O43    Zn66    1.921   .     S
O43    Zn64    1.963   .     S
O43    Zn67    1.933   .     S
O44    Zn65    1.923   .     S
O45    Zn67    1.938   .     S
O46    Zn66    1.935   .     S
O47    Zn64    1.923   .     S
O50    C618    1.379   .     S
O54    Zn64    1.930   .     S
O55    C615    1.385   1_554 S
O55    H633    0.989   1_554 S
O56    C140    1.386   1_455 S
O57    Zn67    1.928   .     S
O58    Zn65    1.925   .     S
O59    Zn66    1.939   .     S
O60    Zn67    1.931   .     S
O61    Zn64    1.918   .     S
O62    Zn65    1.938   .     S
O63    Zn66    1.935   .     S
C68    O125    1.272   .     A
C68    O127    1.270   .     A
C68    C74     1.439   .     S
C69    C83     1.412   .     A
C69    O118    1.388   .     S
C69    C90     1.412   .     A
C70    O115    1.384   .     S
C70    C82     1.397   .     A
C70    C83     1.415   .     A
C71    O126    1.279   .     A
C71    C73     1.470   .     S
C71    O128    1.279   .     A
C72    C81     1.482   .     S
C72    C84     1.418   .     A
C72    C89     1.418   .     A
C73    C141    1.338   .     S
C73    O190    1.386   .     S
C75    C78     1.462   .     S
C75    C277    1.340   .     S
C75    C286    1.518   .     S
C76    C77     1.439   .     S
C76    C477    1.340   1_545 S
C76    H504    1.086   1_545 S
C77    O129    1.279   .     A
C77    O121    1.279   .     A
C78    O130    1.265   .     A
C78    O124    1.273   .     A
C79    C84     1.407   .     A
C79    C690    1.408   .     S
C79    O725    1.385   .     S
C80    C83     1.459   .     S
C80    O113    1.269   .     A
C80    O111    1.274   .     A
C81    O114    1.292   .     A
C81    O112    1.281   .     A
C82    C694    1.419   1_554 S
C82    O720    1.379   1_554 S
C84    O119    1.378   .     S
C85    H106    1.111   .     S
C85    H105    1.111   .     S
C85    C477    1.518   1_545 S
C85    H506    1.109   1_545 S
C86    H98     1.111   .     S
C86    H99     1.110   .     S
C86    C93     1.518   .     S
C86    H100    1.109   .     S
C87    O120    1.386   .     S
C87    C682    1.408   1_554 S
C87    C691    1.421   1_554 S
C88    C89     1.416   .     A
C88    C690    1.421   .     S
C88    C693    1.418   .     S
C89    C93     1.425   .     A
C90    C691    1.418   1_554 S
C90    C694    1.415   1_554 S
C91    C92     1.413   .     A
C91    C685    1.419   .     S
C91    C693    1.415   .     S
C92    O116    1.384   .     S
C92    C93     1.417   .     A
H94    C141    1.086   .     S
H95    O119    0.991   .     S
H96    O120    0.990   .     S
H97    O725    0.989   .     S
H101   O123    0.990   .     S
H102   C277    1.086   .     S
H103   O115    0.989   .     S
H104   C286    1.109   .     S
H107   O116    0.990   .     S
H108   O117    0.991   .     S
H109   O118    0.987   .     S
O110   Zn132   1.946   .     S
O110   Zn133   1.921   .     S
O110   Zn131   1.963   .     S
O110   Zn134   1.933   .     S
O111   Zn132   1.923   .     S
O112   Zn134   1.938   .     S
O113   Zn133   1.935   .     S
O114   Zn131   1.923   .     S
O117   C685    1.379   .     S
O121   Zn131   1.930   .     S
O122   C682    1.385   1_554 S
O122   H700    0.989   1_554 S
O124   Zn134   1.928   .     S
O125   Zn132   1.925   .     S
O126   Zn133   1.939   .     S
O127   Zn134   1.931   .     S
O128   Zn131   1.918   .     S
O129   Zn132   1.938   .     S
O130   Zn133   1.935   .     S
C135   O192    1.272   .     A
C135   O194    1.270   .     A
C135   C141    1.439   .     S
C136   C150    1.412   .     A
C136   O185    1.388   .     S
C136   C157    1.412   .     A
C137   O182    1.384   .     S
C137   C149    1.397   .     A
C137   C150    1.415   .     A
C138   O193    1.279   .     A
C138   C140    1.470   .     S
C138   O195    1.279   .     A
C139   C148    1.482   .     S
C139   C151    1.418   .     A
C139   C156    1.418   .     A
C140   C7      1.338   1_655 S
C140   O56     1.386   1_655 S
C142   C145    1.462   .     S
C142   C344    1.340   .     S
C142   C353    1.518   .     S
C143   C144    1.439   .     S
C143   C544    1.340   1_545 S
C143   H571    1.086   1_545 S
C144   O196    1.279   .     A
C144   O188    1.279   .     A
C145   O197    1.265   .     A
C145   O191    1.273   .     A
C146   C151    1.407   .     A
C146   C757    1.408   .     S
C146   O792    1.385   .     S
C147   C150    1.459   .     S
C147   O180    1.269   .     A
C147   O178    1.274   .     A
C148   O181    1.292   .     A
C148   O179    1.281   .     A
C149   C761    1.419   1_554 S
C149   O787    1.379   1_554 S
C151   O186    1.378   .     S
C152   H173    1.111   .     S
C152   H172    1.111   .     S
C152   C544    1.518   1_545 S
C152   H573    1.109   1_545 S
C153   H165    1.111   .     S
C153   H166    1.110   .     S
C153   C160    1.518   .     S
C153   H167    1.109   .     S
C154   O187    1.386   .     S
C154   C749    1.408   1_554 S
C154   C758    1.421   1_554 S
C155   C156    1.416   .     A
C155   C757    1.421   .     S
C155   C760    1.418   .     S
C156   C160    1.425   .     A
C157   C758    1.418   1_554 S
C157   C761    1.415   1_554 S
C158   C159    1.413   .     A
C158   C752    1.419   .     S
C158   C760    1.415   .     S
C159   O183    1.384   .     S
C159   C160    1.417   .     A
H161   C7      1.086   1_655 S
H162   O186    0.991   .     S
H163   O187    0.990   .     S
H164   O792    0.989   .     S
H168   O190    0.990   .     S
H169   C344    1.086   .     S
H170   O182    0.989   .     S
H171   C353    1.109   .     S
H174   O183    0.990   .     S
H175   O184    0.991   .     S
H176   O185    0.987   .     S
O177   Zn199   1.946   .     S
O177   Zn200   1.921   .     S
O177   Zn198   1.963   .     S
O177   Zn201   1.933   .     S
O178   Zn199   1.923   .     S
O179   Zn201   1.938   .     S
O180   Zn200   1.935   .     S
O181   Zn198   1.923   .     S
O184   C752    1.379   .     S
O188   Zn198   1.930   .     S
O189   C749    1.385   1_554 S
O189   H767    0.989   1_554 S
O191   Zn201   1.928   .     S
O192   Zn199   1.925   .     S
O193   Zn200   1.939   .     S
O194   Zn201   1.931   .     S
O195   Zn198   1.918   .     S
O196   Zn199   1.938   .     S
O197   Zn200   1.935   .     S
C202   O259    1.272   .     A
C202   O261    1.270   .     A
C202   C208    1.439   .     S
C203   C217    1.412   .     A
C203   O252    1.388   .     S
C203   C224    1.412   .     A
C204   O249    1.384   .     S
C204   C216    1.397   .     A
C204   C217    1.415   .     A
C205   O260    1.279   .     A
C205   C207    1.470   .     S
C205   O262    1.279   .     A
C206   C215    1.482   .     S
C206   C218    1.418   .     A
C206   C223    1.418   .     A
C207   C275    1.338   .     S
C207   O324    1.386   .     S
C208   C341    1.338   1_455 S
C208   H362    1.086   1_455 S
C209   C212    1.462   .     S
C209   C411    1.340   .     S
C209   C420    1.518   .     S
C210   C211    1.439   .     S
C211   O263    1.279   .     A
C211   O255    1.279   .     A
C212   O264    1.265   .     A
C212   O258    1.273   .     A
C213   C218    1.407   .     A
C213   C824    1.408   .     S
C213   O859    1.385   .     S
C214   C217    1.459   .     S
C214   O247    1.269   .     A
C214   O245    1.274   .     A
C215   O248    1.292   .     A
C215   O246    1.281   .     A
C216   C828    1.419   1_554 S
C216   O854    1.379   1_554 S
C218   O253    1.378   .     S
C219   H240    1.111   .     S
C219   H239    1.111   .     S
C220   H232    1.111   .     S
C220   H233    1.110   .     S
C220   C227    1.518   .     S
C220   H234    1.109   .     S
C221   O254    1.386   .     S
C221   C816    1.408   1_554 S
C221   C825    1.421   1_554 S
C222   C223    1.416   .     A
C222   C824    1.421   .     S
C222   C827    1.418   .     S
C223   C227    1.425   .     A
C224   C825    1.418   1_554 S
C224   C828    1.415   1_554 S
C225   C226    1.413   .     A
C225   C819    1.419   .     S
C225   C827    1.415   .     S
C226   O250    1.384   .     S
C226   C227    1.417   .     A
H228   C275    1.086   .     S
H229   O253    0.991   .     S
H230   O254    0.990   .     S
H231   O859    0.989   .     S
H235   O257    0.990   .     S
H236   C411    1.086   .     S
H237   O249    0.989   .     S
H238   C420    1.109   .     S
H241   O250    0.990   .     S
H242   O251    0.991   .     S
H243   O252    0.987   .     S
O244   Zn266   1.946   .     S
O244   Zn267   1.921   .     S
O244   Zn265   1.963   .     S
O244   Zn268   1.933   .     S
O245   Zn266   1.923   .     S
O246   Zn268   1.938   .     S
O247   Zn267   1.935   .     S
O248   Zn265   1.923   .     S
O251   C819    1.379   .     S
O255   Zn265   1.930   .     S
O256   C816    1.385   1_554 S
O256   H834    0.989   1_554 S
O257   C341    1.386   1_455 S
O258   Zn268   1.928   .     S
O259   Zn266   1.925   .     S
O260   Zn267   1.939   .     S
O261   Zn268   1.931   .     S
O262   Zn265   1.918   .     S
O263   Zn266   1.938   .     S
O264   Zn267   1.935   .     S
C269   O326    1.272   .     A
C269   O328    1.270   .     A
C269   C275    1.439   .     S
C270   C284    1.412   .     A
C270   O319    1.388   .     S
C270   C291    1.412   .     A
C271   O316    1.384   .     S
C271   C283    1.397   .     A
C271   C284    1.415   .     A
C272   O327    1.279   .     A
C272   C274    1.470   .     S
C272   O329    1.279   .     A
C273   C282    1.482   .     S
C273   C285    1.418   .     A
C273   C290    1.418   .     A
C274   C342    1.338   .     S
C274   O391    1.386   .     S
C276   C279    1.462   .     S
C276   C478    1.340   .     S
C276   C487    1.518   .     S
C277   C278    1.439   .     S
C278   O330    1.279   .     A
C278   O322    1.279   .     A
C279   O331    1.265   .     A
C279   O325    1.273   .     A
C280   C285    1.407   .     A
C280   C891    1.408   .     S
C280   O926    1.385   .     S
C281   C284    1.459   .     S
C281   O314    1.269   .     A
C281   O312    1.274   .     A
C282   O315    1.292   .     A
C282   O313    1.281   .     A
C283   C895    1.419   1_554 S
C283   O921    1.379   1_554 S
C285   O320    1.378   .     S
C286   H307    1.111   .     S
C286   H306    1.111   .     S
C287   H299    1.111   .     S
C287   H300    1.110   .     S
C287   C294    1.518   .     S
C287   H301    1.109   .     S
C288   O321    1.386   .     S
C288   C883    1.408   1_554 S
C288   C892    1.421   1_554 S
C289   C290    1.416   .     A
C289   C891    1.421   .     S
C289   C894    1.418   .     S
C290   C294    1.425   .     A
C291   C892    1.418   1_554 S
C291   C895    1.415   1_554 S
C292   C293    1.413   .     A
C292   C886    1.419   .     S
C292   C894    1.415   .     S
C293   O317    1.384   .     S
C293   C294    1.417   .     A
H295   C342    1.086   .     S
H296   O320    0.991   .     S
H297   O321    0.990   .     S
H298   O926    0.989   .     S
H302   O324    0.990   .     S
H303   C478    1.086   .     S
H304   O316    0.989   .     S
H305   C487    1.109   .     S
H308   O317    0.990   .     S
H309   O318    0.991   .     S
H310   O319    0.987   .     S
O311   Zn333   1.946   .     S
O311   Zn334   1.921   .     S
O311   Zn332   1.963   .     S
O311   Zn335   1.933   .     S
O312   Zn333   1.923   .     S
O313   Zn335   1.938   .     S
O314   Zn334   1.935   .     S
O315   Zn332   1.923   .     S
O318   C886    1.379   .     S
O322   Zn332   1.930   .     S
O323   C883    1.385   1_554 S
O323   H901    0.989   1_554 S
O325   Zn335   1.928   .     S
O326   Zn333   1.925   .     S
O327   Zn334   1.939   .     S
O328   Zn335   1.931   .     S
O329   Zn332   1.918   .     S
O330   Zn333   1.938   .     S
O331   Zn334   1.935   .     S
C336   O393    1.272   .     A
C336   O395    1.270   .     A
C336   C342    1.439   .     S
C337   C351    1.412   .     A
C337   O386    1.388   .     S
C337   C358    1.412   .     A
C338   O383    1.384   .     S
C338   C350    1.397   .     A
C338   C351    1.415   .     A
C339   O394    1.279   .     A
C339   C341    1.470   .     S
C339   O396    1.279   .     A
C340   C349    1.482   .     S
C340   C352    1.418   .     A
C340   C357    1.418   .     A
C341   C208    1.338   1_655 S
C341   O257    1.386   1_655 S
C343   C346    1.462   .     S
C343   C545    1.340   .     S
C343   C554    1.518   .     S
C344   C345    1.439   .     S
C345   O397    1.279   .     A
C345   O389    1.279   .     A
C346   O398    1.265   .     A
C346   O392    1.273   .     A
C347   C352    1.407   .     A
C347   C958    1.408   .     S
C347   O993    1.385   .     S
C348   C351    1.459   .     S
C348   O381    1.269   .     A
C348   O379    1.274   .     A
C349   O382    1.292   .     A
C349   O380    1.281   .     A
C350   C962    1.419   1_554 S
C350   O988    1.379   1_554 S
C352   O387    1.378   .     S
C353   H374    1.111   .     S
C353   H373    1.111   .     S
C354   H366    1.111   .     S
C354   H367    1.110   .     S
C354   C361    1.518   .     S
C354   H368    1.109   .     S
C355   O388    1.386   .     S
C355   C950    1.408   1_554 S
C355   C959    1.421   1_554 S
C356   C357    1.416   .     A
C356   C958    1.421   .     S
C356   C961    1.418   .     S
C357   C361    1.425   .     A
C358   C959    1.418   1_554 S
C358   C962    1.415   1_554 S
C359   C360    1.413   .     A
C359   C953    1.419   .     S
C359   C961    1.415   .     S
C360   O384    1.384   .     S
C360   C361    1.417   .     A
H362   C208    1.086   1_655 S
H363   O387    0.991   .     S
H364   O388    0.990   .     S
H365   O993    0.989   .     S
H369   O391    0.990   .     S
H370   C545    1.086   .     S
H371   O383    0.989   .     S
H372   C554    1.109   .     S
H375   O384    0.990   .     S
H376   O385    0.991   .     S
H377   O386    0.987   .     S
O378   Zn400   1.946   .     S
O378   Zn401   1.921   .     S
O378   Zn399   1.963   .     S
O378   Zn402   1.933   .     S
O379   Zn400   1.923   .     S
O380   Zn402   1.938   .     S
O381   Zn401   1.935   .     S
O382   Zn399   1.923   .     S
O385   C953    1.379   .     S
O389   Zn399   1.930   .     S
O390   C950    1.385   1_554 S
O390   H968    0.989   1_554 S
O392   Zn402   1.928   .     S
O393   Zn400   1.925   .     S
O394   Zn401   1.939   .     S
O395   Zn402   1.931   .     S
O396   Zn399   1.918   .     S
O397   Zn400   1.938   .     S
O398   Zn401   1.935   .     S
C403   O460    1.272   .     A
C403   O462    1.270   .     A
C403   C409    1.439   .     S
C404   C418    1.412   .     A
C404   O453    1.388   .     S
C404   C425    1.412   .     A
C405   O450    1.384   .     S
C405   C417    1.397   .     A
C405   C418    1.415   .     A
C406   O461    1.279   .     A
C406   C408    1.470   .     S
C406   O463    1.279   .     A
C407   C416    1.482   .     S
C407   C419    1.418   .     A
C407   C424    1.418   .     A
C408   C476    1.338   .     S
C408   O525    1.386   .     S
C409   C542    1.338   1_455 S
C409   H563    1.086   1_455 S
C410   C413    1.462   .     S
C410   C9      1.340   1_565 S
C410   C18     1.518   1_565 S
C411   C412    1.439   .     S
C412   O464    1.279   .     A
C412   O456    1.279   .     A
C413   O465    1.265   .     A
C413   O459    1.273   .     A
C414   C419    1.407   .     A
C414   C1025   1.408   .     S
C414   O1060   1.385   .     S
C415   C418    1.459   .     S
C415   O448    1.269   .     A
C415   O446    1.274   .     A
C416   O449    1.292   .     A
C416   O447    1.281   .     A
C417   C1029   1.419   1_554 S
C417   O1055   1.379   1_554 S
C419   O454    1.378   .     S
C420   H441    1.111   .     S
C420   H440    1.111   .     S
C421   H433    1.111   .     S
C421   H434    1.110   .     S
C421   C428    1.518   .     S
C421   H435    1.109   .     S
C422   O455    1.386   .     S
C422   C1017   1.408   1_554 S
C422   C1026   1.421   1_554 S
C423   C424    1.416   .     A
C423   C1025   1.421   .     S
C423   C1028   1.418   .     S
C424   C428    1.425   .     A
C425   C1026   1.418   1_554 S
C425   C1029   1.415   1_554 S
C426   C427    1.413   .     A
C426   C1020   1.419   .     S
C426   C1028   1.415   .     S
C427   O451    1.384   .     S
C427   C428    1.417   .     A
H429   C476    1.086   .     S
H430   O454    0.991   .     S
H431   O455    0.990   .     S
H432   O1060   0.989   .     S
H436   O458    0.990   .     S
H437   C9      1.086   1_565 S
H438   O450    0.989   .     S
H439   C18     1.109   1_565 S
H442   O451    0.990   .     S
H443   O452    0.991   .     S
H444   O453    0.987   .     S
O445   Zn467   1.946   .     S
O445   Zn468   1.921   .     S
O445   Zn466   1.963   .     S
O445   Zn469   1.933   .     S
O446   Zn467   1.923   .     S
O447   Zn469   1.938   .     S
O448   Zn468   1.935   .     S
O449   Zn466   1.923   .     S
O452   C1020   1.379   .     S
O456   Zn466   1.930   .     S
O457   C1017   1.385   1_554 S
O457   H1035   0.989   1_554 S
O458   C542    1.386   1_455 S
O459   Zn469   1.928   .     S
O460   Zn467   1.925   .     S
O461   Zn468   1.939   .     S
O462   Zn469   1.931   .     S
O463   Zn466   1.918   .     S
O464   Zn467   1.938   .     S
O465   Zn468   1.935   .     S
C470   O527    1.272   .     A
C470   O529    1.270   .     A
C470   C476    1.439   .     S
C471   C485    1.412   .     A
C471   O520    1.388   .     S
C471   C492    1.412   .     A
C472   O517    1.384   .     S
C472   C484    1.397   .     A
C472   C485    1.415   .     A
C473   O528    1.279   .     A
C473   C475    1.470   .     S
C473   O530    1.279   .     A
C474   C483    1.482   .     S
C474   C486    1.418   .     A
C474   C491    1.418   .     A
C475   C543    1.338   .     S
C475   O592    1.386   .     S
C477   C480    1.462   .     S
C477   C76     1.340   1_565 S
C477   C85     1.518   1_565 S
C478   C479    1.439   .     S
C479   O531    1.279   .     A
C479   O523    1.279   .     A
C480   O532    1.265   .     A
C480   O526    1.273   .     A
C481   C486    1.407   .     A
C481   C1092   1.408   .     S
C481   O1127   1.385   .     S
C482   C485    1.459   .     S
C482   O515    1.269   .     A
C482   O513    1.274   .     A
C483   O516    1.292   .     A
C483   O514    1.281   .     A
C484   C1096   1.419   1_554 S
C484   O1122   1.379   1_554 S
C486   O521    1.378   .     S
C487   H508    1.111   .     S
C487   H507    1.111   .     S
C488   H500    1.111   .     S
C488   H501    1.110   .     S
C488   C495    1.518   .     S
C488   H502    1.109   .     S
C489   O522    1.386   .     S
C489   C1084   1.408   1_554 S
C489   C1093   1.421   1_554 S
C490   C491    1.416   .     A
C490   C1092   1.421   .     S
C490   C1095   1.418   .     S
C491   C495    1.425   .     A
C492   C1093   1.418   1_554 S
C492   C1096   1.415   1_554 S
C493   C494    1.413   .     A
C493   C1087   1.419   .     S
C493   C1095   1.415   .     S
C494   O518    1.384   .     S
C494   C495    1.417   .     A
H496   C543    1.086   .     S
H497   O521    0.991   .     S
H498   O522    0.990   .     S
H499   O1127   0.989   .     S
H503   O525    0.990   .     S
H504   C76     1.086   1_565 S
H505   O517    0.989   .     S
H506   C85     1.109   1_565 S
H509   O518    0.990   .     S
H510   O519    0.991   .     S
H511   O520    0.987   .     S
O512   Zn534   1.946   .     S
O512   Zn535   1.921   .     S
O512   Zn533   1.963   .     S
O512   Zn536   1.933   .     S
O513   Zn534   1.923   .     S
O514   Zn536   1.938   .     S
O515   Zn535   1.935   .     S
O516   Zn533   1.923   .     S
O519   C1087   1.379   .     S
O523   Zn533   1.930   .     S
O524   C1084   1.385   1_554 S
O524   H1102   0.989   1_554 S
O526   Zn536   1.928   .     S
O527   Zn534   1.925   .     S
O528   Zn535   1.939   .     S
O529   Zn536   1.931   .     S
O530   Zn533   1.918   .     S
O531   Zn534   1.938   .     S
O532   Zn535   1.935   .     S
C537   O594    1.272   .     A
C537   O596    1.270   .     A
C537   C543    1.439   .     S
C538   C552    1.412   .     A
C538   O587    1.388   .     S
C538   C559    1.412   .     A
C539   O584    1.384   .     S
C539   C551    1.397   .     A
C539   C552    1.415   .     A
C540   O595    1.279   .     A
C540   C542    1.470   .     S
C540   O597    1.279   .     A
C541   C550    1.482   .     S
C541   C553    1.418   .     A
C541   C558    1.418   .     A
C542   C409    1.338   1_655 S
C542   O458    1.386   1_655 S
C544   C547    1.462   .     S
C544   C143    1.340   1_565 S
C544   C152    1.518   1_565 S
C545   C546    1.439   .     S
C546   O598    1.279   .     A
C546   O590    1.279   .     A
C547   O599    1.265   .     A
C547   O593    1.273   .     A
C548   C553    1.407   .     A
C548   C1159   1.408   .     S
C548   O1194   1.385   .     S
C549   C552    1.459   .     S
C549   O582    1.269   .     A
C549   O580    1.274   .     A
C550   O583    1.292   .     A
C550   O581    1.281   .     A
C551   C1163   1.419   1_554 S
C551   O1189   1.379   1_554 S
C553   O588    1.378   .     S
C554   H575    1.111   .     S
C554   H574    1.111   .     S
C555   H567    1.111   .     S
C555   H568    1.110   .     S
C555   C562    1.518   .     S
C555   H569    1.109   .     S
C556   O589    1.386   .     S
C556   C1151   1.408   1_554 S
C556   C1160   1.421   1_554 S
C557   C558    1.416   .     A
C557   C1159   1.421   .     S
C557   C1162   1.418   .     S
C558   C562    1.425   .     A
C559   C1160   1.418   1_554 S
C559   C1163   1.415   1_554 S
C560   C561    1.413   .     A
C560   C1154   1.419   .     S
C560   C1162   1.415   .     S
C561   O585    1.384   .     S
C561   C562    1.417   .     A
H563   C409    1.086   1_655 S
H564   O588    0.991   .     S
H565   O589    0.990   .     S
H566   O1194   0.989   .     S
H570   O592    0.990   .     S
H571   C143    1.086   1_565 S
H572   O584    0.989   .     S
H573   C152    1.109   1_565 S
H576   O585    0.990   .     S
H577   O586    0.991   .     S
H578   O587    0.987   .     S
O579   Zn601   1.946   .     S
O579   Zn602   1.921   .     S
O579   Zn600   1.963   .     S
O579   Zn603   1.933   .     S
O580   Zn601   1.923   .     S
O581   Zn603   1.938   .     S
O582   Zn602   1.935   .     S
O583   Zn600   1.923   .     S
O586   C1154   1.379   .     S
O590   Zn600   1.930   .     S
O591   C1151   1.385   1_554 S
O591   H1169   0.989   1_554 S
O593   Zn603   1.928   .     S
O594   Zn601   1.925   .     S
O595   Zn602   1.939   .     S
O596   Zn603   1.931   .     S
O597   Zn600   1.918   .     S
O598   Zn601   1.938   .     S
O599   Zn602   1.935   .     S
C604   O661    1.272   .     A
C604   O663    1.270   .     A
C604   C610    1.439   .     S
C605   C619    1.412   .     A
C605   O654    1.388   .     S
C605   C626    1.412   .     A
C606   O651    1.384   .     S
C606   C618    1.397   .     A
C606   C619    1.415   .     A
C607   O662    1.279   .     A
C607   C609    1.470   .     S
C607   O664    1.279   .     A
C608   C617    1.482   .     S
C608   C620    1.418   .     A
C608   C625    1.418   .     A
C609   C677    1.338   .     S
C609   O726    1.386   .     S
C610   C743    1.338   1_455 S
C610   H764    1.086   1_455 S
C611   C614    1.462   .     S
C611   C813    1.340   .     S
C611   C822    1.518   .     S
C612   C613    1.439   .     S
C612   C1013   1.340   1_545 S
C612   H1040   1.086   1_545 S
C613   O665    1.279   .     A
C613   O657    1.279   .     A
C614   O666    1.265   .     A
C614   O660    1.273   .     A
C615   C620    1.407   .     A
C615   C20     1.408   1_556 S
C615   O55     1.385   1_556 S
C616   C619    1.459   .     S
C616   O649    1.269   .     A
C616   O647    1.274   .     A
C617   O650    1.292   .     A
C617   O648    1.281   .     A
C620   O655    1.378   .     S
C621   H642    1.111   .     S
C621   H641    1.111   .     S
C621   C1013   1.518   1_545 S
C621   H1042   1.109   1_545 S
C622   H634    1.111   .     S
C622   H635    1.110   .     S
C622   C629    1.518   .     S
C622   H636    1.109   .     S
C623   O656    1.386   .     S
C624   C625    1.416   .     A
C624   C20     1.421   1_556 S
C624   C23     1.418   1_556 S
C625   C629    1.425   .     A
C627   C628    1.413   .     A
C627   C15     1.419   1_556 S
C627   C23     1.415   1_556 S
C628   O652    1.384   .     S
C628   C629    1.417   .     A
H630   C677    1.086   .     S
H631   O655    0.991   .     S
H632   O656    0.990   .     S
H633   O55     0.989   1_556 S
H637   O659    0.990   .     S
H638   C813    1.086   .     S
H639   O651    0.989   .     S
H640   C822    1.109   .     S
H643   O652    0.990   .     S
H644   O653    0.991   .     S
H645   O654    0.987   .     S
O646   Zn668   1.946   .     S
O646   Zn669   1.921   .     S
O646   Zn667   1.963   .     S
O646   Zn670   1.933   .     S
O647   Zn668   1.923   .     S
O648   Zn670   1.938   .     S
O649   Zn669   1.935   .     S
O650   Zn667   1.923   .     S
O653   C15     1.379   1_556 S
O657   Zn667   1.930   .     S
O659   C743    1.386   1_455 S
O660   Zn670   1.928   .     S
O661   Zn668   1.925   .     S
O662   Zn669   1.939   .     S
O663   Zn670   1.931   .     S
O664   Zn667   1.918   .     S
O665   Zn668   1.938   .     S
O666   Zn669   1.935   .     S
C671   O728    1.272   .     A
C671   O730    1.270   .     A
C671   C677    1.439   .     S
C672   C686    1.412   .     A
C672   O721    1.388   .     S
C672   C693    1.412   .     A
C673   O718    1.384   .     S
C673   C685    1.397   .     A
C673   C686    1.415   .     A
C674   O729    1.279   .     A
C674   C676    1.470   .     S
C674   O731    1.279   .     A
C675   C684    1.482   .     S
C675   C687    1.418   .     A
C675   C692    1.418   .     A
C676   C744    1.338   .     S
C676   O793    1.386   .     S
C678   C681    1.462   .     S
C678   C880    1.340   .     S
C678   C889    1.518   .     S
C679   C680    1.439   .     S
C679   C1080   1.340   1_545 S
C679   H1107   1.086   1_545 S
C680   O732    1.279   .     A
C680   O724    1.279   .     A
C681   O733    1.265   .     A
C681   O727    1.273   .     A
C682   C687    1.407   .     A
C682   C87     1.408   1_556 S
C682   O122    1.385   1_556 S
C683   C686    1.459   .     S
C683   O716    1.269   .     A
C683   O714    1.274   .     A
C684   O717    1.292   .     A
C684   O715    1.281   .     A
C687   O722    1.378   .     S
C688   H709    1.111   .     S
C688   H708    1.111   .     S
C688   C1080   1.518   1_545 S
C688   H1109   1.109   1_545 S
C689   H701    1.111   .     S
C689   H702    1.110   .     S
C689   C696    1.518   .     S
C689   H703    1.109   .     S
C690   O723    1.386   .     S
C691   C692    1.416   .     A
C691   C87     1.421   1_556 S
C691   C90     1.418   1_556 S
C692   C696    1.425   .     A
C694   C695    1.413   .     A
C694   C82     1.419   1_556 S
C694   C90     1.415   1_556 S
C695   O719    1.384   .     S
C695   C696    1.417   .     A
H697   C744    1.086   .     S
H698   O722    0.991   .     S
H699   O723    0.990   .     S
H700   O122    0.989   1_556 S
H704   O726    0.990   .     S
H705   C880    1.086   .     S
H706   O718    0.989   .     S
H707   C889    1.109   .     S
H710   O719    0.990   .     S
H711   O720    0.991   .     S
H712   O721    0.987   .     S
O713   Zn735   1.946   .     S
O713   Zn736   1.921   .     S
O713   Zn734   1.963   .     S
O713   Zn737   1.933   .     S
O714   Zn735   1.923   .     S
O715   Zn737   1.938   .     S
O716   Zn736   1.935   .     S
O717   Zn734   1.923   .     S
O720   C82     1.379   1_556 S
O724   Zn734   1.930   .     S
O727   Zn737   1.928   .     S
O728   Zn735   1.925   .     S
O729   Zn736   1.939   .     S
O730   Zn737   1.931   .     S
O731   Zn734   1.918   .     S
O732   Zn735   1.938   .     S
O733   Zn736   1.935   .     S
C738   O795    1.272   .     A
C738   O797    1.270   .     A
C738   C744    1.439   .     S
C739   C753    1.412   .     A
C739   O788    1.388   .     S
C739   C760    1.412   .     A
C740   O785    1.384   .     S
C740   C752    1.397   .     A
C740   C753    1.415   .     A
C741   O796    1.279   .     A
C741   C743    1.470   .     S
C741   O798    1.279   .     A
C742   C751    1.482   .     S
C742   C754    1.418   .     A
C742   C759    1.418   .     A
C743   C610    1.338   1_655 S
C743   O659    1.386   1_655 S
C745   C748    1.462   .     S
C745   C947    1.340   .     S
C745   C956    1.518   .     S
C746   C747    1.439   .     S
C746   C1147   1.340   1_545 S
C746   H1174   1.086   1_545 S
C747   O799    1.279   .     A
C747   O791    1.279   .     A
C748   O800    1.265   .     A
C748   O794    1.273   .     A
C749   C754    1.407   .     A
C749   C154    1.408   1_556 S
C749   O189    1.385   1_556 S
C750   C753    1.459   .     S
C750   O783    1.269   .     A
C750   O781    1.274   .     A
C751   O784    1.292   .     A
C751   O782    1.281   .     A
C754   O789    1.378   .     S
C755   H776    1.111   .     S
C755   H775    1.111   .     S
C755   C1147   1.518   1_545 S
C755   H1176   1.109   1_545 S
C756   H768    1.111   .     S
C756   H769    1.110   .     S
C756   C763    1.518   .     S
C756   H770    1.109   .     S
C757   O790    1.386   .     S
C758   C759    1.416   .     A
C758   C154    1.421   1_556 S
C758   C157    1.418   1_556 S
C759   C763    1.425   .     A
C761   C762    1.413   .     A
C761   C149    1.419   1_556 S
C761   C157    1.415   1_556 S
C762   O786    1.384   .     S
C762   C763    1.417   .     A
H764   C610    1.086   1_655 S
H765   O789    0.991   .     S
H766   O790    0.990   .     S
H767   O189    0.989   1_556 S
H771   O793    0.990   .     S
H772   C947    1.086   .     S
H773   O785    0.989   .     S
H774   C956    1.109   .     S
H777   O786    0.990   .     S
H778   O787    0.991   .     S
H779   O788    0.987   .     S
O780   Zn802   1.946   .     S
O780   Zn803   1.921   .     S
O780   Zn801   1.963   .     S
O780   Zn804   1.933   .     S
O781   Zn802   1.923   .     S
O782   Zn804   1.938   .     S
O783   Zn803   1.935   .     S
O784   Zn801   1.923   .     S
O787   C149    1.379   1_556 S
O791   Zn801   1.930   .     S
O794   Zn804   1.928   .     S
O795   Zn802   1.925   .     S
O796   Zn803   1.939   .     S
O797   Zn804   1.931   .     S
O798   Zn801   1.918   .     S
O799   Zn802   1.938   .     S
O800   Zn803   1.935   .     S
C805   O862    1.272   .     A
C805   O864    1.270   .     A
C805   C811    1.439   .     S
C806   C820    1.412   .     A
C806   O855    1.388   .     S
C806   C827    1.412   .     A
C807   O852    1.384   .     S
C807   C819    1.397   .     A
C807   C820    1.415   .     A
C808   O863    1.279   .     A
C808   C810    1.470   .     S
C808   O865    1.279   .     A
C809   C818    1.482   .     S
C809   C821    1.418   .     A
C809   C826    1.418   .     A
C810   C878    1.338   .     S
C810   O927    1.386   .     S
C811   C944    1.338   1_455 S
C811   H965    1.086   1_455 S
C812   C815    1.462   .     S
C812   C1014   1.340   .     S
C812   C1023   1.518   .     S
C813   C814    1.439   .     S
C814   O866    1.279   .     A
C814   O858    1.279   .     A
C815   O867    1.265   .     A
C815   O861    1.273   .     A
C816   C821    1.407   .     A
C816   C221    1.408   1_556 S
C816   O256    1.385   1_556 S
C817   C820    1.459   .     S
C817   O850    1.269   .     A
C817   O848    1.274   .     A
C818   O851    1.292   .     A
C818   O849    1.281   .     A
C821   O856    1.378   .     S
C822   H843    1.111   .     S
C822   H842    1.111   .     S
C823   H835    1.111   .     S
C823   H836    1.110   .     S
C823   C830    1.518   .     S
C823   H837    1.109   .     S
C824   O857    1.386   .     S
C825   C826    1.416   .     A
C825   C221    1.421   1_556 S
C825   C224    1.418   1_556 S
C826   C830    1.425   .     A
C828   C829    1.413   .     A
C828   C216    1.419   1_556 S
C828   C224    1.415   1_556 S
C829   O853    1.384   .     S
C829   C830    1.417   .     A
H831   C878    1.086   .     S
H832   O856    0.991   .     S
H833   O857    0.990   .     S
H834   O256    0.989   1_556 S
H838   O860    0.990   .     S
H839   C1014   1.086   .     S
H840   O852    0.989   .     S
H841   C1023   1.109   .     S
H844   O853    0.990   .     S
H845   O854    0.991   .     S
H846   O855    0.987   .     S
O847   Zn869   1.946   .     S
O847   Zn870   1.921   .     S
O847   Zn868   1.963   .     S
O847   Zn871   1.933   .     S
O848   Zn869   1.923   .     S
O849   Zn871   1.938   .     S
O850   Zn870   1.935   .     S
O851   Zn868   1.923   .     S
O854   C216    1.379   1_556 S
O858   Zn868   1.930   .     S
O860   C944    1.386   1_455 S
O861   Zn871   1.928   .     S
O862   Zn869   1.925   .     S
O863   Zn870   1.939   .     S
O864   Zn871   1.931   .     S
O865   Zn868   1.918   .     S
O866   Zn869   1.938   .     S
O867   Zn870   1.935   .     S
C872   O929    1.272   .     A
C872   O931    1.270   .     A
C872   C878    1.439   .     S
C873   C887    1.412   .     A
C873   O922    1.388   .     S
C873   C894    1.412   .     A
C874   O919    1.384   .     S
C874   C886    1.397   .     A
C874   C887    1.415   .     A
C875   O930    1.279   .     A
C875   C877    1.470   .     S
C875   O932    1.279   .     A
C876   C885    1.482   .     S
C876   C888    1.418   .     A
C876   C893    1.418   .     A
C877   C945    1.338   .     S
C877   O994    1.386   .     S
C879   C882    1.462   .     S
C879   C1081   1.340   .     S
C879   C1090   1.518   .     S
C880   C881    1.439   .     S
C881   O933    1.279   .     A
C881   O925    1.279   .     A
C882   O934    1.265   .     A
C882   O928    1.273   .     A
C883   C888    1.407   .     A
C883   C288    1.408   1_556 S
C883   O323    1.385   1_556 S
C884   C887    1.459   .     S
C884   O917    1.269   .     A
C884   O915    1.274   .     A
C885   O918    1.292   .     A
C885   O916    1.281   .     A
C888   O923    1.378   .     S
C889   H910    1.111   .     S
C889   H909    1.111   .     S
C890   H902    1.111   .     S
C890   H903    1.110   .     S
C890   C897    1.518   .     S
C890   H904    1.109   .     S
C891   O924    1.386   .     S
C892   C893    1.416   .     A
C892   C288    1.421   1_556 S
C892   C291    1.418   1_556 S
C893   C897    1.425   .     A
C895   C896    1.413   .     A
C895   C283    1.419   1_556 S
C895   C291    1.415   1_556 S
C896   O920    1.384   .     S
C896   C897    1.417   .     A
H898   C945    1.086   .     S
H899   O923    0.991   .     S
H900   O924    0.990   .     S
H901   O323    0.989   1_556 S
H905   O927    0.990   .     S
H906   C1081   1.086   .     S
H907   O919    0.989   .     S
H908   C1090   1.109   .     S
H911   O920    0.990   .     S
H912   O921    0.991   .     S
H913   O922    0.987   .     S
O914   Zn936   1.946   .     S
O914   Zn937   1.921   .     S
O914   Zn935   1.963   .     S
O914   Zn938   1.933   .     S
O915   Zn936   1.923   .     S
O916   Zn938   1.938   .     S
O917   Zn937   1.935   .     S
O918   Zn935   1.923   .     S
O921   C283    1.379   1_556 S
O925   Zn935   1.930   .     S
O928   Zn938   1.928   .     S
O929   Zn936   1.925   .     S
O930   Zn937   1.939   .     S
O931   Zn938   1.931   .     S
O932   Zn935   1.918   .     S
O933   Zn936   1.938   .     S
O934   Zn937   1.935   .     S
C939   O996    1.272   .     A
C939   O998    1.270   .     A
C939   C945    1.439   .     S
C940   C954    1.412   .     A
C940   O989    1.388   .     S
C940   C961    1.412   .     A
C941   O986    1.384   .     S
C941   C953    1.397   .     A
C941   C954    1.415   .     A
C942   O997    1.279   .     A
C942   C944    1.470   .     S
C942   O999    1.279   .     A
C943   C952    1.482   .     S
C943   C955    1.418   .     A
C943   C960    1.418   .     A
C944   C811    1.338   1_655 S
C944   O860    1.386   1_655 S
C946   C949    1.462   .     S
C946   C1148   1.340   .     S
C946   C1157   1.518   .     S
C947   C948    1.439   .     S
C948   O1000   1.279   .     A
C948   O992    1.279   .     A
C949   O1001   1.265   .     A
C949   O995    1.273   .     A
C950   C955    1.407   .     A
C950   C355    1.408   1_556 S
C950   O390    1.385   1_556 S
C951   C954    1.459   .     S
C951   O984    1.269   .     A
C951   O982    1.274   .     A
C952   O985    1.292   .     A
C952   O983    1.281   .     A
C955   O990    1.378   .     S
C956   H977    1.111   .     S
C956   H976    1.111   .     S
C957   H969    1.111   .     S
C957   H970    1.110   .     S
C957   C964    1.518   .     S
C957   H971    1.109   .     S
C958   O991    1.386   .     S
C959   C960    1.416   .     A
C959   C355    1.421   1_556 S
C959   C358    1.418   1_556 S
C960   C964    1.425   .     A
C962   C963    1.413   .     A
C962   C350    1.419   1_556 S
C962   C358    1.415   1_556 S
C963   O987    1.384   .     S
C963   C964    1.417   .     A
H965   C811    1.086   1_655 S
H966   O990    0.991   .     S
H967   O991    0.990   .     S
H968   O390    0.989   1_556 S
H972   O994    0.990   .     S
H973   C1148   1.086   .     S
H974   O986    0.989   .     S
H975   C1157   1.109   .     S
H978   O987    0.990   .     S
H979   O988    0.991   .     S
H980   O989    0.987   .     S
O981   Zn1003  1.946   .     S
O981   Zn1004  1.921   .     S
O981   Zn1002  1.963   .     S
O981   Zn1005  1.933   .     S
O982   Zn1003  1.923   .     S
O983   Zn1005  1.938   .     S
O984   Zn1004  1.935   .     S
O985   Zn1002  1.923   .     S
O988   C350    1.379   1_556 S
O992   Zn1002  1.930   .     S
O995   Zn1005  1.928   .     S
O996   Zn1003  1.925   .     S
O997   Zn1004  1.939   .     S
O998   Zn1005  1.931   .     S
O999   Zn1002  1.918   .     S
O1000  Zn1003  1.938   .     S
O1001  Zn1004  1.935   .     S
C1006  O1063   1.272   .     A
C1006  O1065   1.270   .     A
C1006  C1012   1.439   .     S
C1007  C1021   1.412   .     A
C1007  O1056   1.388   .     S
C1007  C1028   1.412   .     A
C1008  O1053   1.384   .     S
C1008  C1020   1.397   .     A
C1008  C1021   1.415   .     A
C1009  O1064   1.279   .     A
C1009  C1011   1.470   .     S
C1009  O1066   1.279   .     A
C1010  C1019   1.482   .     S
C1010  C1022   1.418   .     A
C1010  C1027   1.418   .     A
C1011  C1079   1.338   .     S
C1011  O1128   1.386   .     S
C1012  C1145   1.338   1_455 S
C1012  H1166   1.086   1_455 S
C1013  C1016   1.462   .     S
C1013  C612    1.340   1_565 S
C1013  C621    1.518   1_565 S
C1014  C1015   1.439   .     S
C1015  O1067   1.279   .     A
C1015  O1059   1.279   .     A
C1016  O1068   1.265   .     A
C1016  O1062   1.273   .     A
C1017  C1022   1.407   .     A
C1017  C422    1.408   1_556 S
C1017  O457    1.385   1_556 S
C1018  C1021   1.459   .     S
C1018  O1051   1.269   .     A
C1018  O1049   1.274   .     A
C1019  O1052   1.292   .     A
C1019  O1050   1.281   .     A
C1022  O1057   1.378   .     S
C1023  H1044   1.111   .     S
C1023  H1043   1.111   .     S
C1024  H1036   1.111   .     S
C1024  H1037   1.110   .     S
C1024  C1031   1.518   .     S
C1024  H1038   1.109   .     S
C1025  O1058   1.386   .     S
C1026  C1027   1.416   .     A
C1026  C422    1.421   1_556 S
C1026  C425    1.418   1_556 S
C1027  C1031   1.425   .     A
C1029  C1030   1.413   .     A
C1029  C417    1.419   1_556 S
C1029  C425    1.415   1_556 S
C1030  O1054   1.384   .     S
C1030  C1031   1.417   .     A
H1032  C1079   1.086   .     S
H1033  O1057   0.991   .     S
H1034  O1058   0.990   .     S
H1035  O457    0.989   1_556 S
H1039  O1061   0.990   .     S
H1040  C612    1.086   1_565 S
H1041  O1053   0.989   .     S
H1042  C621    1.109   1_565 S
H1045  O1054   0.990   .     S
H1046  O1055   0.991   .     S
H1047  O1056   0.987   .     S
O1048  Zn1070  1.946   .     S
O1048  Zn1071  1.921   .     S
O1048  Zn1069  1.963   .     S
O1048  Zn1072  1.933   .     S
O1049  Zn1070  1.923   .     S
O1050  Zn1072  1.938   .     S
O1051  Zn1071  1.935   .     S
O1052  Zn1069  1.923   .     S
O1055  C417    1.379   1_556 S
O1059  Zn1069  1.930   .     S
O1061  C1145   1.386   1_455 S
O1062  Zn1072  1.928   .     S
O1063  Zn1070  1.925   .     S
O1064  Zn1071  1.939   .     S
O1065  Zn1072  1.931   .     S
O1066  Zn1069  1.918   .     S
O1067  Zn1070  1.938   .     S
O1068  Zn1071  1.935   .     S
C1073  O1130   1.272   .     A
C1073  O1132   1.270   .     A
C1073  C1079   1.439   .     S
C1074  C1088   1.412   .     A
C1074  O1123   1.388   .     S
C1074  C1095   1.412   .     A
C1075  O1120   1.384   .     S
C1075  C1087   1.397   .     A
C1075  C1088   1.415   .     A
C1076  O1131   1.279   .     A
C1076  C1078   1.470   .     S
C1076  O1133   1.279   .     A
C1077  C1086   1.482   .     S
C1077  C1089   1.418   .     A
C1077  C1094   1.418   .     A
C1078  C1146   1.338   .     S
C1078  O1195   1.386   .     S
C1080  C1083   1.462   .     S
C1080  C679    1.340   1_565 S
C1080  C688    1.518   1_565 S
C1081  C1082   1.439   .     S
C1082  O1134   1.279   .     A
C1082  O1126   1.279   .     A
C1083  O1135   1.265   .     A
C1083  O1129   1.273   .     A
C1084  C1089   1.407   .     A
C1084  C489    1.408   1_556 S
C1084  O524    1.385   1_556 S
C1085  C1088   1.459   .     S
C1085  O1118   1.269   .     A
C1085  O1116   1.274   .     A
C1086  O1119   1.292   .     A
C1086  O1117   1.281   .     A
C1089  O1124   1.378   .     S
C1090  H1111   1.111   .     S
C1090  H1110   1.111   .     S
C1091  H1103   1.111   .     S
C1091  H1104   1.110   .     S
C1091  C1098   1.518   .     S
C1091  H1105   1.109   .     S
C1092  O1125   1.386   .     S
C1093  C1094   1.416   .     A
C1093  C489    1.421   1_556 S
C1093  C492    1.418   1_556 S
C1094  C1098   1.425   .     A
C1096  C1097   1.413   .     A
C1096  C484    1.419   1_556 S
C1096  C492    1.415   1_556 S
C1097  O1121   1.384   .     S
C1097  C1098   1.417   .     A
H1099  C1146   1.086   .     S
H1100  O1124   0.991   .     S
H1101  O1125   0.990   .     S
H1102  O524    0.989   1_556 S
H1106  O1128   0.990   .     S
H1107  C679    1.086   1_565 S
H1108  O1120   0.989   .     S
H1109  C688    1.109   1_565 S
H1112  O1121   0.990   .     S
H1113  O1122   0.991   .     S
H1114  O1123   0.987   .     S
O1115  Zn1137  1.946   .     S
O1115  Zn1138  1.921   .     S
O1115  Zn1136  1.963   .     S
O1115  Zn1139  1.933   .     S
O1116  Zn1137  1.923   .     S
O1117  Zn1139  1.938   .     S
O1118  Zn1138  1.935   .     S
O1119  Zn1136  1.923   .     S
O1122  C484    1.379   1_556 S
O1126  Zn1136  1.930   .     S
O1129  Zn1139  1.928   .     S
O1130  Zn1137  1.925   .     S
O1131  Zn1138  1.939   .     S
O1132  Zn1139  1.931   .     S
O1133  Zn1136  1.918   .     S
O1134  Zn1137  1.938   .     S
O1135  Zn1138  1.935   .     S
C1140  O1197   1.272   .     A
C1140  O1199   1.270   .     A
C1140  C1146   1.439   .     S
C1141  C1155   1.412   .     A
C1141  O1190   1.388   .     S
C1141  C1162   1.412   .     A
C1142  O1187   1.384   .     S
C1142  C1154   1.397   .     A
C1142  C1155   1.415   .     A
C1143  O1198   1.279   .     A
C1143  C1145   1.470   .     S
C1143  O1200   1.279   .     A
C1144  C1153   1.482   .     S
C1144  C1156   1.418   .     A
C1144  C1161   1.418   .     A
C1145  C1012   1.338   1_655 S
C1145  O1061   1.386   1_655 S
C1147  C1150   1.462   .     S
C1147  C746    1.340   1_565 S
C1147  C755    1.518   1_565 S
C1148  C1149   1.439   .     S
C1149  O1201   1.279   .     A
C1149  O1193   1.279   .     A
C1150  O1202   1.265   .     A
C1150  O1196   1.273   .     A
C1151  C1156   1.407   .     A
C1151  C556    1.408   1_556 S
C1151  O591    1.385   1_556 S
C1152  C1155   1.459   .     S
C1152  O1185   1.269   .     A
C1152  O1183   1.274   .     A
C1153  O1186   1.292   .     A
C1153  O1184   1.281   .     A
C1156  O1191   1.378   .     S
C1157  H1178   1.111   .     S
C1157  H1177   1.111   .     S
C1158  H1170   1.111   .     S
C1158  H1171   1.110   .     S
C1158  C1165   1.518   .     S
C1158  H1172   1.109   .     S
C1159  O1192   1.386   .     S
C1160  C1161   1.416   .     A
C1160  C556    1.421   1_556 S
C1160  C559    1.418   1_556 S
C1161  C1165   1.425   .     A
C1163  C1164   1.413   .     A
C1163  C551    1.419   1_556 S
C1163  C559    1.415   1_556 S
C1164  O1188   1.384   .     S
C1164  C1165   1.417   .     A
H1166  C1012   1.086   1_655 S
H1167  O1191   0.991   .     S
H1168  O1192   0.990   .     S
H1169  O591    0.989   1_556 S
H1173  O1195   0.990   .     S
H1174  C746    1.086   1_565 S
H1175  O1187   0.989   .     S
H1176  C755    1.109   1_565 S
H1179  O1188   0.990   .     S
H1180  O1189   0.991   .     S
H1181  O1190   0.987   .     S
O1182  Zn1204  1.946   .     S
O1182  Zn1205  1.921   .     S
O1182  Zn1203  1.963   .     S
O1182  Zn1206  1.933   .     S
O1183  Zn1204  1.923   .     S
O1184  Zn1206  1.938   .     S
O1185  Zn1205  1.935   .     S
O1186  Zn1203  1.923   .     S
O1189  C551    1.379   1_556 S
O1193  Zn1203  1.930   .     S
O1196  Zn1206  1.928   .     S
O1197  Zn1204  1.925   .     S
O1198  Zn1205  1.939   .     S
O1199  Zn1206  1.931   .     S
O1200  Zn1203  1.918   .     S
O1201  Zn1204  1.938   .     S
O1202  Zn1205  1.935   .     S
