data_str_m1_o10_o18_pcu_sym.4
_audit_creation_date              2020-01-03
_audit_creation_method            'Materials Studio'
_symmetry_space_group_name_H-M    'P1'
_symmetry_Int_Tables_number       1
_symmetry_cell_setting            triclinic
loop_
_symmetry_equiv_pos_as_xyz
  x,y,z
_cell_length_a                    32.5098
_cell_length_b                    32.5131
_cell_length_c                    35.7961
_cell_angle_alpha                 98.1571
_cell_angle_beta                  72.9760
_cell_angle_gamma                 98.6470
loop_
_atom_site_label
_atom_site_type_symbol
_atom_site_fract_x
_atom_site_fract_y
_atom_site_fract_z
_atom_site_U_iso_or_equiv
_atom_site_adp_type
_atom_site_occupancy
C1     C     0.05248   0.15993   0.25874   0.00000  Uiso   1.00
C2     C     0.20226   0.13166   0.45850   0.00000  Uiso   1.00
C3     C     0.23246   0.12360   0.47763   0.00000  Uiso   1.00
C4     C     0.28106   0.17367   0.24125   0.00000  Uiso   1.00
C5     C     0.22226   0.13068   0.01892   0.00000  Uiso   1.00
C6     C     0.18249   0.14570   0.04047   0.00000  Uiso   1.00
C7     C     0.25018   0.12148   0.03927   0.00000  Uiso   1.00
C8     C     0.23914   0.12808   0.08003   0.00000  Uiso   1.00
C9     C     0.16705   0.14105   0.08123   0.00000  Uiso   1.00
C10    C     0.32707   0.17659   0.23785   0.00000  Uiso   1.00
C11    C     0.00706   0.15756   0.26215   0.00000  Uiso   1.00
C12    C     0.09907   0.21366   0.42140   0.00000  Uiso   1.00
C13    C     0.18092   0.32219   0.23808   0.00000  Uiso   1.00
C14    C     0.15153   0.01207   0.26208   0.00000  Uiso   1.00
C15    C     0.15592   0.05612   0.25888   0.00000  Uiso   1.00
C16    C     0.17687   0.27769   0.24134   0.00000  Uiso   1.00
C17    C     0.18777   0.14568   0.14394   0.00000  Uiso   1.00
C18    C     0.14585   0.18805   0.35605   0.00000  Uiso   1.00
C19    C     0.13620   0.19551   0.39905   0.00000  Uiso   1.00
C20    C     0.19748   0.13722   0.10123   0.00000  Uiso   1.00
C21    C     0.08924   0.21864   0.46220   0.00000  Uiso   1.00
C22    C     0.30415   0.13805   0.44735   0.00000  Uiso   1.00
C23    C     0.16389   0.18304   0.41799   0.00000  Uiso   1.00
C24    C     0.01035   0.11922   0.42003   0.00000  Uiso   1.00
C25    C     0.23358   0.21320   0.39859   0.00000  Uiso   1.00
C26    C     0.27605   0.20927   0.36667   0.00000  Uiso   1.00
C27    C     0.22827   0.09302   0.39627   0.00000  Uiso   1.00
C28    C     0.23335   0.04720   0.39663   0.00000  Uiso   1.00
C29    C     0.15001   0.18077   0.45903   0.00000  Uiso   1.00
C30    C     0.11447   0.20251   0.48116   0.00000  Uiso   1.00
C31    C     0.17175   0.15989   0.47885   0.00000  Uiso   1.00
C32    C     0.16087   0.16588   0.02048   0.00000  Uiso   1.00
C33    C     0.13039   0.19360   0.04094   0.00000  Uiso   1.00
C34    C     0.10575   0.20957   0.02187   0.00000  Uiso   1.00
H35    H     0.08059   0.22854   0.03895   0.00000  Uiso   1.00
H36    H     0.12478   0.20259   0.07209   0.00000  Uiso   1.00
H37    H     0.06303   0.15750   0.15278   0.00000  Uiso   1.00
H38    H     0.31281   0.15403   0.47408   0.00000  Uiso   1.00
H39    H     0.29593   0.16200   0.43217   0.00000  Uiso   1.00
H40    H     0.00267   0.10283   0.39307   0.00000  Uiso   1.00
H41    H     0.03742   0.14428   0.41149   0.00000  Uiso   1.00
H42    H     0.02060   0.09659   0.43507   0.00000  Uiso   1.00
H43    H     0.24039   0.21850   0.42772   0.00000  Uiso   1.00
H44    H     0.21987   0.24096   0.39400   0.00000  Uiso   1.00
H45    H     0.27009   0.20504   0.33729   0.00000  Uiso   1.00
H46    H     0.28108   0.11036   0.02397   0.00000  Uiso   1.00
H47    H     0.29882   0.23804   0.36876   0.00000  Uiso   1.00
H48    H     0.29109   0.18202   0.36996   0.00000  Uiso   1.00
H49    H     0.22129   0.09569   0.36818   0.00000  Uiso   1.00
H50    H     0.25876   0.11375   0.39510   0.00000  Uiso   1.00
H51    H     0.23631   0.04124   0.42542   0.00000  Uiso   1.00
H52    H     0.20462   0.02701   0.39095   0.00000  Uiso   1.00
H53    H     0.26270   0.03862   0.37331   0.00000  Uiso   1.00
H54    H     0.01683   0.19427   0.21553   0.00000  Uiso   1.00
H55    H     0.31795   0.13987   0.28480   0.00000  Uiso   1.00
H56    H     0.20807   0.00284   0.21600   0.00000  Uiso   1.00
H57    H     0.12401   0.33218   0.28424   0.00000  Uiso   1.00
H58    H     0.26238   0.12393   0.09518   0.00000  Uiso   1.00
H59    H     0.06144   0.23441   0.47897   0.00000  Uiso   1.00
H60    H     0.07789   0.22439   0.40735   0.00000  Uiso   1.00
O61    O     0.16667   0.16667   0.25000   0.00000  Uiso   1.00
O62    O     0.15693   0.12393   0.16625   0.00000  Uiso   1.00
O63    O     0.12687   0.20646   0.33749   0.00000  Uiso   1.00
O64    O     0.21088   0.17493   0.15877   0.00000  Uiso   1.00
O65    O     0.17198   0.16135   0.33749   0.00000  Uiso   1.00
O66    O     0.08427   0.12223   0.07547   0.00000  Uiso   1.00
O67    O     0.10394   0.08898   0.12345   0.00000  Uiso   1.00
O68    O     0.09327   0.16773   0.13925   0.00000  Uiso   1.00
O69    O     0.26964   0.10573   0.45698   0.00000  Uiso   1.00
O70    O     0.20548   0.17590   0.39626   0.00000  Uiso   1.00
O71    O     0.19237   0.10514   0.42714   0.00000  Uiso   1.00
O72    O     0.17849   0.08101   0.27820   0.00000  Uiso   1.00
O73    O     0.14581   0.26136   0.26767   0.00000  Uiso   1.00
O74    O     0.07452   0.13251   0.23607   0.00000  Uiso   1.00
O75    O     0.26785   0.19179   0.21806   0.00000  Uiso   1.00
O76    O     0.06990   0.18960   0.27820   0.00000  Uiso   1.00
O77    O     0.25440   0.15277   0.26767   0.00000  Uiso   1.00
O78    O     0.13800   0.06903   0.23607   0.00000  Uiso   1.00
O79    O     0.20437   0.25527   0.21806   0.00000  Uiso   1.00
S80    S     0.11060   0.12876   0.10449   0.00000  Uiso   1.00
Zn81   Zn    0.19244   0.14090   0.28277   0.00000  Uiso   1.00
Zn82   Zn    0.13459   0.12378   0.22257   0.00000  Uiso   1.00
Zn83   Zn    0.21166   0.19664   0.21188   0.00000  Uiso   1.00
Zn84   Zn    0.12798   0.20535   0.28277   0.00000  Uiso   1.00
C85    C     0.38581   0.15993   0.25874   0.00000  Uiso   1.00
C86    C     0.53559   0.13166   0.45850   0.00000  Uiso   1.00
C87    C     0.56579   0.12360   0.47763   0.00000  Uiso   1.00
C88    C     0.61440   0.17367   0.24125   0.00000  Uiso   1.00
C89    C     0.55559   0.13068   0.01892   0.00000  Uiso   1.00
C90    C     0.51582   0.14570   0.04047   0.00000  Uiso   1.00
C91    C     0.58351   0.12148   0.03927   0.00000  Uiso   1.00
C92    C     0.57247   0.12808   0.08003   0.00000  Uiso   1.00
C93    C     0.50039   0.14105   0.08123   0.00000  Uiso   1.00
C94    C     0.66040   0.17659   0.23785   0.00000  Uiso   1.00
C95    C     0.34040   0.15756   0.26215   0.00000  Uiso   1.00
C96    C     0.43240   0.21366   0.42140   0.00000  Uiso   1.00
C97    C     0.51426   0.32219   0.23808   0.00000  Uiso   1.00
C98    C     0.48486   0.01207   0.26208   0.00000  Uiso   1.00
C99    C     0.48925   0.05612   0.25888   0.00000  Uiso   1.00
C100   C     0.51021   0.27769   0.24134   0.00000  Uiso   1.00
C101   C     0.52110   0.14568   0.14394   0.00000  Uiso   1.00
C102   C     0.47918   0.18805   0.35605   0.00000  Uiso   1.00
C103   C     0.46953   0.19551   0.39905   0.00000  Uiso   1.00
C104   C     0.53082   0.13722   0.10123   0.00000  Uiso   1.00
C105   C     0.42258   0.21864   0.46220   0.00000  Uiso   1.00
C106   C     0.63749   0.13805   0.44735   0.00000  Uiso   1.00
C107   C     0.49722   0.18304   0.41799   0.00000  Uiso   1.00
C108   C     0.34368   0.11922   0.42003   0.00000  Uiso   1.00
C109   C     0.56692   0.21320   0.39859   0.00000  Uiso   1.00
C110   C     0.60939   0.20927   0.36667   0.00000  Uiso   1.00
C111   C     0.56160   0.09302   0.39627   0.00000  Uiso   1.00
C112   C     0.56668   0.04720   0.39663   0.00000  Uiso   1.00
C113   C     0.48334   0.18077   0.45903   0.00000  Uiso   1.00
C114   C     0.44780   0.20251   0.48116   0.00000  Uiso   1.00
C115   C     0.50509   0.15989   0.47885   0.00000  Uiso   1.00
C116   C     0.49420   0.16588   0.02048   0.00000  Uiso   1.00
C117   C     0.46372   0.19360   0.04094   0.00000  Uiso   1.00
C118   C     0.43908   0.20957   0.02187   0.00000  Uiso   1.00
H119   H     0.41393   0.22854   0.03895   0.00000  Uiso   1.00
H120   H     0.45811   0.20259   0.07209   0.00000  Uiso   1.00
H121   H     0.39636   0.15750   0.15278   0.00000  Uiso   1.00
H122   H     0.64614   0.15403   0.47408   0.00000  Uiso   1.00
H123   H     0.62926   0.16200   0.43217   0.00000  Uiso   1.00
H124   H     0.33601   0.10283   0.39307   0.00000  Uiso   1.00
H125   H     0.37076   0.14428   0.41149   0.00000  Uiso   1.00
H126   H     0.35393   0.09659   0.43507   0.00000  Uiso   1.00
H127   H     0.57372   0.21850   0.42772   0.00000  Uiso   1.00
H128   H     0.55320   0.24096   0.39400   0.00000  Uiso   1.00
H129   H     0.60342   0.20504   0.33729   0.00000  Uiso   1.00
H130   H     0.61442   0.11036   0.02397   0.00000  Uiso   1.00
H131   H     0.63215   0.23804   0.36876   0.00000  Uiso   1.00
H132   H     0.62443   0.18202   0.36996   0.00000  Uiso   1.00
H133   H     0.55463   0.09569   0.36818   0.00000  Uiso   1.00
H134   H     0.59209   0.11375   0.39510   0.00000  Uiso   1.00
H135   H     0.56964   0.04124   0.42542   0.00000  Uiso   1.00
H136   H     0.53795   0.02701   0.39095   0.00000  Uiso   1.00
H137   H     0.59603   0.03862   0.37331   0.00000  Uiso   1.00
H138   H     0.35017   0.19427   0.21553   0.00000  Uiso   1.00
H139   H     0.65128   0.13987   0.28480   0.00000  Uiso   1.00
H140   H     0.54141   0.00284   0.21600   0.00000  Uiso   1.00
H141   H     0.45734   0.33218   0.28424   0.00000  Uiso   1.00
H142   H     0.59571   0.12393   0.09518   0.00000  Uiso   1.00
H143   H     0.39477   0.23441   0.47897   0.00000  Uiso   1.00
H144   H     0.41123   0.22439   0.40735   0.00000  Uiso   1.00
O145   O     0.50000   0.16667   0.25000   0.00000  Uiso   1.00
O146   O     0.49027   0.12393   0.16625   0.00000  Uiso   1.00
O147   O     0.46020   0.20646   0.33749   0.00000  Uiso   1.00
O148   O     0.54421   0.17493   0.15877   0.00000  Uiso   1.00
O149   O     0.50532   0.16135   0.33749   0.00000  Uiso   1.00
O150   O     0.41760   0.12223   0.07547   0.00000  Uiso   1.00
O151   O     0.43728   0.08898   0.12345   0.00000  Uiso   1.00
O152   O     0.42661   0.16773   0.13925   0.00000  Uiso   1.00
O153   O     0.60297   0.10573   0.45698   0.00000  Uiso   1.00
O154   O     0.53881   0.17590   0.39626   0.00000  Uiso   1.00
O155   O     0.52571   0.10514   0.42714   0.00000  Uiso   1.00
O156   O     0.51182   0.08101   0.27820   0.00000  Uiso   1.00
O157   O     0.47914   0.26136   0.26767   0.00000  Uiso   1.00
O158   O     0.40785   0.13251   0.23607   0.00000  Uiso   1.00
O159   O     0.60119   0.19179   0.21806   0.00000  Uiso   1.00
O160   O     0.40323   0.18960   0.27820   0.00000  Uiso   1.00
O161   O     0.58773   0.15277   0.26767   0.00000  Uiso   1.00
O162   O     0.47133   0.06903   0.23607   0.00000  Uiso   1.00
O163   O     0.53771   0.25527   0.21806   0.00000  Uiso   1.00
S164   S     0.44393   0.12876   0.10449   0.00000  Uiso   1.00
Zn165  Zn    0.52577   0.14090   0.28277   0.00000  Uiso   1.00
Zn166  Zn    0.46792   0.12378   0.22257   0.00000  Uiso   1.00
Zn167  Zn    0.54500   0.19664   0.21188   0.00000  Uiso   1.00
Zn168  Zn    0.46131   0.20535   0.28277   0.00000  Uiso   1.00
C169   C     0.71915   0.15993   0.25874   0.00000  Uiso   1.00
C170   C     0.86893   0.13166   0.45850   0.00000  Uiso   1.00
C171   C     0.89912   0.12360   0.47763   0.00000  Uiso   1.00
C172   C     0.94773   0.17367   0.24125   0.00000  Uiso   1.00
C173   C     0.88893   0.13068   0.01892   0.00000  Uiso   1.00
C174   C     0.84915   0.14570   0.04047   0.00000  Uiso   1.00
C175   C     0.91685   0.12148   0.03927   0.00000  Uiso   1.00
C176   C     0.90581   0.12808   0.08003   0.00000  Uiso   1.00
C177   C     0.83372   0.14105   0.08123   0.00000  Uiso   1.00
C178   C     0.99373   0.17659   0.23785   0.00000  Uiso   1.00
C179   C     0.67373   0.15756   0.26215   0.00000  Uiso   1.00
C180   C     0.76574   0.21366   0.42140   0.00000  Uiso   1.00
C181   C     0.84759   0.32219   0.23808   0.00000  Uiso   1.00
C182   C     0.81819   0.01207   0.26208   0.00000  Uiso   1.00
C183   C     0.82258   0.05612   0.25888   0.00000  Uiso   1.00
C184   C     0.84354   0.27769   0.24134   0.00000  Uiso   1.00
C185   C     0.85443   0.14568   0.14394   0.00000  Uiso   1.00
C186   C     0.81251   0.18805   0.35605   0.00000  Uiso   1.00
C187   C     0.80286   0.19551   0.39905   0.00000  Uiso   1.00
C188   C     0.86415   0.13722   0.10123   0.00000  Uiso   1.00
C189   C     0.75591   0.21864   0.46220   0.00000  Uiso   1.00
C190   C     0.97082   0.13805   0.44735   0.00000  Uiso   1.00
C191   C     0.83056   0.18304   0.41799   0.00000  Uiso   1.00
C192   C     0.67702   0.11922   0.42003   0.00000  Uiso   1.00
C193   C     0.90025   0.21320   0.39859   0.00000  Uiso   1.00
C194   C     0.94272   0.20927   0.36667   0.00000  Uiso   1.00
C195   C     0.89494   0.09302   0.39627   0.00000  Uiso   1.00
C196   C     0.90002   0.04720   0.39663   0.00000  Uiso   1.00
C197   C     0.81668   0.18077   0.45903   0.00000  Uiso   1.00
C198   C     0.78113   0.20251   0.48116   0.00000  Uiso   1.00
C199   C     0.83842   0.15989   0.47885   0.00000  Uiso   1.00
C200   C     0.82754   0.16588   0.02048   0.00000  Uiso   1.00
C201   C     0.79706   0.19360   0.04094   0.00000  Uiso   1.00
C202   C     0.77242   0.20957   0.02187   0.00000  Uiso   1.00
H203   H     0.74726   0.22854   0.03895   0.00000  Uiso   1.00
H204   H     0.79144   0.20259   0.07209   0.00000  Uiso   1.00
H205   H     0.72969   0.15750   0.15278   0.00000  Uiso   1.00
H206   H     0.97948   0.15403   0.47408   0.00000  Uiso   1.00
H207   H     0.96259   0.16200   0.43217   0.00000  Uiso   1.00
H208   H     0.66934   0.10283   0.39307   0.00000  Uiso   1.00
H209   H     0.70409   0.14428   0.41149   0.00000  Uiso   1.00
H210   H     0.68726   0.09659   0.43507   0.00000  Uiso   1.00
H211   H     0.90705   0.21850   0.42772   0.00000  Uiso   1.00
H212   H     0.88654   0.24096   0.39400   0.00000  Uiso   1.00
H213   H     0.93675   0.20504   0.33729   0.00000  Uiso   1.00
H214   H     0.94775   0.11036   0.02397   0.00000  Uiso   1.00
H215   H     0.96548   0.23804   0.36876   0.00000  Uiso   1.00
H216   H     0.95776   0.18202   0.36996   0.00000  Uiso   1.00
H217   H     0.88796   0.09569   0.36818   0.00000  Uiso   1.00
H218   H     0.92542   0.11375   0.39510   0.00000  Uiso   1.00
H219   H     0.90298   0.04124   0.42542   0.00000  Uiso   1.00
H220   H     0.87128   0.02701   0.39095   0.00000  Uiso   1.00
H221   H     0.92936   0.03862   0.37331   0.00000  Uiso   1.00
H222   H     0.68350   0.19427   0.21553   0.00000  Uiso   1.00
H223   H     0.98461   0.13987   0.28480   0.00000  Uiso   1.00
H224   H     0.87474   0.00284   0.21600   0.00000  Uiso   1.00
H225   H     0.79067   0.33218   0.28424   0.00000  Uiso   1.00
H226   H     0.92904   0.12393   0.09518   0.00000  Uiso   1.00
H227   H     0.72811   0.23441   0.47897   0.00000  Uiso   1.00
H228   H     0.74456   0.22439   0.40735   0.00000  Uiso   1.00
O229   O     0.83333   0.16667   0.25000   0.00000  Uiso   1.00
O230   O     0.82360   0.12393   0.16625   0.00000  Uiso   1.00
O231   O     0.79354   0.20646   0.33749   0.00000  Uiso   1.00
O232   O     0.87755   0.17493   0.15877   0.00000  Uiso   1.00
O233   O     0.83865   0.16135   0.33749   0.00000  Uiso   1.00
O234   O     0.75094   0.12223   0.07547   0.00000  Uiso   1.00
O235   O     0.77061   0.08898   0.12345   0.00000  Uiso   1.00
O236   O     0.75994   0.16773   0.13925   0.00000  Uiso   1.00
O237   O     0.93630   0.10573   0.45698   0.00000  Uiso   1.00
O238   O     0.87215   0.17590   0.39626   0.00000  Uiso   1.00
O239   O     0.85904   0.10514   0.42714   0.00000  Uiso   1.00
O240   O     0.84515   0.08101   0.27820   0.00000  Uiso   1.00
O241   O     0.81247   0.26136   0.26767   0.00000  Uiso   1.00
O242   O     0.74119   0.13251   0.23607   0.00000  Uiso   1.00
O243   O     0.93452   0.19179   0.21806   0.00000  Uiso   1.00
O244   O     0.73656   0.18960   0.27820   0.00000  Uiso   1.00
O245   O     0.92106   0.15277   0.26767   0.00000  Uiso   1.00
O246   O     0.80467   0.06903   0.23607   0.00000  Uiso   1.00
O247   O     0.87104   0.25527   0.21806   0.00000  Uiso   1.00
S248   S     0.77727   0.12876   0.10449   0.00000  Uiso   1.00
Zn249  Zn    0.85910   0.14090   0.28277   0.00000  Uiso   1.00
Zn250  Zn    0.80125   0.12378   0.22257   0.00000  Uiso   1.00
Zn251  Zn    0.87833   0.19664   0.21188   0.00000  Uiso   1.00
Zn252  Zn    0.79465   0.20535   0.28277   0.00000  Uiso   1.00
C253   C     0.05248   0.49326   0.25874   0.00000  Uiso   1.00
C254   C     0.20226   0.46500   0.45850   0.00000  Uiso   1.00
C255   C     0.23246   0.45694   0.47763   0.00000  Uiso   1.00
C256   C     0.28106   0.50700   0.24125   0.00000  Uiso   1.00
C257   C     0.22226   0.46401   0.01892   0.00000  Uiso   1.00
C258   C     0.18249   0.47903   0.04047   0.00000  Uiso   1.00
C259   C     0.25018   0.45481   0.03927   0.00000  Uiso   1.00
C260   C     0.23914   0.46141   0.08003   0.00000  Uiso   1.00
C261   C     0.16705   0.47438   0.08123   0.00000  Uiso   1.00
C262   C     0.32707   0.50993   0.23785   0.00000  Uiso   1.00
C263   C     0.00706   0.49090   0.26215   0.00000  Uiso   1.00
C264   C     0.09907   0.54700   0.42140   0.00000  Uiso   1.00
C265   C     0.18092   0.65552   0.23808   0.00000  Uiso   1.00
C266   C     0.15153   0.34540   0.26208   0.00000  Uiso   1.00
C267   C     0.15592   0.38945   0.25888   0.00000  Uiso   1.00
C268   C     0.17687   0.61102   0.24134   0.00000  Uiso   1.00
C269   C     0.18777   0.47901   0.14394   0.00000  Uiso   1.00
C270   C     0.14585   0.52138   0.35605   0.00000  Uiso   1.00
C271   C     0.13620   0.52884   0.39905   0.00000  Uiso   1.00
C272   C     0.19748   0.47055   0.10123   0.00000  Uiso   1.00
C273   C     0.08924   0.55197   0.46220   0.00000  Uiso   1.00
C274   C     0.30415   0.47138   0.44735   0.00000  Uiso   1.00
C275   C     0.16389   0.51638   0.41799   0.00000  Uiso   1.00
C276   C     0.01035   0.45255   0.42003   0.00000  Uiso   1.00
C277   C     0.23358   0.54653   0.39859   0.00000  Uiso   1.00
C278   C     0.27605   0.54260   0.36667   0.00000  Uiso   1.00
C279   C     0.22827   0.42635   0.39627   0.00000  Uiso   1.00
C280   C     0.23335   0.38053   0.39663   0.00000  Uiso   1.00
C281   C     0.15001   0.51410   0.45903   0.00000  Uiso   1.00
C282   C     0.11447   0.53584   0.48116   0.00000  Uiso   1.00
C283   C     0.17175   0.49322   0.47885   0.00000  Uiso   1.00
C284   C     0.16087   0.49921   0.02048   0.00000  Uiso   1.00
C285   C     0.13039   0.52693   0.04094   0.00000  Uiso   1.00
C286   C     0.10575   0.54290   0.02187   0.00000  Uiso   1.00
H287   H     0.08059   0.56187   0.03895   0.00000  Uiso   1.00
H288   H     0.12478   0.53593   0.07209   0.00000  Uiso   1.00
H289   H     0.06303   0.49083   0.15278   0.00000  Uiso   1.00
H290   H     0.31281   0.48736   0.47408   0.00000  Uiso   1.00
H291   H     0.29593   0.49533   0.43217   0.00000  Uiso   1.00
H292   H     0.00267   0.43616   0.39307   0.00000  Uiso   1.00
H293   H     0.03742   0.47762   0.41149   0.00000  Uiso   1.00
H294   H     0.02060   0.42992   0.43507   0.00000  Uiso   1.00
H295   H     0.24039   0.55183   0.42772   0.00000  Uiso   1.00
H296   H     0.21987   0.57429   0.39400   0.00000  Uiso   1.00
H297   H     0.27009   0.53837   0.33729   0.00000  Uiso   1.00
H298   H     0.28108   0.44369   0.02397   0.00000  Uiso   1.00
H299   H     0.29882   0.57137   0.36876   0.00000  Uiso   1.00
H300   H     0.29109   0.51536   0.36996   0.00000  Uiso   1.00
H301   H     0.22129   0.42902   0.36818   0.00000  Uiso   1.00
H302   H     0.25876   0.44708   0.39510   0.00000  Uiso   1.00
H303   H     0.23631   0.37458   0.42542   0.00000  Uiso   1.00
H304   H     0.20462   0.36035   0.39095   0.00000  Uiso   1.00
H305   H     0.26270   0.37195   0.37331   0.00000  Uiso   1.00
H306   H     0.01683   0.52760   0.21553   0.00000  Uiso   1.00
H307   H     0.31795   0.47320   0.28480   0.00000  Uiso   1.00
H308   H     0.20807   0.33617   0.21600   0.00000  Uiso   1.00
H309   H     0.12401   0.66551   0.28424   0.00000  Uiso   1.00
H310   H     0.26238   0.45726   0.09518   0.00000  Uiso   1.00
H311   H     0.06144   0.56774   0.47897   0.00000  Uiso   1.00
H312   H     0.07789   0.55772   0.40735   0.00000  Uiso   1.00
O313   O     0.16667   0.50000   0.25000   0.00000  Uiso   1.00
O314   O     0.15693   0.45726   0.16625   0.00000  Uiso   1.00
O315   O     0.12687   0.53979   0.33749   0.00000  Uiso   1.00
O316   O     0.21088   0.50826   0.15877   0.00000  Uiso   1.00
O317   O     0.17198   0.49468   0.33749   0.00000  Uiso   1.00
O318   O     0.08427   0.45557   0.07547   0.00000  Uiso   1.00
O319   O     0.10394   0.42231   0.12345   0.00000  Uiso   1.00
O320   O     0.09327   0.50106   0.13925   0.00000  Uiso   1.00
O321   O     0.26964   0.43907   0.45698   0.00000  Uiso   1.00
O322   O     0.20548   0.50923   0.39626   0.00000  Uiso   1.00
O323   O     0.19237   0.43848   0.42714   0.00000  Uiso   1.00
O324   O     0.17849   0.41434   0.27820   0.00000  Uiso   1.00
O325   O     0.14581   0.59469   0.26767   0.00000  Uiso   1.00
O326   O     0.07452   0.46584   0.23607   0.00000  Uiso   1.00
O327   O     0.26785   0.52512   0.21806   0.00000  Uiso   1.00
O328   O     0.06990   0.52293   0.27820   0.00000  Uiso   1.00
O329   O     0.25440   0.48610   0.26767   0.00000  Uiso   1.00
O330   O     0.13800   0.40236   0.23607   0.00000  Uiso   1.00
O331   O     0.20437   0.58860   0.21806   0.00000  Uiso   1.00
S332   S     0.11060   0.46209   0.10449   0.00000  Uiso   1.00
Zn333  Zn    0.19244   0.47423   0.28277   0.00000  Uiso   1.00
Zn334  Zn    0.13459   0.45711   0.22257   0.00000  Uiso   1.00
Zn335  Zn    0.21166   0.52997   0.21188   0.00000  Uiso   1.00
Zn336  Zn    0.12798   0.53868   0.28277   0.00000  Uiso   1.00
C337   C     0.38581   0.49326   0.25874   0.00000  Uiso   1.00
C338   C     0.53559   0.46500   0.45850   0.00000  Uiso   1.00
C339   C     0.56579   0.45694   0.47763   0.00000  Uiso   1.00
C340   C     0.61440   0.50700   0.24125   0.00000  Uiso   1.00
C341   C     0.55559   0.46401   0.01892   0.00000  Uiso   1.00
C342   C     0.51582   0.47903   0.04047   0.00000  Uiso   1.00
C343   C     0.58351   0.45481   0.03927   0.00000  Uiso   1.00
C344   C     0.57247   0.46141   0.08003   0.00000  Uiso   1.00
C345   C     0.50039   0.47438   0.08123   0.00000  Uiso   1.00
C346   C     0.66040   0.50993   0.23785   0.00000  Uiso   1.00
C347   C     0.34040   0.49090   0.26215   0.00000  Uiso   1.00
C348   C     0.43240   0.54700   0.42140   0.00000  Uiso   1.00
C349   C     0.51426   0.65552   0.23808   0.00000  Uiso   1.00
C350   C     0.48486   0.34540   0.26208   0.00000  Uiso   1.00
C351   C     0.48925   0.38945   0.25888   0.00000  Uiso   1.00
C352   C     0.51021   0.61102   0.24134   0.00000  Uiso   1.00
C353   C     0.52110   0.47901   0.14394   0.00000  Uiso   1.00
C354   C     0.47918   0.52138   0.35605   0.00000  Uiso   1.00
C355   C     0.46953   0.52884   0.39905   0.00000  Uiso   1.00
C356   C     0.53082   0.47055   0.10123   0.00000  Uiso   1.00
C357   C     0.42258   0.55197   0.46220   0.00000  Uiso   1.00
C358   C     0.63749   0.47138   0.44735   0.00000  Uiso   1.00
C359   C     0.49722   0.51638   0.41799   0.00000  Uiso   1.00
C360   C     0.34368   0.45255   0.42003   0.00000  Uiso   1.00
C361   C     0.56692   0.54653   0.39859   0.00000  Uiso   1.00
C362   C     0.60939   0.54260   0.36667   0.00000  Uiso   1.00
C363   C     0.56160   0.42635   0.39627   0.00000  Uiso   1.00
C364   C     0.56668   0.38053   0.39663   0.00000  Uiso   1.00
C365   C     0.48334   0.51410   0.45903   0.00000  Uiso   1.00
C366   C     0.44780   0.53584   0.48116   0.00000  Uiso   1.00
C367   C     0.50509   0.49322   0.47885   0.00000  Uiso   1.00
C368   C     0.49420   0.49921   0.02048   0.00000  Uiso   1.00
C369   C     0.46372   0.52693   0.04094   0.00000  Uiso   1.00
C370   C     0.43908   0.54290   0.02187   0.00000  Uiso   1.00
H371   H     0.41393   0.56187   0.03895   0.00000  Uiso   1.00
H372   H     0.45811   0.53593   0.07209   0.00000  Uiso   1.00
H373   H     0.39636   0.49083   0.15278   0.00000  Uiso   1.00
H374   H     0.64614   0.48736   0.47408   0.00000  Uiso   1.00
H375   H     0.62926   0.49533   0.43217   0.00000  Uiso   1.00
H376   H     0.33601   0.43616   0.39307   0.00000  Uiso   1.00
H377   H     0.37076   0.47762   0.41149   0.00000  Uiso   1.00
H378   H     0.35393   0.42992   0.43507   0.00000  Uiso   1.00
H379   H     0.57372   0.55183   0.42772   0.00000  Uiso   1.00
H380   H     0.55320   0.57429   0.39400   0.00000  Uiso   1.00
H381   H     0.60342   0.53837   0.33729   0.00000  Uiso   1.00
H382   H     0.61442   0.44369   0.02397   0.00000  Uiso   1.00
H383   H     0.63215   0.57137   0.36876   0.00000  Uiso   1.00
H384   H     0.62443   0.51536   0.36996   0.00000  Uiso   1.00
H385   H     0.55463   0.42902   0.36818   0.00000  Uiso   1.00
H386   H     0.59209   0.44708   0.39510   0.00000  Uiso   1.00
H387   H     0.56964   0.37458   0.42542   0.00000  Uiso   1.00
H388   H     0.53795   0.36035   0.39095   0.00000  Uiso   1.00
H389   H     0.59603   0.37195   0.37331   0.00000  Uiso   1.00
H390   H     0.35017   0.52760   0.21553   0.00000  Uiso   1.00
H391   H     0.65128   0.47320   0.28480   0.00000  Uiso   1.00
H392   H     0.54141   0.33617   0.21600   0.00000  Uiso   1.00
H393   H     0.45734   0.66551   0.28424   0.00000  Uiso   1.00
H394   H     0.59571   0.45726   0.09518   0.00000  Uiso   1.00
H395   H     0.39477   0.56774   0.47897   0.00000  Uiso   1.00
H396   H     0.41123   0.55772   0.40735   0.00000  Uiso   1.00
O397   O     0.50000   0.50000   0.25000   0.00000  Uiso   1.00
O398   O     0.49027   0.45726   0.16625   0.00000  Uiso   1.00
O399   O     0.46020   0.53979   0.33749   0.00000  Uiso   1.00
O400   O     0.54421   0.50826   0.15877   0.00000  Uiso   1.00
O401   O     0.50532   0.49468   0.33749   0.00000  Uiso   1.00
O402   O     0.41760   0.45557   0.07547   0.00000  Uiso   1.00
O403   O     0.43728   0.42231   0.12345   0.00000  Uiso   1.00
O404   O     0.42661   0.50106   0.13925   0.00000  Uiso   1.00
O405   O     0.60297   0.43907   0.45698   0.00000  Uiso   1.00
O406   O     0.53881   0.50923   0.39626   0.00000  Uiso   1.00
O407   O     0.52571   0.43848   0.42714   0.00000  Uiso   1.00
O408   O     0.51182   0.41434   0.27820   0.00000  Uiso   1.00
O409   O     0.47914   0.59469   0.26767   0.00000  Uiso   1.00
O410   O     0.40785   0.46584   0.23607   0.00000  Uiso   1.00
O411   O     0.60119   0.52512   0.21806   0.00000  Uiso   1.00
O412   O     0.40323   0.52293   0.27820   0.00000  Uiso   1.00
O413   O     0.58773   0.48610   0.26767   0.00000  Uiso   1.00
O414   O     0.47133   0.40236   0.23607   0.00000  Uiso   1.00
O415   O     0.53771   0.58860   0.21806   0.00000  Uiso   1.00
S416   S     0.44393   0.46209   0.10449   0.00000  Uiso   1.00
Zn417  Zn    0.52577   0.47423   0.28277   0.00000  Uiso   1.00
Zn418  Zn    0.46792   0.45711   0.22257   0.00000  Uiso   1.00
Zn419  Zn    0.54500   0.52997   0.21188   0.00000  Uiso   1.00
Zn420  Zn    0.46131   0.53868   0.28277   0.00000  Uiso   1.00
C421   C     0.71915   0.49326   0.25874   0.00000  Uiso   1.00
C422   C     0.86893   0.46500   0.45850   0.00000  Uiso   1.00
C423   C     0.89912   0.45694   0.47763   0.00000  Uiso   1.00
C424   C     0.94773   0.50700   0.24125   0.00000  Uiso   1.00
C425   C     0.88893   0.46401   0.01892   0.00000  Uiso   1.00
C426   C     0.84915   0.47903   0.04047   0.00000  Uiso   1.00
C427   C     0.91685   0.45481   0.03927   0.00000  Uiso   1.00
C428   C     0.90581   0.46141   0.08003   0.00000  Uiso   1.00
C429   C     0.83372   0.47438   0.08123   0.00000  Uiso   1.00
C430   C     0.99373   0.50993   0.23785   0.00000  Uiso   1.00
C431   C     0.67373   0.49090   0.26215   0.00000  Uiso   1.00
C432   C     0.76574   0.54700   0.42140   0.00000  Uiso   1.00
C433   C     0.84759   0.65552   0.23808   0.00000  Uiso   1.00
C434   C     0.81819   0.34540   0.26208   0.00000  Uiso   1.00
C435   C     0.82258   0.38945   0.25888   0.00000  Uiso   1.00
C436   C     0.84354   0.61102   0.24134   0.00000  Uiso   1.00
C437   C     0.85443   0.47901   0.14394   0.00000  Uiso   1.00
C438   C     0.81251   0.52138   0.35605   0.00000  Uiso   1.00
C439   C     0.80286   0.52884   0.39905   0.00000  Uiso   1.00
C440   C     0.86415   0.47055   0.10123   0.00000  Uiso   1.00
C441   C     0.75591   0.55197   0.46220   0.00000  Uiso   1.00
C442   C     0.97082   0.47138   0.44735   0.00000  Uiso   1.00
C443   C     0.83056   0.51638   0.41799   0.00000  Uiso   1.00
C444   C     0.67702   0.45255   0.42003   0.00000  Uiso   1.00
C445   C     0.90025   0.54653   0.39859   0.00000  Uiso   1.00
C446   C     0.94272   0.54260   0.36667   0.00000  Uiso   1.00
C447   C     0.89494   0.42635   0.39627   0.00000  Uiso   1.00
C448   C     0.90002   0.38053   0.39663   0.00000  Uiso   1.00
C449   C     0.81668   0.51410   0.45903   0.00000  Uiso   1.00
C450   C     0.78113   0.53584   0.48116   0.00000  Uiso   1.00
C451   C     0.83842   0.49322   0.47885   0.00000  Uiso   1.00
C452   C     0.82754   0.49921   0.02048   0.00000  Uiso   1.00
C453   C     0.79706   0.52693   0.04094   0.00000  Uiso   1.00
C454   C     0.77242   0.54290   0.02187   0.00000  Uiso   1.00
H455   H     0.74726   0.56187   0.03895   0.00000  Uiso   1.00
H456   H     0.79144   0.53593   0.07209   0.00000  Uiso   1.00
H457   H     0.72969   0.49083   0.15278   0.00000  Uiso   1.00
H458   H     0.97948   0.48736   0.47408   0.00000  Uiso   1.00
H459   H     0.96259   0.49533   0.43217   0.00000  Uiso   1.00
H460   H     0.66934   0.43616   0.39307   0.00000  Uiso   1.00
H461   H     0.70409   0.47762   0.41149   0.00000  Uiso   1.00
H462   H     0.68726   0.42992   0.43507   0.00000  Uiso   1.00
H463   H     0.90705   0.55183   0.42772   0.00000  Uiso   1.00
H464   H     0.88654   0.57429   0.39400   0.00000  Uiso   1.00
H465   H     0.93675   0.53837   0.33729   0.00000  Uiso   1.00
H466   H     0.94775   0.44369   0.02397   0.00000  Uiso   1.00
H467   H     0.96548   0.57137   0.36876   0.00000  Uiso   1.00
H468   H     0.95776   0.51536   0.36996   0.00000  Uiso   1.00
H469   H     0.88796   0.42902   0.36818   0.00000  Uiso   1.00
H470   H     0.92542   0.44708   0.39510   0.00000  Uiso   1.00
H471   H     0.90298   0.37458   0.42542   0.00000  Uiso   1.00
H472   H     0.87128   0.36035   0.39095   0.00000  Uiso   1.00
H473   H     0.92936   0.37195   0.37331   0.00000  Uiso   1.00
H474   H     0.68350   0.52760   0.21553   0.00000  Uiso   1.00
H475   H     0.98461   0.47320   0.28480   0.00000  Uiso   1.00
H476   H     0.87474   0.33617   0.21600   0.00000  Uiso   1.00
H477   H     0.79067   0.66551   0.28424   0.00000  Uiso   1.00
H478   H     0.92904   0.45726   0.09518   0.00000  Uiso   1.00
H479   H     0.72811   0.56774   0.47897   0.00000  Uiso   1.00
H480   H     0.74456   0.55772   0.40735   0.00000  Uiso   1.00
O481   O     0.83333   0.50000   0.25000   0.00000  Uiso   1.00
O482   O     0.82360   0.45726   0.16625   0.00000  Uiso   1.00
O483   O     0.79354   0.53979   0.33749   0.00000  Uiso   1.00
O484   O     0.87755   0.50826   0.15877   0.00000  Uiso   1.00
O485   O     0.83865   0.49468   0.33749   0.00000  Uiso   1.00
O486   O     0.75094   0.45557   0.07547   0.00000  Uiso   1.00
O487   O     0.77061   0.42231   0.12345   0.00000  Uiso   1.00
O488   O     0.75994   0.50106   0.13925   0.00000  Uiso   1.00
O489   O     0.93630   0.43907   0.45698   0.00000  Uiso   1.00
O490   O     0.87215   0.50923   0.39626   0.00000  Uiso   1.00
O491   O     0.85904   0.43848   0.42714   0.00000  Uiso   1.00
O492   O     0.84515   0.41434   0.27820   0.00000  Uiso   1.00
O493   O     0.81247   0.59469   0.26767   0.00000  Uiso   1.00
O494   O     0.74119   0.46584   0.23607   0.00000  Uiso   1.00
O495   O     0.93452   0.52512   0.21806   0.00000  Uiso   1.00
O496   O     0.73656   0.52293   0.27820   0.00000  Uiso   1.00
O497   O     0.92106   0.48610   0.26767   0.00000  Uiso   1.00
O498   O     0.80467   0.40236   0.23607   0.00000  Uiso   1.00
O499   O     0.87104   0.58860   0.21806   0.00000  Uiso   1.00
S500   S     0.77727   0.46209   0.10449   0.00000  Uiso   1.00
Zn501  Zn    0.85910   0.47423   0.28277   0.00000  Uiso   1.00
Zn502  Zn    0.80125   0.45711   0.22257   0.00000  Uiso   1.00
Zn503  Zn    0.87833   0.52997   0.21188   0.00000  Uiso   1.00
Zn504  Zn    0.79465   0.53868   0.28277   0.00000  Uiso   1.00
C505   C     0.05248   0.82660   0.25874   0.00000  Uiso   1.00
C506   C     0.20226   0.79833   0.45850   0.00000  Uiso   1.00
C507   C     0.23246   0.79027   0.47763   0.00000  Uiso   1.00
C508   C     0.28106   0.84033   0.24125   0.00000  Uiso   1.00
C509   C     0.22226   0.79735   0.01892   0.00000  Uiso   1.00
C510   C     0.18249   0.81237   0.04047   0.00000  Uiso   1.00
C511   C     0.25018   0.78814   0.03927   0.00000  Uiso   1.00
C512   C     0.23914   0.79474   0.08003   0.00000  Uiso   1.00
C513   C     0.16705   0.80771   0.08123   0.00000  Uiso   1.00
C514   C     0.32707   0.84326   0.23785   0.00000  Uiso   1.00
C515   C     0.00706   0.82423   0.26215   0.00000  Uiso   1.00
C516   C     0.09907   0.88033   0.42140   0.00000  Uiso   1.00
C517   C     0.18092   0.98885   0.23808   0.00000  Uiso   1.00
C518   C     0.15153   0.67873   0.26208   0.00000  Uiso   1.00
C519   C     0.15592   0.72278   0.25888   0.00000  Uiso   1.00
C520   C     0.17687   0.94435   0.24134   0.00000  Uiso   1.00
C521   C     0.18777   0.81234   0.14394   0.00000  Uiso   1.00
C522   C     0.14585   0.85472   0.35605   0.00000  Uiso   1.00
C523   C     0.13620   0.86217   0.39905   0.00000  Uiso   1.00
C524   C     0.19748   0.80388   0.10123   0.00000  Uiso   1.00
C525   C     0.08924   0.88531   0.46220   0.00000  Uiso   1.00
C526   C     0.30415   0.80472   0.44735   0.00000  Uiso   1.00
C527   C     0.16389   0.84971   0.41799   0.00000  Uiso   1.00
C528   C     0.01035   0.78589   0.42003   0.00000  Uiso   1.00
C529   C     0.23358   0.87986   0.39859   0.00000  Uiso   1.00
C530   C     0.27605   0.87593   0.36667   0.00000  Uiso   1.00
C531   C     0.22827   0.75968   0.39627   0.00000  Uiso   1.00
C532   C     0.23335   0.71386   0.39663   0.00000  Uiso   1.00
C533   C     0.15001   0.84743   0.45903   0.00000  Uiso   1.00
C534   C     0.11447   0.86917   0.48116   0.00000  Uiso   1.00
C535   C     0.17175   0.82656   0.47885   0.00000  Uiso   1.00
C536   C     0.16087   0.83254   0.02048   0.00000  Uiso   1.00
C537   C     0.13039   0.86027   0.04094   0.00000  Uiso   1.00
C538   C     0.10575   0.87624   0.02187   0.00000  Uiso   1.00
H539   H     0.08059   0.89521   0.03895   0.00000  Uiso   1.00
H540   H     0.12478   0.86926   0.07209   0.00000  Uiso   1.00
H541   H     0.06303   0.82416   0.15278   0.00000  Uiso   1.00
H542   H     0.31281   0.82069   0.47408   0.00000  Uiso   1.00
H543   H     0.29593   0.82867   0.43217   0.00000  Uiso   1.00
H544   H     0.00267   0.76950   0.39307   0.00000  Uiso   1.00
H545   H     0.03742   0.81095   0.41149   0.00000  Uiso   1.00
H546   H     0.02060   0.76325   0.43507   0.00000  Uiso   1.00
H547   H     0.24039   0.88516   0.42772   0.00000  Uiso   1.00
H548   H     0.21987   0.90762   0.39400   0.00000  Uiso   1.00
H549   H     0.27009   0.87171   0.33729   0.00000  Uiso   1.00
H550   H     0.28108   0.77703   0.02397   0.00000  Uiso   1.00
H551   H     0.29882   0.90471   0.36876   0.00000  Uiso   1.00
H552   H     0.29109   0.84869   0.36996   0.00000  Uiso   1.00
H553   H     0.22129   0.76235   0.36818   0.00000  Uiso   1.00
H554   H     0.25876   0.78042   0.39510   0.00000  Uiso   1.00
H555   H     0.23631   0.70791   0.42542   0.00000  Uiso   1.00
H556   H     0.20462   0.69368   0.39095   0.00000  Uiso   1.00
H557   H     0.26270   0.70528   0.37331   0.00000  Uiso   1.00
H558   H     0.01683   0.86094   0.21553   0.00000  Uiso   1.00
H559   H     0.31795   0.80654   0.28480   0.00000  Uiso   1.00
H560   H     0.20807   0.66951   0.21600   0.00000  Uiso   1.00
H561   H     0.12401   0.99885   0.28424   0.00000  Uiso   1.00
H562   H     0.26238   0.79060   0.09518   0.00000  Uiso   1.00
H563   H     0.06144   0.90108   0.47897   0.00000  Uiso   1.00
H564   H     0.07789   0.89105   0.40735   0.00000  Uiso   1.00
O565   O     0.16667   0.83333   0.25000   0.00000  Uiso   1.00
O566   O     0.15693   0.79060   0.16625   0.00000  Uiso   1.00
O567   O     0.12687   0.87313   0.33749   0.00000  Uiso   1.00
O568   O     0.21088   0.84159   0.15877   0.00000  Uiso   1.00
O569   O     0.17198   0.82802   0.33749   0.00000  Uiso   1.00
O570   O     0.08427   0.78890   0.07547   0.00000  Uiso   1.00
O571   O     0.10394   0.75564   0.12345   0.00000  Uiso   1.00
O572   O     0.09327   0.83440   0.13925   0.00000  Uiso   1.00
O573   O     0.26964   0.77240   0.45698   0.00000  Uiso   1.00
O574   O     0.20548   0.84257   0.39626   0.00000  Uiso   1.00
O575   O     0.19237   0.77181   0.42714   0.00000  Uiso   1.00
O576   O     0.17849   0.74768   0.27820   0.00000  Uiso   1.00
O577   O     0.14581   0.92803   0.26767   0.00000  Uiso   1.00
O578   O     0.07452   0.79917   0.23607   0.00000  Uiso   1.00
O579   O     0.26785   0.85845   0.21806   0.00000  Uiso   1.00
O580   O     0.06990   0.85627   0.27820   0.00000  Uiso   1.00
O581   O     0.25440   0.81944   0.26767   0.00000  Uiso   1.00
O582   O     0.13800   0.73570   0.23607   0.00000  Uiso   1.00
O583   O     0.20437   0.92193   0.21806   0.00000  Uiso   1.00
S584   S     0.11060   0.79543   0.10449   0.00000  Uiso   1.00
Zn585  Zn    0.19244   0.80756   0.28277   0.00000  Uiso   1.00
Zn586  Zn    0.13459   0.79044   0.22257   0.00000  Uiso   1.00
Zn587  Zn    0.21166   0.86331   0.21188   0.00000  Uiso   1.00
Zn588  Zn    0.12798   0.87202   0.28277   0.00000  Uiso   1.00
C589   C     0.38581   0.82660   0.25874   0.00000  Uiso   1.00
C590   C     0.53559   0.79833   0.45850   0.00000  Uiso   1.00
C591   C     0.56579   0.79027   0.47763   0.00000  Uiso   1.00
C592   C     0.61440   0.84033   0.24125   0.00000  Uiso   1.00
C593   C     0.55559   0.79735   0.01892   0.00000  Uiso   1.00
C594   C     0.51582   0.81237   0.04047   0.00000  Uiso   1.00
C595   C     0.58351   0.78814   0.03927   0.00000  Uiso   1.00
C596   C     0.57247   0.79474   0.08003   0.00000  Uiso   1.00
C597   C     0.50039   0.80771   0.08123   0.00000  Uiso   1.00
C598   C     0.66040   0.84326   0.23785   0.00000  Uiso   1.00
C599   C     0.34040   0.82423   0.26215   0.00000  Uiso   1.00
C600   C     0.43240   0.88033   0.42140   0.00000  Uiso   1.00
C601   C     0.51426   0.98885   0.23808   0.00000  Uiso   1.00
C602   C     0.48486   0.67873   0.26208   0.00000  Uiso   1.00
C603   C     0.48925   0.72278   0.25888   0.00000  Uiso   1.00
C604   C     0.51021   0.94435   0.24134   0.00000  Uiso   1.00
C605   C     0.52110   0.81234   0.14394   0.00000  Uiso   1.00
C606   C     0.47918   0.85472   0.35605   0.00000  Uiso   1.00
C607   C     0.46953   0.86217   0.39905   0.00000  Uiso   1.00
C608   C     0.53082   0.80388   0.10123   0.00000  Uiso   1.00
C609   C     0.42258   0.88531   0.46220   0.00000  Uiso   1.00
C610   C     0.63749   0.80472   0.44735   0.00000  Uiso   1.00
C611   C     0.49722   0.84971   0.41799   0.00000  Uiso   1.00
C612   C     0.34368   0.78589   0.42003   0.00000  Uiso   1.00
C613   C     0.56692   0.87986   0.39859   0.00000  Uiso   1.00
C614   C     0.60939   0.87593   0.36667   0.00000  Uiso   1.00
C615   C     0.56160   0.75968   0.39627   0.00000  Uiso   1.00
C616   C     0.56668   0.71386   0.39663   0.00000  Uiso   1.00
C617   C     0.48334   0.84743   0.45903   0.00000  Uiso   1.00
C618   C     0.44780   0.86917   0.48116   0.00000  Uiso   1.00
C619   C     0.50509   0.82656   0.47885   0.00000  Uiso   1.00
C620   C     0.49420   0.83254   0.02048   0.00000  Uiso   1.00
C621   C     0.46372   0.86027   0.04094   0.00000  Uiso   1.00
C622   C     0.43908   0.87624   0.02187   0.00000  Uiso   1.00
H623   H     0.41393   0.89521   0.03895   0.00000  Uiso   1.00
H624   H     0.45811   0.86926   0.07209   0.00000  Uiso   1.00
H625   H     0.39636   0.82416   0.15278   0.00000  Uiso   1.00
H626   H     0.64614   0.82069   0.47408   0.00000  Uiso   1.00
H627   H     0.62926   0.82867   0.43217   0.00000  Uiso   1.00
H628   H     0.33601   0.76950   0.39307   0.00000  Uiso   1.00
H629   H     0.37076   0.81095   0.41149   0.00000  Uiso   1.00
H630   H     0.35393   0.76325   0.43507   0.00000  Uiso   1.00
H631   H     0.57372   0.88516   0.42772   0.00000  Uiso   1.00
H632   H     0.55320   0.90762   0.39400   0.00000  Uiso   1.00
H633   H     0.60342   0.87171   0.33729   0.00000  Uiso   1.00
H634   H     0.61442   0.77703   0.02397   0.00000  Uiso   1.00
H635   H     0.63215   0.90471   0.36876   0.00000  Uiso   1.00
H636   H     0.62443   0.84869   0.36996   0.00000  Uiso   1.00
H637   H     0.55463   0.76235   0.36818   0.00000  Uiso   1.00
H638   H     0.59209   0.78042   0.39510   0.00000  Uiso   1.00
H639   H     0.56964   0.70791   0.42542   0.00000  Uiso   1.00
H640   H     0.53795   0.69368   0.39095   0.00000  Uiso   1.00
H641   H     0.59603   0.70528   0.37331   0.00000  Uiso   1.00
H642   H     0.35017   0.86094   0.21553   0.00000  Uiso   1.00
H643   H     0.65128   0.80654   0.28480   0.00000  Uiso   1.00
H644   H     0.54141   0.66951   0.21600   0.00000  Uiso   1.00
H645   H     0.45734   0.99885   0.28424   0.00000  Uiso   1.00
H646   H     0.59571   0.79060   0.09518   0.00000  Uiso   1.00
H647   H     0.39477   0.90108   0.47897   0.00000  Uiso   1.00
H648   H     0.41123   0.89105   0.40735   0.00000  Uiso   1.00
O649   O     0.50000   0.83333   0.25000   0.00000  Uiso   1.00
O650   O     0.49027   0.79060   0.16625   0.00000  Uiso   1.00
O651   O     0.46020   0.87313   0.33749   0.00000  Uiso   1.00
O652   O     0.54421   0.84159   0.15877   0.00000  Uiso   1.00
O653   O     0.50532   0.82802   0.33749   0.00000  Uiso   1.00
O654   O     0.41760   0.78890   0.07547   0.00000  Uiso   1.00
O655   O     0.43728   0.75564   0.12345   0.00000  Uiso   1.00
O656   O     0.42661   0.83440   0.13925   0.00000  Uiso   1.00
O657   O     0.60297   0.77240   0.45698   0.00000  Uiso   1.00
O658   O     0.53881   0.84257   0.39626   0.00000  Uiso   1.00
O659   O     0.52571   0.77181   0.42714   0.00000  Uiso   1.00
O660   O     0.51182   0.74768   0.27820   0.00000  Uiso   1.00
O661   O     0.47914   0.92803   0.26767   0.00000  Uiso   1.00
O662   O     0.40785   0.79917   0.23607   0.00000  Uiso   1.00
O663   O     0.60119   0.85845   0.21806   0.00000  Uiso   1.00
O664   O     0.40323   0.85627   0.27820   0.00000  Uiso   1.00
O665   O     0.58773   0.81944   0.26767   0.00000  Uiso   1.00
O666   O     0.47133   0.73570   0.23607   0.00000  Uiso   1.00
O667   O     0.53771   0.92193   0.21806   0.00000  Uiso   1.00
S668   S     0.44393   0.79543   0.10449   0.00000  Uiso   1.00
Zn669  Zn    0.52577   0.80756   0.28277   0.00000  Uiso   1.00
Zn670  Zn    0.46792   0.79044   0.22257   0.00000  Uiso   1.00
Zn671  Zn    0.54500   0.86331   0.21188   0.00000  Uiso   1.00
Zn672  Zn    0.46131   0.87202   0.28277   0.00000  Uiso   1.00
C673   C     0.71915   0.82660   0.25874   0.00000  Uiso   1.00
C674   C     0.86893   0.79833   0.45850   0.00000  Uiso   1.00
C675   C     0.89912   0.79027   0.47763   0.00000  Uiso   1.00
C676   C     0.94773   0.84033   0.24125   0.00000  Uiso   1.00
C677   C     0.88893   0.79735   0.01892   0.00000  Uiso   1.00
C678   C     0.84915   0.81237   0.04047   0.00000  Uiso   1.00
C679   C     0.91685   0.78814   0.03927   0.00000  Uiso   1.00
C680   C     0.90581   0.79474   0.08003   0.00000  Uiso   1.00
C681   C     0.83372   0.80771   0.08123   0.00000  Uiso   1.00
C682   C     0.99373   0.84326   0.23785   0.00000  Uiso   1.00
C683   C     0.67373   0.82423   0.26215   0.00000  Uiso   1.00
C684   C     0.76574   0.88033   0.42140   0.00000  Uiso   1.00
C685   C     0.84759   0.98885   0.23808   0.00000  Uiso   1.00
C686   C     0.81819   0.67873   0.26208   0.00000  Uiso   1.00
C687   C     0.82258   0.72278   0.25888   0.00000  Uiso   1.00
C688   C     0.84354   0.94435   0.24134   0.00000  Uiso   1.00
C689   C     0.85443   0.81234   0.14394   0.00000  Uiso   1.00
C690   C     0.81251   0.85472   0.35605   0.00000  Uiso   1.00
C691   C     0.80286   0.86217   0.39905   0.00000  Uiso   1.00
C692   C     0.86415   0.80388   0.10123   0.00000  Uiso   1.00
C693   C     0.75591   0.88531   0.46220   0.00000  Uiso   1.00
C694   C     0.97082   0.80472   0.44735   0.00000  Uiso   1.00
C695   C     0.83056   0.84971   0.41799   0.00000  Uiso   1.00
C696   C     0.67702   0.78589   0.42003   0.00000  Uiso   1.00
C697   C     0.90025   0.87986   0.39859   0.00000  Uiso   1.00
C698   C     0.94272   0.87593   0.36667   0.00000  Uiso   1.00
C699   C     0.89494   0.75968   0.39627   0.00000  Uiso   1.00
C700   C     0.90002   0.71386   0.39663   0.00000  Uiso   1.00
C701   C     0.81668   0.84743   0.45903   0.00000  Uiso   1.00
C702   C     0.78113   0.86917   0.48116   0.00000  Uiso   1.00
C703   C     0.83842   0.82656   0.47885   0.00000  Uiso   1.00
C704   C     0.82754   0.83254   0.02048   0.00000  Uiso   1.00
C705   C     0.79706   0.86027   0.04094   0.00000  Uiso   1.00
C706   C     0.77242   0.87624   0.02187   0.00000  Uiso   1.00
H707   H     0.74726   0.89521   0.03895   0.00000  Uiso   1.00
H708   H     0.79144   0.86926   0.07209   0.00000  Uiso   1.00
H709   H     0.72969   0.82416   0.15278   0.00000  Uiso   1.00
H710   H     0.97948   0.82069   0.47408   0.00000  Uiso   1.00
H711   H     0.96259   0.82867   0.43217   0.00000  Uiso   1.00
H712   H     0.66934   0.76950   0.39307   0.00000  Uiso   1.00
H713   H     0.70409   0.81095   0.41149   0.00000  Uiso   1.00
H714   H     0.68726   0.76325   0.43507   0.00000  Uiso   1.00
H715   H     0.90705   0.88516   0.42772   0.00000  Uiso   1.00
H716   H     0.88654   0.90762   0.39400   0.00000  Uiso   1.00
H717   H     0.93675   0.87171   0.33729   0.00000  Uiso   1.00
H718   H     0.94775   0.77703   0.02397   0.00000  Uiso   1.00
H719   H     0.96548   0.90471   0.36876   0.00000  Uiso   1.00
H720   H     0.95776   0.84869   0.36996   0.00000  Uiso   1.00
H721   H     0.88796   0.76235   0.36818   0.00000  Uiso   1.00
H722   H     0.92542   0.78042   0.39510   0.00000  Uiso   1.00
H723   H     0.90298   0.70791   0.42542   0.00000  Uiso   1.00
H724   H     0.87128   0.69368   0.39095   0.00000  Uiso   1.00
H725   H     0.92936   0.70528   0.37331   0.00000  Uiso   1.00
H726   H     0.68350   0.86094   0.21553   0.00000  Uiso   1.00
H727   H     0.98461   0.80654   0.28480   0.00000  Uiso   1.00
H728   H     0.87474   0.66951   0.21600   0.00000  Uiso   1.00
H729   H     0.79067   0.99885   0.28424   0.00000  Uiso   1.00
H730   H     0.92904   0.79060   0.09518   0.00000  Uiso   1.00
H731   H     0.72811   0.90108   0.47897   0.00000  Uiso   1.00
H732   H     0.74456   0.89105   0.40735   0.00000  Uiso   1.00
O733   O     0.83333   0.83333   0.25000   0.00000  Uiso   1.00
O734   O     0.82360   0.79060   0.16625   0.00000  Uiso   1.00
O735   O     0.79354   0.87313   0.33749   0.00000  Uiso   1.00
O736   O     0.87755   0.84159   0.15877   0.00000  Uiso   1.00
O737   O     0.83865   0.82802   0.33749   0.00000  Uiso   1.00
O738   O     0.75094   0.78890   0.07547   0.00000  Uiso   1.00
O739   O     0.77061   0.75564   0.12345   0.00000  Uiso   1.00
O740   O     0.75994   0.83440   0.13925   0.00000  Uiso   1.00
O741   O     0.93630   0.77240   0.45698   0.00000  Uiso   1.00
O742   O     0.87215   0.84257   0.39626   0.00000  Uiso   1.00
O743   O     0.85904   0.77181   0.42714   0.00000  Uiso   1.00
O744   O     0.84515   0.74768   0.27820   0.00000  Uiso   1.00
O745   O     0.81247   0.92803   0.26767   0.00000  Uiso   1.00
O746   O     0.74119   0.79917   0.23607   0.00000  Uiso   1.00
O747   O     0.93452   0.85845   0.21806   0.00000  Uiso   1.00
O748   O     0.73656   0.85627   0.27820   0.00000  Uiso   1.00
O749   O     0.92106   0.81944   0.26767   0.00000  Uiso   1.00
O750   O     0.80467   0.73570   0.23607   0.00000  Uiso   1.00
O751   O     0.87104   0.92193   0.21806   0.00000  Uiso   1.00
S752   S     0.77727   0.79543   0.10449   0.00000  Uiso   1.00
Zn753  Zn    0.85910   0.80756   0.28277   0.00000  Uiso   1.00
Zn754  Zn    0.80125   0.79044   0.22257   0.00000  Uiso   1.00
Zn755  Zn    0.87833   0.86331   0.21188   0.00000  Uiso   1.00
Zn756  Zn    0.79465   0.87202   0.28277   0.00000  Uiso   1.00
C757   C     0.05248   0.15993   0.75874   0.00000  Uiso   1.00
C758   C     0.20226   0.13166   0.95850   0.00000  Uiso   1.00
C759   C     0.23246   0.12360   0.97763   0.00000  Uiso   1.00
C760   C     0.28106   0.17367   0.74125   0.00000  Uiso   1.00
C761   C     0.22226   0.13068   0.51892   0.00000  Uiso   1.00
C762   C     0.18249   0.14570   0.54047   0.00000  Uiso   1.00
C763   C     0.25018   0.12148   0.53927   0.00000  Uiso   1.00
C764   C     0.23914   0.12808   0.58003   0.00000  Uiso   1.00
C765   C     0.16705   0.14105   0.58123   0.00000  Uiso   1.00
C766   C     0.32707   0.17659   0.73785   0.00000  Uiso   1.00
C767   C     0.00706   0.15756   0.76215   0.00000  Uiso   1.00
C768   C     0.09907   0.21366   0.92140   0.00000  Uiso   1.00
C769   C     0.18092   0.32219   0.73808   0.00000  Uiso   1.00
C770   C     0.15153   0.01207   0.76208   0.00000  Uiso   1.00
C771   C     0.15592   0.05612   0.75888   0.00000  Uiso   1.00
C772   C     0.17687   0.27769   0.74134   0.00000  Uiso   1.00
C773   C     0.18777   0.14568   0.64394   0.00000  Uiso   1.00
C774   C     0.14585   0.18805   0.85605   0.00000  Uiso   1.00
C775   C     0.13620   0.19551   0.89905   0.00000  Uiso   1.00
C776   C     0.19748   0.13722   0.60123   0.00000  Uiso   1.00
C777   C     0.08924   0.21864   0.96220   0.00000  Uiso   1.00
C778   C     0.30415   0.13805   0.94735   0.00000  Uiso   1.00
C779   C     0.16389   0.18304   0.91799   0.00000  Uiso   1.00
C780   C     0.01035   0.11922   0.92003   0.00000  Uiso   1.00
C781   C     0.23358   0.21320   0.89859   0.00000  Uiso   1.00
C782   C     0.27605   0.20927   0.86667   0.00000  Uiso   1.00
C783   C     0.22827   0.09302   0.89627   0.00000  Uiso   1.00
C784   C     0.23335   0.04720   0.89663   0.00000  Uiso   1.00
C785   C     0.15001   0.18077   0.95903   0.00000  Uiso   1.00
C786   C     0.11447   0.20251   0.98116   0.00000  Uiso   1.00
C787   C     0.17175   0.15989   0.97885   0.00000  Uiso   1.00
C788   C     0.16087   0.16588   0.52048   0.00000  Uiso   1.00
C789   C     0.13039   0.19360   0.54094   0.00000  Uiso   1.00
C790   C     0.10575   0.20957   0.52187   0.00000  Uiso   1.00
H791   H     0.08059   0.22854   0.53895   0.00000  Uiso   1.00
H792   H     0.12478   0.20259   0.57209   0.00000  Uiso   1.00
H793   H     0.06303   0.15750   0.65278   0.00000  Uiso   1.00
H794   H     0.31281   0.15403   0.97408   0.00000  Uiso   1.00
H795   H     0.29593   0.16200   0.93217   0.00000  Uiso   1.00
H796   H     0.00267   0.10283   0.89307   0.00000  Uiso   1.00
H797   H     0.03742   0.14428   0.91149   0.00000  Uiso   1.00
H798   H     0.02060   0.09659   0.93507   0.00000  Uiso   1.00
H799   H     0.24039   0.21850   0.92772   0.00000  Uiso   1.00
H800   H     0.21987   0.24096   0.89400   0.00000  Uiso   1.00
H801   H     0.27009   0.20504   0.83729   0.00000  Uiso   1.00
H802   H     0.28108   0.11036   0.52397   0.00000  Uiso   1.00
H803   H     0.29882   0.23804   0.86876   0.00000  Uiso   1.00
H804   H     0.29109   0.18202   0.86996   0.00000  Uiso   1.00
H805   H     0.22129   0.09569   0.86818   0.00000  Uiso   1.00
H806   H     0.25876   0.11375   0.89510   0.00000  Uiso   1.00
H807   H     0.23631   0.04124   0.92542   0.00000  Uiso   1.00
H808   H     0.20462   0.02701   0.89095   0.00000  Uiso   1.00
H809   H     0.26270   0.03862   0.87331   0.00000  Uiso   1.00
H810   H     0.01683   0.19427   0.71553   0.00000  Uiso   1.00
H811   H     0.31795   0.13987   0.78480   0.00000  Uiso   1.00
H812   H     0.20807   0.00284   0.71600   0.00000  Uiso   1.00
H813   H     0.12401   0.33218   0.78424   0.00000  Uiso   1.00
H814   H     0.26238   0.12393   0.59518   0.00000  Uiso   1.00
H815   H     0.06144   0.23441   0.97897   0.00000  Uiso   1.00
H816   H     0.07789   0.22439   0.90735   0.00000  Uiso   1.00
O817   O     0.16667   0.16667   0.75000   0.00000  Uiso   1.00
O818   O     0.15693   0.12393   0.66625   0.00000  Uiso   1.00
O819   O     0.12687   0.20646   0.83749   0.00000  Uiso   1.00
O820   O     0.21088   0.17493   0.65877   0.00000  Uiso   1.00
O821   O     0.17198   0.16135   0.83749   0.00000  Uiso   1.00
O822   O     0.08427   0.12223   0.57547   0.00000  Uiso   1.00
O823   O     0.10394   0.08898   0.62345   0.00000  Uiso   1.00
O824   O     0.09327   0.16773   0.63925   0.00000  Uiso   1.00
O825   O     0.26964   0.10573   0.95698   0.00000  Uiso   1.00
O826   O     0.20548   0.17590   0.89626   0.00000  Uiso   1.00
O827   O     0.19237   0.10514   0.92714   0.00000  Uiso   1.00
O828   O     0.17849   0.08101   0.77820   0.00000  Uiso   1.00
O829   O     0.14581   0.26136   0.76767   0.00000  Uiso   1.00
O830   O     0.07452   0.13251   0.73607   0.00000  Uiso   1.00
O831   O     0.26785   0.19179   0.71806   0.00000  Uiso   1.00
O832   O     0.06990   0.18960   0.77820   0.00000  Uiso   1.00
O833   O     0.25440   0.15277   0.76767   0.00000  Uiso   1.00
O834   O     0.13800   0.06903   0.73607   0.00000  Uiso   1.00
O835   O     0.20437   0.25527   0.71806   0.00000  Uiso   1.00
S836   S     0.11060   0.12876   0.60449   0.00000  Uiso   1.00
Zn837  Zn    0.19244   0.14090   0.78277   0.00000  Uiso   1.00
Zn838  Zn    0.13459   0.12378   0.72257   0.00000  Uiso   1.00
Zn839  Zn    0.21166   0.19664   0.71188   0.00000  Uiso   1.00
Zn840  Zn    0.12798   0.20535   0.78277   0.00000  Uiso   1.00
C841   C     0.38581   0.15993   0.75874   0.00000  Uiso   1.00
C842   C     0.53559   0.13166   0.95850   0.00000  Uiso   1.00
C843   C     0.56579   0.12360   0.97763   0.00000  Uiso   1.00
C844   C     0.61440   0.17367   0.74125   0.00000  Uiso   1.00
C845   C     0.55559   0.13068   0.51892   0.00000  Uiso   1.00
C846   C     0.51582   0.14570   0.54047   0.00000  Uiso   1.00
C847   C     0.58351   0.12148   0.53927   0.00000  Uiso   1.00
C848   C     0.57247   0.12808   0.58003   0.00000  Uiso   1.00
C849   C     0.50039   0.14105   0.58123   0.00000  Uiso   1.00
C850   C     0.66040   0.17659   0.73785   0.00000  Uiso   1.00
C851   C     0.34040   0.15756   0.76215   0.00000  Uiso   1.00
C852   C     0.43240   0.21366   0.92140   0.00000  Uiso   1.00
C853   C     0.51426   0.32219   0.73808   0.00000  Uiso   1.00
C854   C     0.48486   0.01207   0.76208   0.00000  Uiso   1.00
C855   C     0.48925   0.05612   0.75888   0.00000  Uiso   1.00
C856   C     0.51021   0.27769   0.74134   0.00000  Uiso   1.00
C857   C     0.52110   0.14568   0.64394   0.00000  Uiso   1.00
C858   C     0.47918   0.18805   0.85605   0.00000  Uiso   1.00
C859   C     0.46953   0.19551   0.89905   0.00000  Uiso   1.00
C860   C     0.53082   0.13722   0.60123   0.00000  Uiso   1.00
C861   C     0.42258   0.21864   0.96220   0.00000  Uiso   1.00
C862   C     0.63749   0.13805   0.94735   0.00000  Uiso   1.00
C863   C     0.49722   0.18304   0.91799   0.00000  Uiso   1.00
C864   C     0.34368   0.11922   0.92003   0.00000  Uiso   1.00
C865   C     0.56692   0.21320   0.89859   0.00000  Uiso   1.00
C866   C     0.60939   0.20927   0.86667   0.00000  Uiso   1.00
C867   C     0.56160   0.09302   0.89627   0.00000  Uiso   1.00
C868   C     0.56668   0.04720   0.89663   0.00000  Uiso   1.00
C869   C     0.48334   0.18077   0.95903   0.00000  Uiso   1.00
C870   C     0.44780   0.20251   0.98116   0.00000  Uiso   1.00
C871   C     0.50509   0.15989   0.97885   0.00000  Uiso   1.00
C872   C     0.49420   0.16588   0.52048   0.00000  Uiso   1.00
C873   C     0.46372   0.19360   0.54094   0.00000  Uiso   1.00
C874   C     0.43908   0.20957   0.52187   0.00000  Uiso   1.00
H875   H     0.41393   0.22854   0.53895   0.00000  Uiso   1.00
H876   H     0.45811   0.20259   0.57209   0.00000  Uiso   1.00
H877   H     0.39636   0.15750   0.65278   0.00000  Uiso   1.00
H878   H     0.64614   0.15403   0.97408   0.00000  Uiso   1.00
H879   H     0.62926   0.16200   0.93217   0.00000  Uiso   1.00
H880   H     0.33601   0.10283   0.89307   0.00000  Uiso   1.00
H881   H     0.37076   0.14428   0.91149   0.00000  Uiso   1.00
H882   H     0.35393   0.09659   0.93507   0.00000  Uiso   1.00
H883   H     0.57372   0.21850   0.92772   0.00000  Uiso   1.00
H884   H     0.55320   0.24096   0.89400   0.00000  Uiso   1.00
H885   H     0.60342   0.20504   0.83729   0.00000  Uiso   1.00
H886   H     0.61442   0.11036   0.52397   0.00000  Uiso   1.00
H887   H     0.63215   0.23804   0.86876   0.00000  Uiso   1.00
H888   H     0.62443   0.18202   0.86996   0.00000  Uiso   1.00
H889   H     0.55463   0.09569   0.86818   0.00000  Uiso   1.00
H890   H     0.59209   0.11375   0.89510   0.00000  Uiso   1.00
H891   H     0.56964   0.04124   0.92542   0.00000  Uiso   1.00
H892   H     0.53795   0.02701   0.89095   0.00000  Uiso   1.00
H893   H     0.59603   0.03862   0.87331   0.00000  Uiso   1.00
H894   H     0.35017   0.19427   0.71553   0.00000  Uiso   1.00
H895   H     0.65128   0.13987   0.78480   0.00000  Uiso   1.00
H896   H     0.54141   0.00284   0.71600   0.00000  Uiso   1.00
H897   H     0.45734   0.33218   0.78424   0.00000  Uiso   1.00
H898   H     0.59571   0.12393   0.59518   0.00000  Uiso   1.00
H899   H     0.39477   0.23441   0.97897   0.00000  Uiso   1.00
H900   H     0.41123   0.22439   0.90735   0.00000  Uiso   1.00
O901   O     0.50000   0.16667   0.75000   0.00000  Uiso   1.00
O902   O     0.49027   0.12393   0.66625   0.00000  Uiso   1.00
O903   O     0.46020   0.20646   0.83749   0.00000  Uiso   1.00
O904   O     0.54421   0.17493   0.65877   0.00000  Uiso   1.00
O905   O     0.50532   0.16135   0.83749   0.00000  Uiso   1.00
O906   O     0.41760   0.12223   0.57547   0.00000  Uiso   1.00
O907   O     0.43728   0.08898   0.62345   0.00000  Uiso   1.00
O908   O     0.42661   0.16773   0.63925   0.00000  Uiso   1.00
O909   O     0.60297   0.10573   0.95698   0.00000  Uiso   1.00
O910   O     0.53881   0.17590   0.89626   0.00000  Uiso   1.00
O911   O     0.52571   0.10514   0.92714   0.00000  Uiso   1.00
O912   O     0.51182   0.08101   0.77820   0.00000  Uiso   1.00
O913   O     0.47914   0.26136   0.76767   0.00000  Uiso   1.00
O914   O     0.40785   0.13251   0.73607   0.00000  Uiso   1.00
O915   O     0.60119   0.19179   0.71806   0.00000  Uiso   1.00
O916   O     0.40323   0.18960   0.77820   0.00000  Uiso   1.00
O917   O     0.58773   0.15277   0.76767   0.00000  Uiso   1.00
O918   O     0.47133   0.06903   0.73607   0.00000  Uiso   1.00
O919   O     0.53771   0.25527   0.71806   0.00000  Uiso   1.00
S920   S     0.44393   0.12876   0.60449   0.00000  Uiso   1.00
Zn921  Zn    0.52577   0.14090   0.78277   0.00000  Uiso   1.00
Zn922  Zn    0.46792   0.12378   0.72257   0.00000  Uiso   1.00
Zn923  Zn    0.54500   0.19664   0.71188   0.00000  Uiso   1.00
Zn924  Zn    0.46131   0.20535   0.78277   0.00000  Uiso   1.00
C925   C     0.71915   0.15993   0.75874   0.00000  Uiso   1.00
C926   C     0.86893   0.13166   0.95850   0.00000  Uiso   1.00
C927   C     0.89912   0.12360   0.97763   0.00000  Uiso   1.00
C928   C     0.94773   0.17367   0.74125   0.00000  Uiso   1.00
C929   C     0.88893   0.13068   0.51892   0.00000  Uiso   1.00
C930   C     0.84915   0.14570   0.54047   0.00000  Uiso   1.00
C931   C     0.91685   0.12148   0.53927   0.00000  Uiso   1.00
C932   C     0.90581   0.12808   0.58003   0.00000  Uiso   1.00
C933   C     0.83372   0.14105   0.58123   0.00000  Uiso   1.00
C934   C     0.99373   0.17659   0.73785   0.00000  Uiso   1.00
C935   C     0.67373   0.15756   0.76215   0.00000  Uiso   1.00
C936   C     0.76574   0.21366   0.92140   0.00000  Uiso   1.00
C937   C     0.84759   0.32219   0.73808   0.00000  Uiso   1.00
C938   C     0.81819   0.01207   0.76208   0.00000  Uiso   1.00
C939   C     0.82258   0.05612   0.75888   0.00000  Uiso   1.00
C940   C     0.84354   0.27769   0.74134   0.00000  Uiso   1.00
C941   C     0.85443   0.14568   0.64394   0.00000  Uiso   1.00
C942   C     0.81251   0.18805   0.85605   0.00000  Uiso   1.00
C943   C     0.80286   0.19551   0.89905   0.00000  Uiso   1.00
C944   C     0.86415   0.13722   0.60123   0.00000  Uiso   1.00
C945   C     0.75591   0.21864   0.96220   0.00000  Uiso   1.00
C946   C     0.97082   0.13805   0.94735   0.00000  Uiso   1.00
C947   C     0.83056   0.18304   0.91799   0.00000  Uiso   1.00
C948   C     0.67702   0.11922   0.92003   0.00000  Uiso   1.00
C949   C     0.90025   0.21320   0.89859   0.00000  Uiso   1.00
C950   C     0.94272   0.20927   0.86667   0.00000  Uiso   1.00
C951   C     0.89494   0.09302   0.89627   0.00000  Uiso   1.00
C952   C     0.90002   0.04720   0.89663   0.00000  Uiso   1.00
C953   C     0.81668   0.18077   0.95903   0.00000  Uiso   1.00
C954   C     0.78113   0.20251   0.98116   0.00000  Uiso   1.00
C955   C     0.83842   0.15989   0.97885   0.00000  Uiso   1.00
C956   C     0.82754   0.16588   0.52048   0.00000  Uiso   1.00
C957   C     0.79706   0.19360   0.54094   0.00000  Uiso   1.00
C958   C     0.77242   0.20957   0.52187   0.00000  Uiso   1.00
H959   H     0.74726   0.22854   0.53895   0.00000  Uiso   1.00
H960   H     0.79144   0.20259   0.57209   0.00000  Uiso   1.00
H961   H     0.72969   0.15750   0.65278   0.00000  Uiso   1.00
H962   H     0.97948   0.15403   0.97408   0.00000  Uiso   1.00
H963   H     0.96259   0.16200   0.93217   0.00000  Uiso   1.00
H964   H     0.66934   0.10283   0.89307   0.00000  Uiso   1.00
H965   H     0.70409   0.14428   0.91149   0.00000  Uiso   1.00
H966   H     0.68726   0.09659   0.93507   0.00000  Uiso   1.00
H967   H     0.90705   0.21850   0.92772   0.00000  Uiso   1.00
H968   H     0.88654   0.24096   0.89400   0.00000  Uiso   1.00
H969   H     0.93675   0.20504   0.83729   0.00000  Uiso   1.00
H970   H     0.94775   0.11036   0.52397   0.00000  Uiso   1.00
H971   H     0.96548   0.23804   0.86876   0.00000  Uiso   1.00
H972   H     0.95776   0.18202   0.86996   0.00000  Uiso   1.00
H973   H     0.88796   0.09569   0.86818   0.00000  Uiso   1.00
H974   H     0.92542   0.11375   0.89510   0.00000  Uiso   1.00
H975   H     0.90298   0.04124   0.92542   0.00000  Uiso   1.00
H976   H     0.87128   0.02701   0.89095   0.00000  Uiso   1.00
H977   H     0.92936   0.03862   0.87331   0.00000  Uiso   1.00
H978   H     0.68350   0.19427   0.71553   0.00000  Uiso   1.00
H979   H     0.98461   0.13987   0.78480   0.00000  Uiso   1.00
H980   H     0.87474   0.00284   0.71600   0.00000  Uiso   1.00
H981   H     0.79067   0.33218   0.78424   0.00000  Uiso   1.00
H982   H     0.92904   0.12393   0.59518   0.00000  Uiso   1.00
H983   H     0.72811   0.23441   0.97897   0.00000  Uiso   1.00
H984   H     0.74456   0.22439   0.90735   0.00000  Uiso   1.00
O985   O     0.83333   0.16667   0.75000   0.00000  Uiso   1.00
O986   O     0.82360   0.12393   0.66625   0.00000  Uiso   1.00
O987   O     0.79354   0.20646   0.83749   0.00000  Uiso   1.00
O988   O     0.87755   0.17493   0.65877   0.00000  Uiso   1.00
O989   O     0.83865   0.16135   0.83749   0.00000  Uiso   1.00
O990   O     0.75094   0.12223   0.57547   0.00000  Uiso   1.00
O991   O     0.77061   0.08898   0.62345   0.00000  Uiso   1.00
O992   O     0.75994   0.16773   0.63925   0.00000  Uiso   1.00
O993   O     0.93630   0.10573   0.95698   0.00000  Uiso   1.00
O994   O     0.87215   0.17590   0.89626   0.00000  Uiso   1.00
O995   O     0.85904   0.10514   0.92714   0.00000  Uiso   1.00
O996   O     0.84515   0.08101   0.77820   0.00000  Uiso   1.00
O997   O     0.81247   0.26136   0.76767   0.00000  Uiso   1.00
O998   O     0.74119   0.13251   0.73607   0.00000  Uiso   1.00
O999   O     0.93452   0.19179   0.71806   0.00000  Uiso   1.00
O1000  O     0.73656   0.18960   0.77820   0.00000  Uiso   1.00
O1001  O     0.92106   0.15277   0.76767   0.00000  Uiso   1.00
O1002  O     0.80467   0.06903   0.73607   0.00000  Uiso   1.00
O1003  O     0.87104   0.25527   0.71806   0.00000  Uiso   1.00
S1004  S     0.77727   0.12876   0.60449   0.00000  Uiso   1.00
Zn1005 Zn    0.85910   0.14090   0.78277   0.00000  Uiso   1.00
Zn1006 Zn    0.80125   0.12378   0.72257   0.00000  Uiso   1.00
Zn1007 Zn    0.87833   0.19664   0.71188   0.00000  Uiso   1.00
Zn1008 Zn    0.79465   0.20535   0.78277   0.00000  Uiso   1.00
C1009  C     0.05248   0.49326   0.75874   0.00000  Uiso   1.00
C1010  C     0.20226   0.46500   0.95850   0.00000  Uiso   1.00
C1011  C     0.23246   0.45694   0.97763   0.00000  Uiso   1.00
C1012  C     0.28106   0.50700   0.74125   0.00000  Uiso   1.00
C1013  C     0.22226   0.46401   0.51892   0.00000  Uiso   1.00
C1014  C     0.18249   0.47903   0.54047   0.00000  Uiso   1.00
C1015  C     0.25018   0.45481   0.53927   0.00000  Uiso   1.00
C1016  C     0.23914   0.46141   0.58003   0.00000  Uiso   1.00
C1017  C     0.16705   0.47438   0.58123   0.00000  Uiso   1.00
C1018  C     0.32707   0.50993   0.73785   0.00000  Uiso   1.00
C1019  C     0.00706   0.49090   0.76215   0.00000  Uiso   1.00
C1020  C     0.09907   0.54700   0.92140   0.00000  Uiso   1.00
C1021  C     0.18092   0.65552   0.73808   0.00000  Uiso   1.00
C1022  C     0.15153   0.34540   0.76208   0.00000  Uiso   1.00
C1023  C     0.15592   0.38945   0.75888   0.00000  Uiso   1.00
C1024  C     0.17687   0.61102   0.74134   0.00000  Uiso   1.00
C1025  C     0.18777   0.47901   0.64394   0.00000  Uiso   1.00
C1026  C     0.14585   0.52138   0.85605   0.00000  Uiso   1.00
C1027  C     0.13620   0.52884   0.89905   0.00000  Uiso   1.00
C1028  C     0.19748   0.47055   0.60123   0.00000  Uiso   1.00
C1029  C     0.08924   0.55197   0.96220   0.00000  Uiso   1.00
C1030  C     0.30415   0.47138   0.94735   0.00000  Uiso   1.00
C1031  C     0.16389   0.51638   0.91799   0.00000  Uiso   1.00
C1032  C     0.01035   0.45255   0.92003   0.00000  Uiso   1.00
C1033  C     0.23358   0.54653   0.89859   0.00000  Uiso   1.00
C1034  C     0.27605   0.54260   0.86667   0.00000  Uiso   1.00
C1035  C     0.22827   0.42635   0.89627   0.00000  Uiso   1.00
C1036  C     0.23335   0.38053   0.89663   0.00000  Uiso   1.00
C1037  C     0.15001   0.51410   0.95903   0.00000  Uiso   1.00
C1038  C     0.11447   0.53584   0.98116   0.00000  Uiso   1.00
C1039  C     0.17175   0.49322   0.97885   0.00000  Uiso   1.00
C1040  C     0.16087   0.49921   0.52048   0.00000  Uiso   1.00
C1041  C     0.13039   0.52693   0.54094   0.00000  Uiso   1.00
C1042  C     0.10575   0.54290   0.52187   0.00000  Uiso   1.00
H1043  H     0.08059   0.56187   0.53895   0.00000  Uiso   1.00
H1044  H     0.12478   0.53593   0.57209   0.00000  Uiso   1.00
H1045  H     0.06303   0.49083   0.65278   0.00000  Uiso   1.00
H1046  H     0.31281   0.48736   0.97408   0.00000  Uiso   1.00
H1047  H     0.29593   0.49533   0.93217   0.00000  Uiso   1.00
H1048  H     0.00267   0.43616   0.89307   0.00000  Uiso   1.00
H1049  H     0.03742   0.47762   0.91149   0.00000  Uiso   1.00
H1050  H     0.02060   0.42992   0.93507   0.00000  Uiso   1.00
H1051  H     0.24039   0.55183   0.92772   0.00000  Uiso   1.00
H1052  H     0.21987   0.57429   0.89400   0.00000  Uiso   1.00
H1053  H     0.27009   0.53837   0.83729   0.00000  Uiso   1.00
H1054  H     0.28108   0.44369   0.52397   0.00000  Uiso   1.00
H1055  H     0.29882   0.57137   0.86876   0.00000  Uiso   1.00
H1056  H     0.29109   0.51536   0.86996   0.00000  Uiso   1.00
H1057  H     0.22129   0.42902   0.86818   0.00000  Uiso   1.00
H1058  H     0.25876   0.44708   0.89510   0.00000  Uiso   1.00
H1059  H     0.23631   0.37458   0.92542   0.00000  Uiso   1.00
H1060  H     0.20462   0.36035   0.89095   0.00000  Uiso   1.00
H1061  H     0.26270   0.37195   0.87331   0.00000  Uiso   1.00
H1062  H     0.01683   0.52760   0.71553   0.00000  Uiso   1.00
H1063  H     0.31795   0.47320   0.78480   0.00000  Uiso   1.00
H1064  H     0.20807   0.33617   0.71600   0.00000  Uiso   1.00
H1065  H     0.12401   0.66551   0.78424   0.00000  Uiso   1.00
H1066  H     0.26238   0.45726   0.59518   0.00000  Uiso   1.00
H1067  H     0.06144   0.56774   0.97897   0.00000  Uiso   1.00
H1068  H     0.07789   0.55772   0.90735   0.00000  Uiso   1.00
O1069  O     0.16667   0.50000   0.75000   0.00000  Uiso   1.00
O1070  O     0.15693   0.45726   0.66625   0.00000  Uiso   1.00
O1071  O     0.12687   0.53979   0.83749   0.00000  Uiso   1.00
O1072  O     0.21088   0.50826   0.65877   0.00000  Uiso   1.00
O1073  O     0.17198   0.49468   0.83749   0.00000  Uiso   1.00
O1074  O     0.08427   0.45557   0.57547   0.00000  Uiso   1.00
O1075  O     0.10394   0.42231   0.62345   0.00000  Uiso   1.00
O1076  O     0.09327   0.50106   0.63925   0.00000  Uiso   1.00
O1077  O     0.26964   0.43907   0.95698   0.00000  Uiso   1.00
O1078  O     0.20548   0.50923   0.89626   0.00000  Uiso   1.00
O1079  O     0.19237   0.43848   0.92714   0.00000  Uiso   1.00
O1080  O     0.17849   0.41434   0.77820   0.00000  Uiso   1.00
O1081  O     0.14581   0.59469   0.76767   0.00000  Uiso   1.00
O1082  O     0.07452   0.46584   0.73607   0.00000  Uiso   1.00
O1083  O     0.26785   0.52512   0.71806   0.00000  Uiso   1.00
O1084  O     0.06990   0.52293   0.77820   0.00000  Uiso   1.00
O1085  O     0.25440   0.48610   0.76767   0.00000  Uiso   1.00
O1086  O     0.13800   0.40236   0.73607   0.00000  Uiso   1.00
O1087  O     0.20437   0.58860   0.71806   0.00000  Uiso   1.00
S1088  S     0.11060   0.46209   0.60449   0.00000  Uiso   1.00
Zn1089 Zn    0.19244   0.47423   0.78277   0.00000  Uiso   1.00
Zn1090 Zn    0.13459   0.45711   0.72257   0.00000  Uiso   1.00
Zn1091 Zn    0.21166   0.52997   0.71188   0.00000  Uiso   1.00
Zn1092 Zn    0.12798   0.53868   0.78277   0.00000  Uiso   1.00
C1093  C     0.38581   0.49326   0.75874   0.00000  Uiso   1.00
C1094  C     0.53559   0.46500   0.95850   0.00000  Uiso   1.00
C1095  C     0.56579   0.45694   0.97763   0.00000  Uiso   1.00
C1096  C     0.61440   0.50700   0.74125   0.00000  Uiso   1.00
C1097  C     0.55559   0.46401   0.51892   0.00000  Uiso   1.00
C1098  C     0.51582   0.47903   0.54047   0.00000  Uiso   1.00
C1099  C     0.58351   0.45481   0.53927   0.00000  Uiso   1.00
C1100  C     0.57247   0.46141   0.58003   0.00000  Uiso   1.00
C1101  C     0.50039   0.47438   0.58123   0.00000  Uiso   1.00
C1102  C     0.66040   0.50993   0.73785   0.00000  Uiso   1.00
C1103  C     0.34040   0.49090   0.76215   0.00000  Uiso   1.00
C1104  C     0.43240   0.54700   0.92140   0.00000  Uiso   1.00
C1105  C     0.51426   0.65552   0.73808   0.00000  Uiso   1.00
C1106  C     0.48486   0.34540   0.76208   0.00000  Uiso   1.00
C1107  C     0.48925   0.38945   0.75888   0.00000  Uiso   1.00
C1108  C     0.51021   0.61102   0.74134   0.00000  Uiso   1.00
C1109  C     0.52110   0.47901   0.64394   0.00000  Uiso   1.00
C1110  C     0.47918   0.52138   0.85605   0.00000  Uiso   1.00
C1111  C     0.46953   0.52884   0.89905   0.00000  Uiso   1.00
C1112  C     0.53082   0.47055   0.60123   0.00000  Uiso   1.00
C1113  C     0.42258   0.55197   0.96220   0.00000  Uiso   1.00
C1114  C     0.63749   0.47138   0.94735   0.00000  Uiso   1.00
C1115  C     0.49722   0.51638   0.91799   0.00000  Uiso   1.00
C1116  C     0.34368   0.45255   0.92003   0.00000  Uiso   1.00
C1117  C     0.56692   0.54653   0.89859   0.00000  Uiso   1.00
C1118  C     0.60939   0.54260   0.86667   0.00000  Uiso   1.00
C1119  C     0.56160   0.42635   0.89627   0.00000  Uiso   1.00
C1120  C     0.56668   0.38053   0.89663   0.00000  Uiso   1.00
C1121  C     0.48334   0.51410   0.95903   0.00000  Uiso   1.00
C1122  C     0.44780   0.53584   0.98116   0.00000  Uiso   1.00
C1123  C     0.50509   0.49322   0.97885   0.00000  Uiso   1.00
C1124  C     0.49420   0.49921   0.52048   0.00000  Uiso   1.00
C1125  C     0.46372   0.52693   0.54094   0.00000  Uiso   1.00
C1126  C     0.43908   0.54290   0.52187   0.00000  Uiso   1.00
H1127  H     0.41393   0.56187   0.53895   0.00000  Uiso   1.00
H1128  H     0.45811   0.53593   0.57209   0.00000  Uiso   1.00
H1129  H     0.39636   0.49083   0.65278   0.00000  Uiso   1.00
H1130  H     0.64614   0.48736   0.97408   0.00000  Uiso   1.00
H1131  H     0.62926   0.49533   0.93217   0.00000  Uiso   1.00
H1132  H     0.33601   0.43616   0.89307   0.00000  Uiso   1.00
H1133  H     0.37076   0.47762   0.91149   0.00000  Uiso   1.00
H1134  H     0.35393   0.42992   0.93507   0.00000  Uiso   1.00
H1135  H     0.57372   0.55183   0.92772   0.00000  Uiso   1.00
H1136  H     0.55320   0.57429   0.89400   0.00000  Uiso   1.00
H1137  H     0.60342   0.53837   0.83729   0.00000  Uiso   1.00
H1138  H     0.61442   0.44369   0.52397   0.00000  Uiso   1.00
H1139  H     0.63215   0.57137   0.86876   0.00000  Uiso   1.00
H1140  H     0.62443   0.51536   0.86996   0.00000  Uiso   1.00
H1141  H     0.55463   0.42902   0.86818   0.00000  Uiso   1.00
H1142  H     0.59209   0.44708   0.89510   0.00000  Uiso   1.00
H1143  H     0.56964   0.37458   0.92542   0.00000  Uiso   1.00
H1144  H     0.53795   0.36035   0.89095   0.00000  Uiso   1.00
H1145  H     0.59603   0.37195   0.87331   0.00000  Uiso   1.00
H1146  H     0.35017   0.52760   0.71553   0.00000  Uiso   1.00
H1147  H     0.65128   0.47320   0.78480   0.00000  Uiso   1.00
H1148  H     0.54141   0.33617   0.71600   0.00000  Uiso   1.00
H1149  H     0.45734   0.66551   0.78424   0.00000  Uiso   1.00
H1150  H     0.59571   0.45726   0.59518   0.00000  Uiso   1.00
H1151  H     0.39477   0.56774   0.97897   0.00000  Uiso   1.00
H1152  H     0.41123   0.55772   0.90735   0.00000  Uiso   1.00
O1153  O     0.50000   0.50000   0.75000   0.00000  Uiso   1.00
O1154  O     0.49027   0.45726   0.66625   0.00000  Uiso   1.00
O1155  O     0.46020   0.53979   0.83749   0.00000  Uiso   1.00
O1156  O     0.54421   0.50826   0.65877   0.00000  Uiso   1.00
O1157  O     0.50532   0.49468   0.83749   0.00000  Uiso   1.00
O1158  O     0.41760   0.45557   0.57547   0.00000  Uiso   1.00
O1159  O     0.43728   0.42231   0.62345   0.00000  Uiso   1.00
O1160  O     0.42661   0.50106   0.63925   0.00000  Uiso   1.00
O1161  O     0.60297   0.43907   0.95698   0.00000  Uiso   1.00
O1162  O     0.53881   0.50923   0.89626   0.00000  Uiso   1.00
O1163  O     0.52571   0.43848   0.92714   0.00000  Uiso   1.00
O1164  O     0.51182   0.41434   0.77820   0.00000  Uiso   1.00
O1165  O     0.47914   0.59469   0.76767   0.00000  Uiso   1.00
O1166  O     0.40785   0.46584   0.73607   0.00000  Uiso   1.00
O1167  O     0.60119   0.52512   0.71806   0.00000  Uiso   1.00
O1168  O     0.40323   0.52293   0.77820   0.00000  Uiso   1.00
O1169  O     0.58773   0.48610   0.76767   0.00000  Uiso   1.00
O1170  O     0.47133   0.40236   0.73607   0.00000  Uiso   1.00
O1171  O     0.53771   0.58860   0.71806   0.00000  Uiso   1.00
S1172  S     0.44393   0.46209   0.60449   0.00000  Uiso   1.00
Zn1173 Zn    0.52577   0.47423   0.78277   0.00000  Uiso   1.00
Zn1174 Zn    0.46792   0.45711   0.72257   0.00000  Uiso   1.00
Zn1175 Zn    0.54500   0.52997   0.71188   0.00000  Uiso   1.00
Zn1176 Zn    0.46131   0.53868   0.78277   0.00000  Uiso   1.00
C1177  C     0.71915   0.49326   0.75874   0.00000  Uiso   1.00
C1178  C     0.86893   0.46500   0.95850   0.00000  Uiso   1.00
C1179  C     0.89912   0.45694   0.97763   0.00000  Uiso   1.00
C1180  C     0.94773   0.50700   0.74125   0.00000  Uiso   1.00
C1181  C     0.88893   0.46401   0.51892   0.00000  Uiso   1.00
C1182  C     0.84915   0.47903   0.54047   0.00000  Uiso   1.00
C1183  C     0.91685   0.45481   0.53927   0.00000  Uiso   1.00
C1184  C     0.90581   0.46141   0.58003   0.00000  Uiso   1.00
C1185  C     0.83372   0.47438   0.58123   0.00000  Uiso   1.00
C1186  C     0.99373   0.50993   0.73785   0.00000  Uiso   1.00
C1187  C     0.67373   0.49090   0.76215   0.00000  Uiso   1.00
C1188  C     0.76574   0.54700   0.92140   0.00000  Uiso   1.00
C1189  C     0.84759   0.65552   0.73808   0.00000  Uiso   1.00
C1190  C     0.81819   0.34540   0.76208   0.00000  Uiso   1.00
C1191  C     0.82258   0.38945   0.75888   0.00000  Uiso   1.00
C1192  C     0.84354   0.61102   0.74134   0.00000  Uiso   1.00
C1193  C     0.85443   0.47901   0.64394   0.00000  Uiso   1.00
C1194  C     0.81251   0.52138   0.85605   0.00000  Uiso   1.00
C1195  C     0.80286   0.52884   0.89905   0.00000  Uiso   1.00
C1196  C     0.86415   0.47055   0.60123   0.00000  Uiso   1.00
C1197  C     0.75591   0.55197   0.96220   0.00000  Uiso   1.00
C1198  C     0.97082   0.47138   0.94735   0.00000  Uiso   1.00
C1199  C     0.83056   0.51638   0.91799   0.00000  Uiso   1.00
C1200  C     0.67702   0.45255   0.92003   0.00000  Uiso   1.00
C1201  C     0.90025   0.54653   0.89859   0.00000  Uiso   1.00
C1202  C     0.94272   0.54260   0.86667   0.00000  Uiso   1.00
C1203  C     0.89494   0.42635   0.89627   0.00000  Uiso   1.00
C1204  C     0.90002   0.38053   0.89663   0.00000  Uiso   1.00
C1205  C     0.81668   0.51410   0.95903   0.00000  Uiso   1.00
C1206  C     0.78113   0.53584   0.98116   0.00000  Uiso   1.00
C1207  C     0.83842   0.49322   0.97885   0.00000  Uiso   1.00
C1208  C     0.82754   0.49921   0.52048   0.00000  Uiso   1.00
C1209  C     0.79706   0.52693   0.54094   0.00000  Uiso   1.00
C1210  C     0.77242   0.54290   0.52187   0.00000  Uiso   1.00
H1211  H     0.74726   0.56187   0.53895   0.00000  Uiso   1.00
H1212  H     0.79144   0.53593   0.57209   0.00000  Uiso   1.00
H1213  H     0.72969   0.49083   0.65278   0.00000  Uiso   1.00
H1214  H     0.97948   0.48736   0.97408   0.00000  Uiso   1.00
H1215  H     0.96259   0.49533   0.93217   0.00000  Uiso   1.00
H1216  H     0.66934   0.43616   0.89307   0.00000  Uiso   1.00
H1217  H     0.70409   0.47762   0.91149   0.00000  Uiso   1.00
H1218  H     0.68726   0.42992   0.93507   0.00000  Uiso   1.00
H1219  H     0.90705   0.55183   0.92772   0.00000  Uiso   1.00
H1220  H     0.88654   0.57429   0.89400   0.00000  Uiso   1.00
H1221  H     0.93675   0.53837   0.83729   0.00000  Uiso   1.00
H1222  H     0.94775   0.44369   0.52397   0.00000  Uiso   1.00
H1223  H     0.96548   0.57137   0.86876   0.00000  Uiso   1.00
H1224  H     0.95776   0.51536   0.86996   0.00000  Uiso   1.00
H1225  H     0.88796   0.42902   0.86818   0.00000  Uiso   1.00
H1226  H     0.92542   0.44708   0.89510   0.00000  Uiso   1.00
H1227  H     0.90298   0.37458   0.92542   0.00000  Uiso   1.00
H1228  H     0.87128   0.36035   0.89095   0.00000  Uiso   1.00
H1229  H     0.92936   0.37195   0.87331   0.00000  Uiso   1.00
H1230  H     0.68350   0.52760   0.71553   0.00000  Uiso   1.00
H1231  H     0.98461   0.47320   0.78480   0.00000  Uiso   1.00
H1232  H     0.87474   0.33617   0.71600   0.00000  Uiso   1.00
H1233  H     0.79067   0.66551   0.78424   0.00000  Uiso   1.00
H1234  H     0.92904   0.45726   0.59518   0.00000  Uiso   1.00
H1235  H     0.72811   0.56774   0.97897   0.00000  Uiso   1.00
H1236  H     0.74456   0.55772   0.90735   0.00000  Uiso   1.00
O1237  O     0.83333   0.50000   0.75000   0.00000  Uiso   1.00
O1238  O     0.82360   0.45726   0.66625   0.00000  Uiso   1.00
O1239  O     0.79354   0.53979   0.83749   0.00000  Uiso   1.00
O1240  O     0.87755   0.50826   0.65877   0.00000  Uiso   1.00
O1241  O     0.83865   0.49468   0.83749   0.00000  Uiso   1.00
O1242  O     0.75094   0.45557   0.57547   0.00000  Uiso   1.00
O1243  O     0.77061   0.42231   0.62345   0.00000  Uiso   1.00
O1244  O     0.75994   0.50106   0.63925   0.00000  Uiso   1.00
O1245  O     0.93630   0.43907   0.95698   0.00000  Uiso   1.00
O1246  O     0.87215   0.50923   0.89626   0.00000  Uiso   1.00
O1247  O     0.85904   0.43848   0.92714   0.00000  Uiso   1.00
O1248  O     0.84515   0.41434   0.77820   0.00000  Uiso   1.00
O1249  O     0.81247   0.59469   0.76767   0.00000  Uiso   1.00
O1250  O     0.74119   0.46584   0.73607   0.00000  Uiso   1.00
O1251  O     0.93452   0.52512   0.71806   0.00000  Uiso   1.00
O1252  O     0.73656   0.52293   0.77820   0.00000  Uiso   1.00
O1253  O     0.92106   0.48610   0.76767   0.00000  Uiso   1.00
O1254  O     0.80467   0.40236   0.73607   0.00000  Uiso   1.00
O1255  O     0.87104   0.58860   0.71806   0.00000  Uiso   1.00
S1256  S     0.77727   0.46209   0.60449   0.00000  Uiso   1.00
Zn1257 Zn    0.85910   0.47423   0.78277   0.00000  Uiso   1.00
Zn1258 Zn    0.80125   0.45711   0.72257   0.00000  Uiso   1.00
Zn1259 Zn    0.87833   0.52997   0.71188   0.00000  Uiso   1.00
Zn1260 Zn    0.79465   0.53868   0.78277   0.00000  Uiso   1.00
C1261  C     0.05248   0.82660   0.75874   0.00000  Uiso   1.00
C1262  C     0.20226   0.79833   0.95850   0.00000  Uiso   1.00
C1263  C     0.23246   0.79027   0.97763   0.00000  Uiso   1.00
C1264  C     0.28106   0.84033   0.74125   0.00000  Uiso   1.00
C1265  C     0.22226   0.79735   0.51892   0.00000  Uiso   1.00
C1266  C     0.18249   0.81237   0.54047   0.00000  Uiso   1.00
C1267  C     0.25018   0.78814   0.53927   0.00000  Uiso   1.00
C1268  C     0.23914   0.79474   0.58003   0.00000  Uiso   1.00
C1269  C     0.16705   0.80771   0.58123   0.00000  Uiso   1.00
C1270  C     0.32707   0.84326   0.73785   0.00000  Uiso   1.00
C1271  C     0.00706   0.82423   0.76215   0.00000  Uiso   1.00
C1272  C     0.09907   0.88033   0.92140   0.00000  Uiso   1.00
C1273  C     0.18092   0.98885   0.73808   0.00000  Uiso   1.00
C1274  C     0.15153   0.67873   0.76208   0.00000  Uiso   1.00
C1275  C     0.15592   0.72278   0.75888   0.00000  Uiso   1.00
C1276  C     0.17687   0.94435   0.74134   0.00000  Uiso   1.00
C1277  C     0.18777   0.81234   0.64394   0.00000  Uiso   1.00
C1278  C     0.14585   0.85472   0.85605   0.00000  Uiso   1.00
C1279  C     0.13620   0.86217   0.89905   0.00000  Uiso   1.00
C1280  C     0.19748   0.80388   0.60123   0.00000  Uiso   1.00
C1281  C     0.08924   0.88531   0.96220   0.00000  Uiso   1.00
C1282  C     0.30415   0.80472   0.94735   0.00000  Uiso   1.00
C1283  C     0.16389   0.84971   0.91799   0.00000  Uiso   1.00
C1284  C     0.01035   0.78589   0.92003   0.00000  Uiso   1.00
C1285  C     0.23358   0.87986   0.89859   0.00000  Uiso   1.00
C1286  C     0.27605   0.87593   0.86667   0.00000  Uiso   1.00
C1287  C     0.22827   0.75968   0.89627   0.00000  Uiso   1.00
C1288  C     0.23335   0.71386   0.89663   0.00000  Uiso   1.00
C1289  C     0.15001   0.84743   0.95903   0.00000  Uiso   1.00
C1290  C     0.11447   0.86917   0.98116   0.00000  Uiso   1.00
C1291  C     0.17175   0.82656   0.97885   0.00000  Uiso   1.00
C1292  C     0.16087   0.83254   0.52048   0.00000  Uiso   1.00
C1293  C     0.13039   0.86027   0.54094   0.00000  Uiso   1.00
C1294  C     0.10575   0.87624   0.52187   0.00000  Uiso   1.00
H1295  H     0.08059   0.89521   0.53895   0.00000  Uiso   1.00
H1296  H     0.12478   0.86926   0.57209   0.00000  Uiso   1.00
H1297  H     0.06303   0.82416   0.65278   0.00000  Uiso   1.00
H1298  H     0.31281   0.82069   0.97408   0.00000  Uiso   1.00
H1299  H     0.29593   0.82867   0.93217   0.00000  Uiso   1.00
H1300  H     0.00267   0.76950   0.89307   0.00000  Uiso   1.00
H1301  H     0.03742   0.81095   0.91149   0.00000  Uiso   1.00
H1302  H     0.02060   0.76325   0.93507   0.00000  Uiso   1.00
H1303  H     0.24039   0.88516   0.92772   0.00000  Uiso   1.00
H1304  H     0.21987   0.90762   0.89400   0.00000  Uiso   1.00
H1305  H     0.27009   0.87171   0.83729   0.00000  Uiso   1.00
H1306  H     0.28108   0.77703   0.52397   0.00000  Uiso   1.00
H1307  H     0.29882   0.90471   0.86876   0.00000  Uiso   1.00
H1308  H     0.29109   0.84869   0.86996   0.00000  Uiso   1.00
H1309  H     0.22129   0.76235   0.86818   0.00000  Uiso   1.00
H1310  H     0.25876   0.78042   0.89510   0.00000  Uiso   1.00
H1311  H     0.23631   0.70791   0.92542   0.00000  Uiso   1.00
H1312  H     0.20462   0.69368   0.89095   0.00000  Uiso   1.00
H1313  H     0.26270   0.70528   0.87331   0.00000  Uiso   1.00
H1314  H     0.01683   0.86094   0.71553   0.00000  Uiso   1.00
H1315  H     0.31795   0.80654   0.78480   0.00000  Uiso   1.00
H1316  H     0.20807   0.66951   0.71600   0.00000  Uiso   1.00
H1317  H     0.12401   0.99885   0.78424   0.00000  Uiso   1.00
H1318  H     0.26238   0.79060   0.59518   0.00000  Uiso   1.00
H1319  H     0.06144   0.90108   0.97897   0.00000  Uiso   1.00
H1320  H     0.07789   0.89105   0.90735   0.00000  Uiso   1.00
O1321  O     0.16667   0.83333   0.75000   0.00000  Uiso   1.00
O1322  O     0.15693   0.79060   0.66625   0.00000  Uiso   1.00
O1323  O     0.12687   0.87313   0.83749   0.00000  Uiso   1.00
O1324  O     0.21088   0.84159   0.65877   0.00000  Uiso   1.00
O1325  O     0.17198   0.82802   0.83749   0.00000  Uiso   1.00
O1326  O     0.08427   0.78890   0.57547   0.00000  Uiso   1.00
O1327  O     0.10394   0.75564   0.62345   0.00000  Uiso   1.00
O1328  O     0.09327   0.83440   0.63925   0.00000  Uiso   1.00
O1329  O     0.26964   0.77240   0.95698   0.00000  Uiso   1.00
O1330  O     0.20548   0.84257   0.89626   0.00000  Uiso   1.00
O1331  O     0.19237   0.77181   0.92714   0.00000  Uiso   1.00
O1332  O     0.17849   0.74768   0.77820   0.00000  Uiso   1.00
O1333  O     0.14581   0.92803   0.76767   0.00000  Uiso   1.00
O1334  O     0.07452   0.79917   0.73607   0.00000  Uiso   1.00
O1335  O     0.26785   0.85845   0.71806   0.00000  Uiso   1.00
O1336  O     0.06990   0.85627   0.77820   0.00000  Uiso   1.00
O1337  O     0.25440   0.81944   0.76767   0.00000  Uiso   1.00
O1338  O     0.13800   0.73570   0.73607   0.00000  Uiso   1.00
O1339  O     0.20437   0.92193   0.71806   0.00000  Uiso   1.00
S1340  S     0.11060   0.79543   0.60449   0.00000  Uiso   1.00
Zn1341 Zn    0.19244   0.80756   0.78277   0.00000  Uiso   1.00
Zn1342 Zn    0.13459   0.79044   0.72257   0.00000  Uiso   1.00
Zn1343 Zn    0.21166   0.86331   0.71188   0.00000  Uiso   1.00
Zn1344 Zn    0.12798   0.87202   0.78277   0.00000  Uiso   1.00
C1345  C     0.38581   0.82660   0.75874   0.00000  Uiso   1.00
C1346  C     0.53559   0.79833   0.95850   0.00000  Uiso   1.00
C1347  C     0.56579   0.79027   0.97763   0.00000  Uiso   1.00
C1348  C     0.61440   0.84033   0.74125   0.00000  Uiso   1.00
C1349  C     0.55559   0.79735   0.51892   0.00000  Uiso   1.00
C1350  C     0.51582   0.81237   0.54047   0.00000  Uiso   1.00
C1351  C     0.58351   0.78814   0.53927   0.00000  Uiso   1.00
C1352  C     0.57247   0.79474   0.58003   0.00000  Uiso   1.00
C1353  C     0.50039   0.80771   0.58123   0.00000  Uiso   1.00
C1354  C     0.66040   0.84326   0.73785   0.00000  Uiso   1.00
C1355  C     0.34040   0.82423   0.76215   0.00000  Uiso   1.00
C1356  C     0.43240   0.88033   0.92140   0.00000  Uiso   1.00
C1357  C     0.51426   0.98885   0.73808   0.00000  Uiso   1.00
C1358  C     0.48486   0.67873   0.76208   0.00000  Uiso   1.00
C1359  C     0.48925   0.72278   0.75888   0.00000  Uiso   1.00
C1360  C     0.51021   0.94435   0.74134   0.00000  Uiso   1.00
C1361  C     0.52110   0.81234   0.64394   0.00000  Uiso   1.00
C1362  C     0.47918   0.85472   0.85605   0.00000  Uiso   1.00
C1363  C     0.46953   0.86217   0.89905   0.00000  Uiso   1.00
C1364  C     0.53082   0.80388   0.60123   0.00000  Uiso   1.00
C1365  C     0.42258   0.88531   0.96220   0.00000  Uiso   1.00
C1366  C     0.63749   0.80472   0.94735   0.00000  Uiso   1.00
C1367  C     0.49722   0.84971   0.91799   0.00000  Uiso   1.00
C1368  C     0.34368   0.78589   0.92003   0.00000  Uiso   1.00
C1369  C     0.56692   0.87986   0.89859   0.00000  Uiso   1.00
C1370  C     0.60939   0.87593   0.86667   0.00000  Uiso   1.00
C1371  C     0.56160   0.75968   0.89627   0.00000  Uiso   1.00
C1372  C     0.56668   0.71386   0.89663   0.00000  Uiso   1.00
C1373  C     0.48334   0.84743   0.95903   0.00000  Uiso   1.00
C1374  C     0.44780   0.86917   0.98116   0.00000  Uiso   1.00
C1375  C     0.50509   0.82656   0.97885   0.00000  Uiso   1.00
C1376  C     0.49420   0.83254   0.52048   0.00000  Uiso   1.00
C1377  C     0.46372   0.86027   0.54094   0.00000  Uiso   1.00
C1378  C     0.43908   0.87624   0.52187   0.00000  Uiso   1.00
H1379  H     0.41393   0.89521   0.53895   0.00000  Uiso   1.00
H1380  H     0.45811   0.86926   0.57209   0.00000  Uiso   1.00
H1381  H     0.39636   0.82416   0.65278   0.00000  Uiso   1.00
H1382  H     0.64614   0.82069   0.97408   0.00000  Uiso   1.00
H1383  H     0.62926   0.82867   0.93217   0.00000  Uiso   1.00
H1384  H     0.33601   0.76950   0.89307   0.00000  Uiso   1.00
H1385  H     0.37076   0.81095   0.91149   0.00000  Uiso   1.00
H1386  H     0.35393   0.76325   0.93507   0.00000  Uiso   1.00
H1387  H     0.57372   0.88516   0.92772   0.00000  Uiso   1.00
H1388  H     0.55320   0.90762   0.89400   0.00000  Uiso   1.00
H1389  H     0.60342   0.87171   0.83729   0.00000  Uiso   1.00
H1390  H     0.61442   0.77703   0.52397   0.00000  Uiso   1.00
H1391  H     0.63215   0.90471   0.86876   0.00000  Uiso   1.00
H1392  H     0.62443   0.84869   0.86996   0.00000  Uiso   1.00
H1393  H     0.55463   0.76235   0.86818   0.00000  Uiso   1.00
H1394  H     0.59209   0.78042   0.89510   0.00000  Uiso   1.00
H1395  H     0.56964   0.70791   0.92542   0.00000  Uiso   1.00
H1396  H     0.53795   0.69368   0.89095   0.00000  Uiso   1.00
H1397  H     0.59603   0.70528   0.87331   0.00000  Uiso   1.00
H1398  H     0.35017   0.86094   0.71553   0.00000  Uiso   1.00
H1399  H     0.65128   0.80654   0.78480   0.00000  Uiso   1.00
H1400  H     0.54141   0.66951   0.71600   0.00000  Uiso   1.00
H1401  H     0.45734   0.99885   0.78424   0.00000  Uiso   1.00
H1402  H     0.59571   0.79060   0.59518   0.00000  Uiso   1.00
H1403  H     0.39477   0.90108   0.97897   0.00000  Uiso   1.00
H1404  H     0.41123   0.89105   0.90735   0.00000  Uiso   1.00
O1405  O     0.50000   0.83333   0.75000   0.00000  Uiso   1.00
O1406  O     0.49027   0.79060   0.66625   0.00000  Uiso   1.00
O1407  O     0.46020   0.87313   0.83749   0.00000  Uiso   1.00
O1408  O     0.54421   0.84159   0.65877   0.00000  Uiso   1.00
O1409  O     0.50532   0.82802   0.83749   0.00000  Uiso   1.00
O1410  O     0.41760   0.78890   0.57547   0.00000  Uiso   1.00
O1411  O     0.43728   0.75564   0.62345   0.00000  Uiso   1.00
O1412  O     0.42661   0.83440   0.63925   0.00000  Uiso   1.00
O1413  O     0.60297   0.77240   0.95698   0.00000  Uiso   1.00
O1414  O     0.53881   0.84257   0.89626   0.00000  Uiso   1.00
O1415  O     0.52571   0.77181   0.92714   0.00000  Uiso   1.00
O1416  O     0.51182   0.74768   0.77820   0.00000  Uiso   1.00
O1417  O     0.47914   0.92803   0.76767   0.00000  Uiso   1.00
O1418  O     0.40785   0.79917   0.73607   0.00000  Uiso   1.00
O1419  O     0.60119   0.85845   0.71806   0.00000  Uiso   1.00
O1420  O     0.40323   0.85627   0.77820   0.00000  Uiso   1.00
O1421  O     0.58773   0.81944   0.76767   0.00000  Uiso   1.00
O1422  O     0.47133   0.73570   0.73607   0.00000  Uiso   1.00
O1423  O     0.53771   0.92193   0.71806   0.00000  Uiso   1.00
S1424  S     0.44393   0.79543   0.60449   0.00000  Uiso   1.00
Zn1425 Zn    0.52577   0.80756   0.78277   0.00000  Uiso   1.00
Zn1426 Zn    0.46792   0.79044   0.72257   0.00000  Uiso   1.00
Zn1427 Zn    0.54500   0.86331   0.71188   0.00000  Uiso   1.00
Zn1428 Zn    0.46131   0.87202   0.78277   0.00000  Uiso   1.00
C1429  C     0.71915   0.82660   0.75874   0.00000  Uiso   1.00
C1430  C     0.86893   0.79833   0.95850   0.00000  Uiso   1.00
C1431  C     0.89912   0.79027   0.97763   0.00000  Uiso   1.00
C1432  C     0.94773   0.84033   0.74125   0.00000  Uiso   1.00
C1433  C     0.88893   0.79735   0.51892   0.00000  Uiso   1.00
C1434  C     0.84915   0.81237   0.54047   0.00000  Uiso   1.00
C1435  C     0.91685   0.78814   0.53927   0.00000  Uiso   1.00
C1436  C     0.90581   0.79474   0.58003   0.00000  Uiso   1.00
C1437  C     0.83372   0.80771   0.58123   0.00000  Uiso   1.00
C1438  C     0.99373   0.84326   0.73785   0.00000  Uiso   1.00
C1439  C     0.67373   0.82423   0.76215   0.00000  Uiso   1.00
C1440  C     0.76574   0.88033   0.92140   0.00000  Uiso   1.00
C1441  C     0.84759   0.98885   0.73808   0.00000  Uiso   1.00
C1442  C     0.81819   0.67873   0.76208   0.00000  Uiso   1.00
C1443  C     0.82258   0.72278   0.75888   0.00000  Uiso   1.00
C1444  C     0.84354   0.94435   0.74134   0.00000  Uiso   1.00
C1445  C     0.85443   0.81234   0.64394   0.00000  Uiso   1.00
C1446  C     0.81251   0.85472   0.85605   0.00000  Uiso   1.00
C1447  C     0.80286   0.86217   0.89905   0.00000  Uiso   1.00
C1448  C     0.86415   0.80388   0.60123   0.00000  Uiso   1.00
C1449  C     0.75591   0.88531   0.96220   0.00000  Uiso   1.00
C1450  C     0.97082   0.80472   0.94735   0.00000  Uiso   1.00
C1451  C     0.83056   0.84971   0.91799   0.00000  Uiso   1.00
C1452  C     0.67702   0.78589   0.92003   0.00000  Uiso   1.00
C1453  C     0.90025   0.87986   0.89859   0.00000  Uiso   1.00
C1454  C     0.94272   0.87593   0.86667   0.00000  Uiso   1.00
C1455  C     0.89494   0.75968   0.89627   0.00000  Uiso   1.00
C1456  C     0.90002   0.71386   0.89663   0.00000  Uiso   1.00
C1457  C     0.81668   0.84743   0.95903   0.00000  Uiso   1.00
C1458  C     0.78113   0.86917   0.98116   0.00000  Uiso   1.00
C1459  C     0.83842   0.82656   0.97885   0.00000  Uiso   1.00
C1460  C     0.82754   0.83254   0.52048   0.00000  Uiso   1.00
C1461  C     0.79706   0.86027   0.54094   0.00000  Uiso   1.00
C1462  C     0.77242   0.87624   0.52187   0.00000  Uiso   1.00
H1463  H     0.74726   0.89521   0.53895   0.00000  Uiso   1.00
H1464  H     0.79144   0.86926   0.57209   0.00000  Uiso   1.00
H1465  H     0.72969   0.82416   0.65278   0.00000  Uiso   1.00
H1466  H     0.97948   0.82069   0.97408   0.00000  Uiso   1.00
H1467  H     0.96259   0.82867   0.93217   0.00000  Uiso   1.00
H1468  H     0.66934   0.76950   0.89307   0.00000  Uiso   1.00
H1469  H     0.70409   0.81095   0.91149   0.00000  Uiso   1.00
H1470  H     0.68726   0.76325   0.93507   0.00000  Uiso   1.00
H1471  H     0.90705   0.88516   0.92772   0.00000  Uiso   1.00
H1472  H     0.88654   0.90762   0.89400   0.00000  Uiso   1.00
H1473  H     0.93675   0.87171   0.83729   0.00000  Uiso   1.00
H1474  H     0.94775   0.77703   0.52397   0.00000  Uiso   1.00
H1475  H     0.96548   0.90471   0.86876   0.00000  Uiso   1.00
H1476  H     0.95776   0.84869   0.86996   0.00000  Uiso   1.00
H1477  H     0.88796   0.76235   0.86818   0.00000  Uiso   1.00
H1478  H     0.92542   0.78042   0.89510   0.00000  Uiso   1.00
H1479  H     0.90298   0.70791   0.92542   0.00000  Uiso   1.00
H1480  H     0.87128   0.69368   0.89095   0.00000  Uiso   1.00
H1481  H     0.92936   0.70528   0.87331   0.00000  Uiso   1.00
H1482  H     0.68350   0.86094   0.71553   0.00000  Uiso   1.00
H1483  H     0.98461   0.80654   0.78480   0.00000  Uiso   1.00
H1484  H     0.87474   0.66951   0.71600   0.00000  Uiso   1.00
H1485  H     0.79067   0.99885   0.78424   0.00000  Uiso   1.00
H1486  H     0.92904   0.79060   0.59518   0.00000  Uiso   1.00
H1487  H     0.72811   0.90108   0.97897   0.00000  Uiso   1.00
H1488  H     0.74456   0.89105   0.90735   0.00000  Uiso   1.00
O1489  O     0.83333   0.83333   0.75000   0.00000  Uiso   1.00
O1490  O     0.82360   0.79060   0.66625   0.00000  Uiso   1.00
O1491  O     0.79354   0.87313   0.83749   0.00000  Uiso   1.00
O1492  O     0.87755   0.84159   0.65877   0.00000  Uiso   1.00
O1493  O     0.83865   0.82802   0.83749   0.00000  Uiso   1.00
O1494  O     0.75094   0.78890   0.57547   0.00000  Uiso   1.00
O1495  O     0.77061   0.75564   0.62345   0.00000  Uiso   1.00
O1496  O     0.75994   0.83440   0.63925   0.00000  Uiso   1.00
O1497  O     0.93630   0.77240   0.95698   0.00000  Uiso   1.00
O1498  O     0.87215   0.84257   0.89626   0.00000  Uiso   1.00
O1499  O     0.85904   0.77181   0.92714   0.00000  Uiso   1.00
O1500  O     0.84515   0.74768   0.77820   0.00000  Uiso   1.00
O1501  O     0.81247   0.92803   0.76767   0.00000  Uiso   1.00
O1502  O     0.74119   0.79917   0.73607   0.00000  Uiso   1.00
O1503  O     0.93452   0.85845   0.71806   0.00000  Uiso   1.00
O1504  O     0.73656   0.85627   0.77820   0.00000  Uiso   1.00
O1505  O     0.92106   0.81944   0.76767   0.00000  Uiso   1.00
O1506  O     0.80467   0.73570   0.73607   0.00000  Uiso   1.00
O1507  O     0.87104   0.92193   0.71806   0.00000  Uiso   1.00
S1508  S     0.77727   0.79543   0.60449   0.00000  Uiso   1.00
Zn1509 Zn    0.85910   0.80756   0.78277   0.00000  Uiso   1.00
Zn1510 Zn    0.80125   0.79044   0.72257   0.00000  Uiso   1.00
Zn1511 Zn    0.87833   0.86331   0.71188   0.00000  Uiso   1.00
Zn1512 Zn    0.79465   0.87202   0.78277   0.00000  Uiso   1.00
loop_
_geom_bond_atom_site_label_1
_geom_bond_atom_site_label_2
_geom_bond_distance
_geom_bond_site_symmetry_2
_ccdc_geom_bond_type
C1     C11     1.437   .     S
C1     O74     1.270   .     A
C1     O76     1.270   .     A
C2     C31     1.420   .     A
C2     O71     1.400   .     S
C2     C3      1.422   .     A
C3     O69     1.382   .     S
C3     C761    1.409   .     S
C4     O75     1.282   .     A
C4     C10     1.454   .     S
C4     O77     1.278   .     A
C5     C6      1.416   .     A
C5     C7      1.405   .     A
C5     C759    1.409   1_554 S
C6     C32     1.415   .     A
C6     C9      1.419   .     A
C7     C8      1.389   .     A
C7     H46     1.082   .     S
C8     C20     1.398   .     A
C8     H58     1.084   .     S
C9     S80     1.789   .     S
C9     C20     1.408   .     A
C10    C95     1.335   .     S
C10    H138    1.087   .     S
C11    C178    1.335   1_455 S
C11    H223    1.086   1_455 S
C12    C21     1.391   .     A
C12    C19     1.400   .     A
C12    H60     1.083   .     S
C13    C16     1.451   .     S
C13    C266    1.332   .     S
C13    H308    1.088   .     S
C14    C15     1.435   .     S
C14    C517    1.332   1_545 S
C14    H561    1.086   1_545 S
C15    O72     1.277   .     A
C15    O78     1.277   .     A
C16    O73     1.270   .     A
C16    O79     1.270   .     A
C17    O64     1.275   .     A
C17    O62     1.273   .     A
C17    C20     1.462   .     S
C18    O65     1.282   .     A
C18    O63     1.282   .     A
C18    C19     1.470   .     S
C19    C23     1.407   .     A
C21    H59     1.084   .     S
C21    C30     1.402   .     A
C22    H38     1.112   .     S
C22    O69     1.416   .     S
C22    H39     1.114   .     S
C22    C108    1.521   .     S
C23    C29     1.414   .     A
C23    O70     1.384   .     S
C24    H42     1.110   .     S
C24    H41     1.109   .     S
C24    H40     1.110   .     S
C24    C190    1.521   1_455 S
C25    H43     1.113   .     S
C25    H44     1.116   .     S
C25    C26     1.522   .     S
C25    O70     1.412   .     S
C26    H45     1.111   .     S
C26    H48     1.109   .     S
C26    H47     1.110   .     S
C27    H50     1.105   .     S
C27    O71     1.413   .     S
C27    C28     1.526   .     S
C27    H49     1.111   .     S
C28    H51     1.108   .     S
C28    H53     1.110   .     S
C28    H52     1.111   .     S
C29    C30     1.419   .     A
C29    C31     1.428   .     A
C30    C790    1.392   .     S
C31    C788    1.419   .     S
C32    C33     1.409   .     A
C32    C787    1.419   1_554 S
C33    H36     1.080   .     S
C33    C34     1.387   .     A
C34    H35     1.084   .     S
C34    C786    1.392   1_554 S
H37    O68     0.990   .     S
H54    C178    1.087   1_455 S
H55    C95     1.086   .     S
H56    C517    1.088   1_545 S
H57    C266    1.086   .     S
O61    Zn82    1.942   .     S
O61    Zn83    1.932   .     S
O61    Zn84    1.932   .     S
O61    Zn81    1.961   .     S
O62    Zn82    1.933   .     S
O63    Zn84    1.944   .     S
O64    Zn83    1.938   .     S
O65    Zn81    1.929   .     S
O66    S80     1.503   .     D
O67    S80     1.503   .     D
O68    S80     1.682   .     S
O72    Zn81    1.926   .     S
O73    Zn84    1.929   .     S
O74    Zn82    1.924   .     S
O75    Zn83    1.935   .     S
O76    Zn84    1.929   .     S
O77    Zn81    1.920   .     S
O78    Zn82    1.936   .     S
O79    Zn83    1.930   .     S
C85    C95     1.437   .     S
C85    O158    1.270   .     A
C85    O160    1.270   .     A
C86    C115    1.420   .     A
C86    O155    1.400   .     S
C86    C87     1.422   .     A
C87    O153    1.382   .     S
C87    C845    1.409   .     S
C88    O159    1.282   .     A
C88    C94     1.454   .     S
C88    O161    1.278   .     A
C89    C90     1.416   .     A
C89    C91     1.405   .     A
C89    C843    1.409   1_554 S
C90    C116    1.415   .     A
C90    C93     1.419   .     A
C91    C92     1.389   .     A
C91    H130    1.082   .     S
C92    C104    1.398   .     A
C92    H142    1.084   .     S
C93    S164    1.789   .     S
C93    C104    1.408   .     A
C94    C179    1.335   .     S
C94    H222    1.087   .     S
C96    C105    1.391   .     A
C96    C103    1.400   .     A
C96    H144    1.083   .     S
C97    C100    1.451   .     S
C97    C350    1.332   .     S
C97    H392    1.088   .     S
C98    C99     1.435   .     S
C98    C601    1.332   1_545 S
C98    H645    1.086   1_545 S
C99    O156    1.277   .     A
C99    O162    1.277   .     A
C100   O157    1.270   .     A
C100   O163    1.270   .     A
C101   O148    1.275   .     A
C101   O146    1.273   .     A
C101   C104    1.462   .     S
C102   O149    1.282   .     A
C102   O147    1.282   .     A
C102   C103    1.470   .     S
C103   C107    1.407   .     A
C105   H143    1.084   .     S
C105   C114    1.402   .     A
C106   H122    1.112   .     S
C106   O153    1.416   .     S
C106   H123    1.114   .     S
C106   C192    1.521   .     S
C107   C113    1.414   .     A
C107   O154    1.384   .     S
C108   H126    1.110   .     S
C108   H125    1.109   .     S
C108   H124    1.110   .     S
C109   H127    1.113   .     S
C109   H128    1.116   .     S
C109   C110    1.522   .     S
C109   O154    1.412   .     S
C110   H129    1.111   .     S
C110   H132    1.109   .     S
C110   H131    1.110   .     S
C111   H134    1.105   .     S
C111   O155    1.413   .     S
C111   C112    1.526   .     S
C111   H133    1.111   .     S
C112   H135    1.108   .     S
C112   H137    1.110   .     S
C112   H136    1.111   .     S
C113   C114    1.419   .     A
C113   C115    1.428   .     A
C114   C874    1.392   .     S
C115   C872    1.419   .     S
C116   C117    1.409   .     A
C116   C871    1.419   1_554 S
C117   H120    1.080   .     S
C117   C118    1.387   .     A
C118   H119    1.084   .     S
C118   C870    1.392   1_554 S
H121   O152    0.990   .     S
H139   C179    1.086   .     S
H140   C601    1.088   1_545 S
H141   C350    1.086   .     S
O145   Zn166   1.942   .     S
O145   Zn167   1.932   .     S
O145   Zn168   1.932   .     S
O145   Zn165   1.961   .     S
O146   Zn166   1.933   .     S
O147   Zn168   1.944   .     S
O148   Zn167   1.938   .     S
O149   Zn165   1.929   .     S
O150   S164    1.503   .     D
O151   S164    1.503   .     D
O152   S164    1.682   .     S
O156   Zn165   1.926   .     S
O157   Zn168   1.929   .     S
O158   Zn166   1.924   .     S
O159   Zn167   1.935   .     S
O160   Zn168   1.929   .     S
O161   Zn165   1.920   .     S
O162   Zn166   1.936   .     S
O163   Zn167   1.930   .     S
C169   C179    1.437   .     S
C169   O242    1.270   .     A
C169   O244    1.270   .     A
C170   C199    1.420   .     A
C170   O239    1.400   .     S
C170   C171    1.422   .     A
C171   O237    1.382   .     S
C171   C929    1.409   .     S
C172   O243    1.282   .     A
C172   C178    1.454   .     S
C172   O245    1.278   .     A
C173   C174    1.416   .     A
C173   C175    1.405   .     A
C173   C927    1.409   1_554 S
C174   C200    1.415   .     A
C174   C177    1.419   .     A
C175   C176    1.389   .     A
C175   H214    1.082   .     S
C176   C188    1.398   .     A
C176   H226    1.084   .     S
C177   S248    1.789   .     S
C177   C188    1.408   .     A
C178   C11     1.335   1_655 S
C178   H54     1.087   1_655 S
C180   C189    1.391   .     A
C180   C187    1.400   .     A
C180   H228    1.083   .     S
C181   C184    1.451   .     S
C181   C434    1.332   .     S
C181   H476    1.088   .     S
C182   C183    1.435   .     S
C182   C685    1.332   1_545 S
C182   H729    1.086   1_545 S
C183   O240    1.277   .     A
C183   O246    1.277   .     A
C184   O241    1.270   .     A
C184   O247    1.270   .     A
C185   O232    1.275   .     A
C185   O230    1.273   .     A
C185   C188    1.462   .     S
C186   O233    1.282   .     A
C186   O231    1.282   .     A
C186   C187    1.470   .     S
C187   C191    1.407   .     A
C189   H227    1.084   .     S
C189   C198    1.402   .     A
C190   H206    1.112   .     S
C190   O237    1.416   .     S
C190   H207    1.114   .     S
C190   C24     1.521   1_655 S
C191   C197    1.414   .     A
C191   O238    1.384   .     S
C192   H210    1.110   .     S
C192   H209    1.109   .     S
C192   H208    1.110   .     S
C193   H211    1.113   .     S
C193   H212    1.116   .     S
C193   C194    1.522   .     S
C193   O238    1.412   .     S
C194   H213    1.111   .     S
C194   H216    1.109   .     S
C194   H215    1.110   .     S
C195   H218    1.105   .     S
C195   O239    1.413   .     S
C195   C196    1.526   .     S
C195   H217    1.111   .     S
C196   H219    1.108   .     S
C196   H221    1.110   .     S
C196   H220    1.111   .     S
C197   C198    1.419   .     A
C197   C199    1.428   .     A
C198   C958    1.392   .     S
C199   C956    1.419   .     S
C200   C201    1.409   .     A
C200   C955    1.419   1_554 S
C201   H204    1.080   .     S
C201   C202    1.387   .     A
C202   H203    1.084   .     S
C202   C954    1.392   1_554 S
H205   O236    0.990   .     S
H223   C11     1.086   1_655 S
H224   C685    1.088   1_545 S
H225   C434    1.086   .     S
O229   Zn250   1.942   .     S
O229   Zn251   1.932   .     S
O229   Zn252   1.932   .     S
O229   Zn249   1.961   .     S
O230   Zn250   1.933   .     S
O231   Zn252   1.944   .     S
O232   Zn251   1.938   .     S
O233   Zn249   1.929   .     S
O234   S248    1.503   .     D
O235   S248    1.503   .     D
O236   S248    1.682   .     S
O240   Zn249   1.926   .     S
O241   Zn252   1.929   .     S
O242   Zn250   1.924   .     S
O243   Zn251   1.935   .     S
O244   Zn252   1.929   .     S
O245   Zn249   1.920   .     S
O246   Zn250   1.936   .     S
O247   Zn251   1.930   .     S
C253   C263    1.437   .     S
C253   O326    1.270   .     A
C253   O328    1.270   .     A
C254   C283    1.420   .     A
C254   O323    1.400   .     S
C254   C255    1.422   .     A
C255   O321    1.382   .     S
C255   C1013   1.409   .     S
C256   O327    1.282   .     A
C256   C262    1.454   .     S
C256   O329    1.278   .     A
C257   C258    1.416   .     A
C257   C259    1.405   .     A
C257   C1011   1.409   1_554 S
C258   C284    1.415   .     A
C258   C261    1.419   .     A
C259   C260    1.389   .     A
C259   H298    1.082   .     S
C260   C272    1.398   .     A
C260   H310    1.084   .     S
C261   S332    1.789   .     S
C261   C272    1.408   .     A
C262   C347    1.335   .     S
C262   H390    1.087   .     S
C263   C430    1.335   1_455 S
C263   H475    1.086   1_455 S
C264   C273    1.391   .     A
C264   C271    1.400   .     A
C264   H312    1.083   .     S
C265   C268    1.451   .     S
C265   C518    1.332   .     S
C265   H560    1.088   .     S
C266   C267    1.435   .     S
C267   O324    1.277   .     A
C267   O330    1.277   .     A
C268   O325    1.270   .     A
C268   O331    1.270   .     A
C269   O316    1.275   .     A
C269   O314    1.273   .     A
C269   C272    1.462   .     S
C270   O317    1.282   .     A
C270   O315    1.282   .     A
C270   C271    1.470   .     S
C271   C275    1.407   .     A
C273   H311    1.084   .     S
C273   C282    1.402   .     A
C274   H290    1.112   .     S
C274   O321    1.416   .     S
C274   H291    1.114   .     S
C274   C360    1.521   .     S
C275   C281    1.414   .     A
C275   O322    1.384   .     S
C276   H294    1.110   .     S
C276   H293    1.109   .     S
C276   H292    1.110   .     S
C276   C442    1.521   1_455 S
C277   H295    1.113   .     S
C277   H296    1.116   .     S
C277   C278    1.522   .     S
C277   O322    1.412   .     S
C278   H297    1.111   .     S
C278   H300    1.109   .     S
C278   H299    1.110   .     S
C279   H302    1.105   .     S
C279   O323    1.413   .     S
C279   C280    1.526   .     S
C279   H301    1.111   .     S
C280   H303    1.108   .     S
C280   H305    1.110   .     S
C280   H304    1.111   .     S
C281   C282    1.419   .     A
C281   C283    1.428   .     A
C282   C1042   1.392   .     S
C283   C1040   1.419   .     S
C284   C285    1.409   .     A
C284   C1039   1.419   1_554 S
C285   H288    1.080   .     S
C285   C286    1.387   .     A
C286   H287    1.084   .     S
C286   C1038   1.392   1_554 S
H289   O320    0.990   .     S
H306   C430    1.087   1_455 S
H307   C347    1.086   .     S
H309   C518    1.086   .     S
O313   Zn334   1.942   .     S
O313   Zn335   1.932   .     S
O313   Zn336   1.932   .     S
O313   Zn333   1.961   .     S
O314   Zn334   1.933   .     S
O315   Zn336   1.944   .     S
O316   Zn335   1.938   .     S
O317   Zn333   1.929   .     S
O318   S332    1.503   .     D
O319   S332    1.503   .     D
O320   S332    1.682   .     S
O324   Zn333   1.926   .     S
O325   Zn336   1.929   .     S
O326   Zn334   1.924   .     S
O327   Zn335   1.935   .     S
O328   Zn336   1.929   .     S
O329   Zn333   1.920   .     S
O330   Zn334   1.936   .     S
O331   Zn335   1.930   .     S
C337   C347    1.437   .     S
C337   O410    1.270   .     A
C337   O412    1.270   .     A
C338   C367    1.420   .     A
C338   O407    1.400   .     S
C338   C339    1.422   .     A
C339   O405    1.382   .     S
C339   C1097   1.409   .     S
C340   O411    1.282   .     A
C340   C346    1.454   .     S
C340   O413    1.278   .     A
C341   C342    1.416   .     A
C341   C343    1.405   .     A
C341   C1095   1.409   1_554 S
C342   C368    1.415   .     A
C342   C345    1.419   .     A
C343   C344    1.389   .     A
C343   H382    1.082   .     S
C344   C356    1.398   .     A
C344   H394    1.084   .     S
C345   S416    1.789   .     S
C345   C356    1.408   .     A
C346   C431    1.335   .     S
C346   H474    1.087   .     S
C348   C357    1.391   .     A
C348   C355    1.400   .     A
C348   H396    1.083   .     S
C349   C352    1.451   .     S
C349   C602    1.332   .     S
C349   H644    1.088   .     S
C350   C351    1.435   .     S
C351   O408    1.277   .     A
C351   O414    1.277   .     A
C352   O409    1.270   .     A
C352   O415    1.270   .     A
C353   O400    1.275   .     A
C353   O398    1.273   .     A
C353   C356    1.462   .     S
C354   O401    1.282   .     A
C354   O399    1.282   .     A
C354   C355    1.470   .     S
C355   C359    1.407   .     A
C357   H395    1.084   .     S
C357   C366    1.402   .     A
C358   H374    1.112   .     S
C358   O405    1.416   .     S
C358   H375    1.114   .     S
C358   C444    1.521   .     S
C359   C365    1.414   .     A
C359   O406    1.384   .     S
C360   H378    1.110   .     S
C360   H377    1.109   .     S
C360   H376    1.110   .     S
C361   H379    1.113   .     S
C361   H380    1.116   .     S
C361   C362    1.522   .     S
C361   O406    1.412   .     S
C362   H381    1.111   .     S
C362   H384    1.109   .     S
C362   H383    1.110   .     S
C363   H386    1.105   .     S
C363   O407    1.413   .     S
C363   C364    1.526   .     S
C363   H385    1.111   .     S
C364   H387    1.108   .     S
C364   H389    1.110   .     S
C364   H388    1.111   .     S
C365   C366    1.419   .     A
C365   C367    1.428   .     A
C366   C1126   1.392   .     S
C367   C1124   1.419   .     S
C368   C369    1.409   .     A
C368   C1123   1.419   1_554 S
C369   H372    1.080   .     S
C369   C370    1.387   .     A
C370   H371    1.084   .     S
C370   C1122   1.392   1_554 S
H373   O404    0.990   .     S
H391   C431    1.086   .     S
H393   C602    1.086   .     S
O397   Zn418   1.942   .     S
O397   Zn419   1.932   .     S
O397   Zn420   1.932   .     S
O397   Zn417   1.961   .     S
O398   Zn418   1.933   .     S
O399   Zn420   1.944   .     S
O400   Zn419   1.938   .     S
O401   Zn417   1.929   .     S
O402   S416    1.503   .     D
O403   S416    1.503   .     D
O404   S416    1.682   .     S
O408   Zn417   1.926   .     S
O409   Zn420   1.929   .     S
O410   Zn418   1.924   .     S
O411   Zn419   1.935   .     S
O412   Zn420   1.929   .     S
O413   Zn417   1.920   .     S
O414   Zn418   1.936   .     S
O415   Zn419   1.930   .     S
C421   C431    1.437   .     S
C421   O494    1.270   .     A
C421   O496    1.270   .     A
C422   C451    1.420   .     A
C422   O491    1.400   .     S
C422   C423    1.422   .     A
C423   O489    1.382   .     S
C423   C1181   1.409   .     S
C424   O495    1.282   .     A
C424   C430    1.454   .     S
C424   O497    1.278   .     A
C425   C426    1.416   .     A
C425   C427    1.405   .     A
C425   C1179   1.409   1_554 S
C426   C452    1.415   .     A
C426   C429    1.419   .     A
C427   C428    1.389   .     A
C427   H466    1.082   .     S
C428   C440    1.398   .     A
C428   H478    1.084   .     S
C429   S500    1.789   .     S
C429   C440    1.408   .     A
C430   C263    1.335   1_655 S
C430   H306    1.087   1_655 S
C432   C441    1.391   .     A
C432   C439    1.400   .     A
C432   H480    1.083   .     S
C433   C436    1.451   .     S
C433   C686    1.332   .     S
C433   H728    1.088   .     S
C434   C435    1.435   .     S
C435   O492    1.277   .     A
C435   O498    1.277   .     A
C436   O493    1.270   .     A
C436   O499    1.270   .     A
C437   O484    1.275   .     A
C437   O482    1.273   .     A
C437   C440    1.462   .     S
C438   O485    1.282   .     A
C438   O483    1.282   .     A
C438   C439    1.470   .     S
C439   C443    1.407   .     A
C441   H479    1.084   .     S
C441   C450    1.402   .     A
C442   H458    1.112   .     S
C442   O489    1.416   .     S
C442   H459    1.114   .     S
C442   C276    1.521   1_655 S
C443   C449    1.414   .     A
C443   O490    1.384   .     S
C444   H462    1.110   .     S
C444   H461    1.109   .     S
C444   H460    1.110   .     S
C445   H463    1.113   .     S
C445   H464    1.116   .     S
C445   C446    1.522   .     S
C445   O490    1.412   .     S
C446   H465    1.111   .     S
C446   H468    1.109   .     S
C446   H467    1.110   .     S
C447   H470    1.105   .     S
C447   O491    1.413   .     S
C447   C448    1.526   .     S
C447   H469    1.111   .     S
C448   H471    1.108   .     S
C448   H473    1.110   .     S
C448   H472    1.111   .     S
C449   C450    1.419   .     A
C449   C451    1.428   .     A
C450   C1210   1.392   .     S
C451   C1208   1.419   .     S
C452   C453    1.409   .     A
C452   C1207   1.419   1_554 S
C453   H456    1.080   .     S
C453   C454    1.387   .     A
C454   H455    1.084   .     S
C454   C1206   1.392   1_554 S
H457   O488    0.990   .     S
H475   C263    1.086   1_655 S
H477   C686    1.086   .     S
O481   Zn502   1.942   .     S
O481   Zn503   1.932   .     S
O481   Zn504   1.932   .     S
O481   Zn501   1.961   .     S
O482   Zn502   1.933   .     S
O483   Zn504   1.944   .     S
O484   Zn503   1.938   .     S
O485   Zn501   1.929   .     S
O486   S500    1.503   .     D
O487   S500    1.503   .     D
O488   S500    1.682   .     S
O492   Zn501   1.926   .     S
O493   Zn504   1.929   .     S
O494   Zn502   1.924   .     S
O495   Zn503   1.935   .     S
O496   Zn504   1.929   .     S
O497   Zn501   1.920   .     S
O498   Zn502   1.936   .     S
O499   Zn503   1.930   .     S
C505   C515    1.437   .     S
C505   O578    1.270   .     A
C505   O580    1.270   .     A
C506   C535    1.420   .     A
C506   O575    1.400   .     S
C506   C507    1.422   .     A
C507   O573    1.382   .     S
C507   C1265   1.409   .     S
C508   O579    1.282   .     A
C508   C514    1.454   .     S
C508   O581    1.278   .     A
C509   C510    1.416   .     A
C509   C511    1.405   .     A
C509   C1263   1.409   1_554 S
C510   C536    1.415   .     A
C510   C513    1.419   .     A
C511   C512    1.389   .     A
C511   H550    1.082   .     S
C512   C524    1.398   .     A
C512   H562    1.084   .     S
C513   S584    1.789   .     S
C513   C524    1.408   .     A
C514   C599    1.335   .     S
C514   H642    1.087   .     S
C515   C682    1.335   1_455 S
C515   H727    1.086   1_455 S
C516   C525    1.391   .     A
C516   C523    1.400   .     A
C516   H564    1.083   .     S
C517   C520    1.451   .     S
C517   C14     1.332   1_565 S
C517   H56     1.088   1_565 S
C518   C519    1.435   .     S
C519   O576    1.277   .     A
C519   O582    1.277   .     A
C520   O577    1.270   .     A
C520   O583    1.270   .     A
C521   O568    1.275   .     A
C521   O566    1.273   .     A
C521   C524    1.462   .     S
C522   O569    1.282   .     A
C522   O567    1.282   .     A
C522   C523    1.470   .     S
C523   C527    1.407   .     A
C525   H563    1.084   .     S
C525   C534    1.402   .     A
C526   H542    1.112   .     S
C526   O573    1.416   .     S
C526   H543    1.114   .     S
C526   C612    1.521   .     S
C527   C533    1.414   .     A
C527   O574    1.384   .     S
C528   H546    1.110   .     S
C528   H545    1.109   .     S
C528   H544    1.110   .     S
C528   C694    1.521   1_455 S
C529   H547    1.113   .     S
C529   H548    1.116   .     S
C529   C530    1.522   .     S
C529   O574    1.412   .     S
C530   H549    1.111   .     S
C530   H552    1.109   .     S
C530   H551    1.110   .     S
C531   H554    1.105   .     S
C531   O575    1.413   .     S
C531   C532    1.526   .     S
C531   H553    1.111   .     S
C532   H555    1.108   .     S
C532   H557    1.110   .     S
C532   H556    1.111   .     S
C533   C534    1.419   .     A
C533   C535    1.428   .     A
C534   C1294   1.392   .     S
C535   C1292   1.419   .     S
C536   C537    1.409   .     A
C536   C1291   1.419   1_554 S
C537   H540    1.080   .     S
C537   C538    1.387   .     A
C538   H539    1.084   .     S
C538   C1290   1.392   1_554 S
H541   O572    0.990   .     S
H558   C682    1.087   1_455 S
H559   C599    1.086   .     S
H561   C14     1.086   1_565 S
O565   Zn586   1.942   .     S
O565   Zn587   1.932   .     S
O565   Zn588   1.932   .     S
O565   Zn585   1.961   .     S
O566   Zn586   1.933   .     S
O567   Zn588   1.944   .     S
O568   Zn587   1.938   .     S
O569   Zn585   1.929   .     S
O570   S584    1.503   .     D
O571   S584    1.503   .     D
O572   S584    1.682   .     S
O576   Zn585   1.926   .     S
O577   Zn588   1.929   .     S
O578   Zn586   1.924   .     S
O579   Zn587   1.935   .     S
O580   Zn588   1.929   .     S
O581   Zn585   1.920   .     S
O582   Zn586   1.936   .     S
O583   Zn587   1.930   .     S
C589   C599    1.437   .     S
C589   O662    1.270   .     A
C589   O664    1.270   .     A
C590   C619    1.420   .     A
C590   O659    1.400   .     S
C590   C591    1.422   .     A
C591   O657    1.382   .     S
C591   C1349   1.409   .     S
C592   O663    1.282   .     A
C592   C598    1.454   .     S
C592   O665    1.278   .     A
C593   C594    1.416   .     A
C593   C595    1.405   .     A
C593   C1347   1.409   1_554 S
C594   C620    1.415   .     A
C594   C597    1.419   .     A
C595   C596    1.389   .     A
C595   H634    1.082   .     S
C596   C608    1.398   .     A
C596   H646    1.084   .     S
C597   S668    1.789   .     S
C597   C608    1.408   .     A
C598   C683    1.335   .     S
C598   H726    1.087   .     S
C600   C609    1.391   .     A
C600   C607    1.400   .     A
C600   H648    1.083   .     S
C601   C604    1.451   .     S
C601   C98     1.332   1_565 S
C601   H140    1.088   1_565 S
C602   C603    1.435   .     S
C603   O660    1.277   .     A
C603   O666    1.277   .     A
C604   O661    1.270   .     A
C604   O667    1.270   .     A
C605   O652    1.275   .     A
C605   O650    1.273   .     A
C605   C608    1.462   .     S
C606   O653    1.282   .     A
C606   O651    1.282   .     A
C606   C607    1.470   .     S
C607   C611    1.407   .     A
C609   H647    1.084   .     S
C609   C618    1.402   .     A
C610   H626    1.112   .     S
C610   O657    1.416   .     S
C610   H627    1.114   .     S
C610   C696    1.521   .     S
C611   C617    1.414   .     A
C611   O658    1.384   .     S
C612   H630    1.110   .     S
C612   H629    1.109   .     S
C612   H628    1.110   .     S
C613   H631    1.113   .     S
C613   H632    1.116   .     S
C613   C614    1.522   .     S
C613   O658    1.412   .     S
C614   H633    1.111   .     S
C614   H636    1.109   .     S
C614   H635    1.110   .     S
C615   H638    1.105   .     S
C615   O659    1.413   .     S
C615   C616    1.526   .     S
C615   H637    1.111   .     S
C616   H639    1.108   .     S
C616   H641    1.110   .     S
C616   H640    1.111   .     S
C617   C618    1.419   .     A
C617   C619    1.428   .     A
C618   C1378   1.392   .     S
C619   C1376   1.419   .     S
C620   C621    1.409   .     A
C620   C1375   1.419   1_554 S
C621   H624    1.080   .     S
C621   C622    1.387   .     A
C622   H623    1.084   .     S
C622   C1374   1.392   1_554 S
H625   O656    0.990   .     S
H643   C683    1.086   .     S
H645   C98     1.086   1_565 S
O649   Zn670   1.942   .     S
O649   Zn671   1.932   .     S
O649   Zn672   1.932   .     S
O649   Zn669   1.961   .     S
O650   Zn670   1.933   .     S
O651   Zn672   1.944   .     S
O652   Zn671   1.938   .     S
O653   Zn669   1.929   .     S
O654   S668    1.503   .     D
O655   S668    1.503   .     D
O656   S668    1.682   .     S
O660   Zn669   1.926   .     S
O661   Zn672   1.929   .     S
O662   Zn670   1.924   .     S
O663   Zn671   1.935   .     S
O664   Zn672   1.929   .     S
O665   Zn669   1.920   .     S
O666   Zn670   1.936   .     S
O667   Zn671   1.930   .     S
C673   C683    1.437   .     S
C673   O746    1.270   .     A
C673   O748    1.270   .     A
C674   C703    1.420   .     A
C674   O743    1.400   .     S
C674   C675    1.422   .     A
C675   O741    1.382   .     S
C675   C1433   1.409   .     S
C676   O747    1.282   .     A
C676   C682    1.454   .     S
C676   O749    1.278   .     A
C677   C678    1.416   .     A
C677   C679    1.405   .     A
C677   C1431   1.409   1_554 S
C678   C704    1.415   .     A
C678   C681    1.419   .     A
C679   C680    1.389   .     A
C679   H718    1.082   .     S
C680   C692    1.398   .     A
C680   H730    1.084   .     S
C681   S752    1.789   .     S
C681   C692    1.408   .     A
C682   C515    1.335   1_655 S
C682   H558    1.087   1_655 S
C684   C693    1.391   .     A
C684   C691    1.400   .     A
C684   H732    1.083   .     S
C685   C688    1.451   .     S
C685   C182    1.332   1_565 S
C685   H224    1.088   1_565 S
C686   C687    1.435   .     S
C687   O744    1.277   .     A
C687   O750    1.277   .     A
C688   O745    1.270   .     A
C688   O751    1.270   .     A
C689   O736    1.275   .     A
C689   O734    1.273   .     A
C689   C692    1.462   .     S
C690   O737    1.282   .     A
C690   O735    1.282   .     A
C690   C691    1.470   .     S
C691   C695    1.407   .     A
C693   H731    1.084   .     S
C693   C702    1.402   .     A
C694   H710    1.112   .     S
C694   O741    1.416   .     S
C694   H711    1.114   .     S
C694   C528    1.521   1_655 S
C695   C701    1.414   .     A
C695   O742    1.384   .     S
C696   H714    1.110   .     S
C696   H713    1.109   .     S
C696   H712    1.110   .     S
C697   H715    1.113   .     S
C697   H716    1.116   .     S
C697   C698    1.522   .     S
C697   O742    1.412   .     S
C698   H717    1.111   .     S
C698   H720    1.109   .     S
C698   H719    1.110   .     S
C699   H722    1.105   .     S
C699   O743    1.413   .     S
C699   C700    1.526   .     S
C699   H721    1.111   .     S
C700   H723    1.108   .     S
C700   H725    1.110   .     S
C700   H724    1.111   .     S
C701   C702    1.419   .     A
C701   C703    1.428   .     A
C702   C1462   1.392   .     S
C703   C1460   1.419   .     S
C704   C705    1.409   .     A
C704   C1459   1.419   1_554 S
C705   H708    1.080   .     S
C705   C706    1.387   .     A
C706   H707    1.084   .     S
C706   C1458   1.392   1_554 S
H709   O740    0.990   .     S
H727   C515    1.086   1_655 S
H729   C182    1.086   1_565 S
O733   Zn754   1.942   .     S
O733   Zn755   1.932   .     S
O733   Zn756   1.932   .     S
O733   Zn753   1.961   .     S
O734   Zn754   1.933   .     S
O735   Zn756   1.944   .     S
O736   Zn755   1.938   .     S
O737   Zn753   1.929   .     S
O738   S752    1.503   .     D
O739   S752    1.503   .     D
O740   S752    1.682   .     S
O744   Zn753   1.926   .     S
O745   Zn756   1.929   .     S
O746   Zn754   1.924   .     S
O747   Zn755   1.935   .     S
O748   Zn756   1.929   .     S
O749   Zn753   1.920   .     S
O750   Zn754   1.936   .     S
O751   Zn755   1.930   .     S
C757   C767    1.437   .     S
C757   O830    1.270   .     A
C757   O832    1.270   .     A
C758   C787    1.420   .     A
C758   O827    1.400   .     S
C758   C759    1.422   .     A
C759   O825    1.382   .     S
C759   C5      1.409   1_556 S
C760   O831    1.282   .     A
C760   C766    1.454   .     S
C760   O833    1.278   .     A
C761   C762    1.416   .     A
C761   C763    1.405   .     A
C762   C788    1.415   .     A
C762   C765    1.419   .     A
C763   C764    1.389   .     A
C763   H802    1.082   .     S
C764   C776    1.398   .     A
C764   H814    1.084   .     S
C765   S836    1.789   .     S
C765   C776    1.408   .     A
C766   C851    1.335   .     S
C766   H894    1.087   .     S
C767   C934    1.335   1_455 S
C767   H979    1.086   1_455 S
C768   C777    1.391   .     A
C768   C775    1.400   .     A
C768   H816    1.083   .     S
C769   C772    1.451   .     S
C769   C1022   1.332   .     S
C769   H1064   1.088   .     S
C770   C771    1.435   .     S
C770   C1273   1.332   1_545 S
C770   H1317   1.086   1_545 S
C771   O828    1.277   .     A
C771   O834    1.277   .     A
C772   O829    1.270   .     A
C772   O835    1.270   .     A
C773   O820    1.275   .     A
C773   O818    1.273   .     A
C773   C776    1.462   .     S
C774   O821    1.282   .     A
C774   O819    1.282   .     A
C774   C775    1.470   .     S
C775   C779    1.407   .     A
C777   H815    1.084   .     S
C777   C786    1.402   .     A
C778   H794    1.112   .     S
C778   O825    1.416   .     S
C778   H795    1.114   .     S
C778   C864    1.521   .     S
C779   C785    1.414   .     A
C779   O826    1.384   .     S
C780   H798    1.110   .     S
C780   H797    1.109   .     S
C780   H796    1.110   .     S
C780   C946    1.521   1_455 S
C781   H799    1.113   .     S
C781   H800    1.116   .     S
C781   C782    1.522   .     S
C781   O826    1.412   .     S
C782   H801    1.111   .     S
C782   H804    1.109   .     S
C782   H803    1.110   .     S
C783   H806    1.105   .     S
C783   O827    1.413   .     S
C783   C784    1.526   .     S
C783   H805    1.111   .     S
C784   H807    1.108   .     S
C784   H809    1.110   .     S
C784   H808    1.111   .     S
C785   C786    1.419   .     A
C785   C787    1.428   .     A
C786   C34     1.392   1_556 S
C787   C32     1.419   1_556 S
C788   C789    1.409   .     A
C789   H792    1.080   .     S
C789   C790    1.387   .     A
C790   H791    1.084   .     S
H793   O824    0.990   .     S
H810   C934    1.087   1_455 S
H811   C851    1.086   .     S
H812   C1273   1.088   1_545 S
H813   C1022   1.086   .     S
O817   Zn838   1.942   .     S
O817   Zn839   1.932   .     S
O817   Zn840   1.932   .     S
O817   Zn837   1.961   .     S
O818   Zn838   1.933   .     S
O819   Zn840   1.944   .     S
O820   Zn839   1.938   .     S
O821   Zn837   1.929   .     S
O822   S836    1.503   .     D
O823   S836    1.503   .     D
O824   S836    1.682   .     S
O828   Zn837   1.926   .     S
O829   Zn840   1.929   .     S
O830   Zn838   1.924   .     S
O831   Zn839   1.935   .     S
O832   Zn840   1.929   .     S
O833   Zn837   1.920   .     S
O834   Zn838   1.936   .     S
O835   Zn839   1.930   .     S
C841   C851    1.437   .     S
C841   O914    1.270   .     A
C841   O916    1.270   .     A
C842   C871    1.420   .     A
C842   O911    1.400   .     S
C842   C843    1.422   .     A
C843   O909    1.382   .     S
C843   C89     1.409   1_556 S
C844   O915    1.282   .     A
C844   C850    1.454   .     S
C844   O917    1.278   .     A
C845   C846    1.416   .     A
C845   C847    1.405   .     A
C846   C872    1.415   .     A
C846   C849    1.419   .     A
C847   C848    1.389   .     A
C847   H886    1.082   .     S
C848   C860    1.398   .     A
C848   H898    1.084   .     S
C849   S920    1.789   .     S
C849   C860    1.408   .     A
C850   C935    1.335   .     S
C850   H978    1.087   .     S
C852   C861    1.391   .     A
C852   C859    1.400   .     A
C852   H900    1.083   .     S
C853   C856    1.451   .     S
C853   C1106   1.332   .     S
C853   H1148   1.088   .     S
C854   C855    1.435   .     S
C854   C1357   1.332   1_545 S
C854   H1401   1.086   1_545 S
C855   O912    1.277   .     A
C855   O918    1.277   .     A
C856   O913    1.270   .     A
C856   O919    1.270   .     A
C857   O904    1.275   .     A
C857   O902    1.273   .     A
C857   C860    1.462   .     S
C858   O905    1.282   .     A
C858   O903    1.282   .     A
C858   C859    1.470   .     S
C859   C863    1.407   .     A
C861   H899    1.084   .     S
C861   C870    1.402   .     A
C862   H878    1.112   .     S
C862   O909    1.416   .     S
C862   H879    1.114   .     S
C862   C948    1.521   .     S
C863   C869    1.414   .     A
C863   O910    1.384   .     S
C864   H882    1.110   .     S
C864   H881    1.109   .     S
C864   H880    1.110   .     S
C865   H883    1.113   .     S
C865   H884    1.116   .     S
C865   C866    1.522   .     S
C865   O910    1.412   .     S
C866   H885    1.111   .     S
C866   H888    1.109   .     S
C866   H887    1.110   .     S
C867   H890    1.105   .     S
C867   O911    1.413   .     S
C867   C868    1.526   .     S
C867   H889    1.111   .     S
C868   H891    1.108   .     S
C868   H893    1.110   .     S
C868   H892    1.111   .     S
C869   C870    1.419   .     A
C869   C871    1.428   .     A
C870   C118    1.392   1_556 S
C871   C116    1.419   1_556 S
C872   C873    1.409   .     A
C873   H876    1.080   .     S
C873   C874    1.387   .     A
C874   H875    1.084   .     S
H877   O908    0.990   .     S
H895   C935    1.086   .     S
H896   C1357   1.088   1_545 S
H897   C1106   1.086   .     S
O901   Zn922   1.942   .     S
O901   Zn923   1.932   .     S
O901   Zn924   1.932   .     S
O901   Zn921   1.961   .     S
O902   Zn922   1.933   .     S
O903   Zn924   1.944   .     S
O904   Zn923   1.938   .     S
O905   Zn921   1.929   .     S
O906   S920    1.503   .     D
O907   S920    1.503   .     D
O908   S920    1.682   .     S
O912   Zn921   1.926   .     S
O913   Zn924   1.929   .     S
O914   Zn922   1.924   .     S
O915   Zn923   1.935   .     S
O916   Zn924   1.929   .     S
O917   Zn921   1.920   .     S
O918   Zn922   1.936   .     S
O919   Zn923   1.930   .     S
C925   C935    1.437   .     S
C925   O998    1.270   .     A
C925   O1000   1.270   .     A
C926   C955    1.420   .     A
C926   O995    1.400   .     S
C926   C927    1.422   .     A
C927   O993    1.382   .     S
C927   C173    1.409   1_556 S
C928   O999    1.282   .     A
C928   C934    1.454   .     S
C928   O1001   1.278   .     A
C929   C930    1.416   .     A
C929   C931    1.405   .     A
C930   C956    1.415   .     A
C930   C933    1.419   .     A
C931   C932    1.389   .     A
C931   H970    1.082   .     S
C932   C944    1.398   .     A
C932   H982    1.084   .     S
C933   S1004   1.789   .     S
C933   C944    1.408   .     A
C934   C767    1.335   1_655 S
C934   H810    1.087   1_655 S
C936   C945    1.391   .     A
C936   C943    1.400   .     A
C936   H984    1.083   .     S
C937   C940    1.451   .     S
C937   C1190   1.332   .     S
C937   H1232   1.088   .     S
C938   C939    1.435   .     S
C938   C1441   1.332   1_545 S
C938   H1485   1.086   1_545 S
C939   O996    1.277   .     A
C939   O1002   1.277   .     A
C940   O997    1.270   .     A
C940   O1003   1.270   .     A
C941   O988    1.275   .     A
C941   O986    1.273   .     A
C941   C944    1.462   .     S
C942   O989    1.282   .     A
C942   O987    1.282   .     A
C942   C943    1.470   .     S
C943   C947    1.407   .     A
C945   H983    1.084   .     S
C945   C954    1.402   .     A
C946   H962    1.112   .     S
C946   O993    1.416   .     S
C946   H963    1.114   .     S
C946   C780    1.521   1_655 S
C947   C953    1.414   .     A
C947   O994    1.384   .     S
C948   H966    1.110   .     S
C948   H965    1.109   .     S
C948   H964    1.110   .     S
C949   H967    1.113   .     S
C949   H968    1.116   .     S
C949   C950    1.522   .     S
C949   O994    1.412   .     S
C950   H969    1.111   .     S
C950   H972    1.109   .     S
C950   H971    1.110   .     S
C951   H974    1.105   .     S
C951   O995    1.413   .     S
C951   C952    1.526   .     S
C951   H973    1.111   .     S
C952   H975    1.108   .     S
C952   H977    1.110   .     S
C952   H976    1.111   .     S
C953   C954    1.419   .     A
C953   C955    1.428   .     A
C954   C202    1.392   1_556 S
C955   C200    1.419   1_556 S
C956   C957    1.409   .     A
C957   H960    1.080   .     S
C957   C958    1.387   .     A
C958   H959    1.084   .     S
H961   O992    0.990   .     S
H979   C767    1.086   1_655 S
H980   C1441   1.088   1_545 S
H981   C1190   1.086   .     S
O985   Zn1006  1.942   .     S
O985   Zn1007  1.932   .     S
O985   Zn1008  1.932   .     S
O985   Zn1005  1.961   .     S
O986   Zn1006  1.933   .     S
O987   Zn1008  1.944   .     S
O988   Zn1007  1.938   .     S
O989   Zn1005  1.929   .     S
O990   S1004   1.503   .     D
O991   S1004   1.503   .     D
O992   S1004   1.682   .     S
O996   Zn1005  1.926   .     S
O997   Zn1008  1.929   .     S
O998   Zn1006  1.924   .     S
O999   Zn1007  1.935   .     S
O1000  Zn1008  1.929   .     S
O1001  Zn1005  1.920   .     S
O1002  Zn1006  1.936   .     S
O1003  Zn1007  1.930   .     S
C1009  C1019   1.437   .     S
C1009  O1082   1.270   .     A
C1009  O1084   1.270   .     A
C1010  C1039   1.420   .     A
C1010  O1079   1.400   .     S
C1010  C1011   1.422   .     A
C1011  O1077   1.382   .     S
C1011  C257    1.409   1_556 S
C1012  O1083   1.282   .     A
C1012  C1018   1.454   .     S
C1012  O1085   1.278   .     A
C1013  C1014   1.416   .     A
C1013  C1015   1.405   .     A
C1014  C1040   1.415   .     A
C1014  C1017   1.419   .     A
C1015  C1016   1.389   .     A
C1015  H1054   1.082   .     S
C1016  C1028   1.398   .     A
C1016  H1066   1.084   .     S
C1017  S1088   1.789   .     S
C1017  C1028   1.408   .     A
C1018  C1103   1.335   .     S
C1018  H1146   1.087   .     S
C1019  C1186   1.335   1_455 S
C1019  H1231   1.086   1_455 S
C1020  C1029   1.391   .     A
C1020  C1027   1.400   .     A
C1020  H1068   1.083   .     S
C1021  C1024   1.451   .     S
C1021  C1274   1.332   .     S
C1021  H1316   1.088   .     S
C1022  C1023   1.435   .     S
C1023  O1080   1.277   .     A
C1023  O1086   1.277   .     A
C1024  O1081   1.270   .     A
C1024  O1087   1.270   .     A
C1025  O1072   1.275   .     A
C1025  O1070   1.273   .     A
C1025  C1028   1.462   .     S
C1026  O1073   1.282   .     A
C1026  O1071   1.282   .     A
C1026  C1027   1.470   .     S
C1027  C1031   1.407   .     A
C1029  H1067   1.084   .     S
C1029  C1038   1.402   .     A
C1030  H1046   1.112   .     S
C1030  O1077   1.416   .     S
C1030  H1047   1.114   .     S
C1030  C1116   1.521   .     S
C1031  C1037   1.414   .     A
C1031  O1078   1.384   .     S
C1032  H1050   1.110   .     S
C1032  H1049   1.109   .     S
C1032  H1048   1.110   .     S
C1032  C1198   1.521   1_455 S
C1033  H1051   1.113   .     S
C1033  H1052   1.116   .     S
C1033  C1034   1.522   .     S
C1033  O1078   1.412   .     S
C1034  H1053   1.111   .     S
C1034  H1056   1.109   .     S
C1034  H1055   1.110   .     S
C1035  H1058   1.105   .     S
C1035  O1079   1.413   .     S
C1035  C1036   1.526   .     S
C1035  H1057   1.111   .     S
C1036  H1059   1.108   .     S
C1036  H1061   1.110   .     S
C1036  H1060   1.111   .     S
C1037  C1038   1.419   .     A
C1037  C1039   1.428   .     A
C1038  C286    1.392   1_556 S
C1039  C284    1.419   1_556 S
C1040  C1041   1.409   .     A
C1041  H1044   1.080   .     S
C1041  C1042   1.387   .     A
C1042  H1043   1.084   .     S
H1045  O1076   0.990   .     S
H1062  C1186   1.087   1_455 S
H1063  C1103   1.086   .     S
H1065  C1274   1.086   .     S
O1069  Zn1090  1.942   .     S
O1069  Zn1091  1.932   .     S
O1069  Zn1092  1.932   .     S
O1069  Zn1089  1.961   .     S
O1070  Zn1090  1.933   .     S
O1071  Zn1092  1.944   .     S
O1072  Zn1091  1.938   .     S
O1073  Zn1089  1.929   .     S
O1074  S1088   1.503   .     D
O1075  S1088   1.503   .     D
O1076  S1088   1.682   .     S
O1080  Zn1089  1.926   .     S
O1081  Zn1092  1.929   .     S
O1082  Zn1090  1.924   .     S
O1083  Zn1091  1.935   .     S
O1084  Zn1092  1.929   .     S
O1085  Zn1089  1.920   .     S
O1086  Zn1090  1.936   .     S
O1087  Zn1091  1.930   .     S
C1093  C1103   1.437   .     S
C1093  O1166   1.270   .     A
C1093  O1168   1.270   .     A
C1094  C1123   1.420   .     A
C1094  O1163   1.400   .     S
C1094  C1095   1.422   .     A
C1095  O1161   1.382   .     S
C1095  C341    1.409   1_556 S
C1096  O1167   1.282   .     A
C1096  C1102   1.454   .     S
C1096  O1169   1.278   .     A
C1097  C1098   1.416   .     A
C1097  C1099   1.405   .     A
C1098  C1124   1.415   .     A
C1098  C1101   1.419   .     A
C1099  C1100   1.389   .     A
C1099  H1138   1.082   .     S
C1100  C1112   1.398   .     A
C1100  H1150   1.084   .     S
C1101  S1172   1.789   .     S
C1101  C1112   1.408   .     A
C1102  C1187   1.335   .     S
C1102  H1230   1.087   .     S
C1104  C1113   1.391   .     A
C1104  C1111   1.400   .     A
C1104  H1152   1.083   .     S
C1105  C1108   1.451   .     S
C1105  C1358   1.332   .     S
C1105  H1400   1.088   .     S
C1106  C1107   1.435   .     S
C1107  O1164   1.277   .     A
C1107  O1170   1.277   .     A
C1108  O1165   1.270   .     A
C1108  O1171   1.270   .     A
C1109  O1156   1.275   .     A
C1109  O1154   1.273   .     A
C1109  C1112   1.462   .     S
C1110  O1157   1.282   .     A
C1110  O1155   1.282   .     A
C1110  C1111   1.470   .     S
C1111  C1115   1.407   .     A
C1113  H1151   1.084   .     S
C1113  C1122   1.402   .     A
C1114  H1130   1.112   .     S
C1114  O1161   1.416   .     S
C1114  H1131   1.114   .     S
C1114  C1200   1.521   .     S
C1115  C1121   1.414   .     A
C1115  O1162   1.384   .     S
C1116  H1134   1.110   .     S
C1116  H1133   1.109   .     S
C1116  H1132   1.110   .     S
C1117  H1135   1.113   .     S
C1117  H1136   1.116   .     S
C1117  C1118   1.522   .     S
C1117  O1162   1.412   .     S
C1118  H1137   1.111   .     S
C1118  H1140   1.109   .     S
C1118  H1139   1.110   .     S
C1119  H1142   1.105   .     S
C1119  O1163   1.413   .     S
C1119  C1120   1.526   .     S
C1119  H1141   1.111   .     S
C1120  H1143   1.108   .     S
C1120  H1145   1.110   .     S
C1120  H1144   1.111   .     S
C1121  C1122   1.419   .     A
C1121  C1123   1.428   .     A
C1122  C370    1.392   1_556 S
C1123  C368    1.419   1_556 S
C1124  C1125   1.409   .     A
C1125  H1128   1.080   .     S
C1125  C1126   1.387   .     A
C1126  H1127   1.084   .     S
H1129  O1160   0.990   .     S
H1147  C1187   1.086   .     S
H1149  C1358   1.086   .     S
O1153  Zn1174  1.942   .     S
O1153  Zn1175  1.932   .     S
O1153  Zn1176  1.932   .     S
O1153  Zn1173  1.961   .     S
O1154  Zn1174  1.933   .     S
O1155  Zn1176  1.944   .     S
O1156  Zn1175  1.938   .     S
O1157  Zn1173  1.929   .     S
O1158  S1172   1.503   .     D
O1159  S1172   1.503   .     D
O1160  S1172   1.682   .     S
O1164  Zn1173  1.926   .     S
O1165  Zn1176  1.929   .     S
O1166  Zn1174  1.924   .     S
O1167  Zn1175  1.935   .     S
O1168  Zn1176  1.929   .     S
O1169  Zn1173  1.920   .     S
O1170  Zn1174  1.936   .     S
O1171  Zn1175  1.930   .     S
C1177  C1187   1.437   .     S
C1177  O1250   1.270   .     A
C1177  O1252   1.270   .     A
C1178  C1207   1.420   .     A
C1178  O1247   1.400   .     S
C1178  C1179   1.422   .     A
C1179  O1245   1.382   .     S
C1179  C425    1.409   1_556 S
C1180  O1251   1.282   .     A
C1180  C1186   1.454   .     S
C1180  O1253   1.278   .     A
C1181  C1182   1.416   .     A
C1181  C1183   1.405   .     A
C1182  C1208   1.415   .     A
C1182  C1185   1.419   .     A
C1183  C1184   1.389   .     A
C1183  H1222   1.082   .     S
C1184  C1196   1.398   .     A
C1184  H1234   1.084   .     S
C1185  S1256   1.789   .     S
C1185  C1196   1.408   .     A
C1186  C1019   1.335   1_655 S
C1186  H1062   1.087   1_655 S
C1188  C1197   1.391   .     A
C1188  C1195   1.400   .     A
C1188  H1236   1.083   .     S
C1189  C1192   1.451   .     S
C1189  C1442   1.332   .     S
C1189  H1484   1.088   .     S
C1190  C1191   1.435   .     S
C1191  O1248   1.277   .     A
C1191  O1254   1.277   .     A
C1192  O1249   1.270   .     A
C1192  O1255   1.270   .     A
C1193  O1240   1.275   .     A
C1193  O1238   1.273   .     A
C1193  C1196   1.462   .     S
C1194  O1241   1.282   .     A
C1194  O1239   1.282   .     A
C1194  C1195   1.470   .     S
C1195  C1199   1.407   .     A
C1197  H1235   1.084   .     S
C1197  C1206   1.402   .     A
C1198  H1214   1.112   .     S
C1198  O1245   1.416   .     S
C1198  H1215   1.114   .     S
C1198  C1032   1.521   1_655 S
C1199  C1205   1.414   .     A
C1199  O1246   1.384   .     S
C1200  H1218   1.110   .     S
C1200  H1217   1.109   .     S
C1200  H1216   1.110   .     S
C1201  H1219   1.113   .     S
C1201  H1220   1.116   .     S
C1201  C1202   1.522   .     S
C1201  O1246   1.412   .     S
C1202  H1221   1.111   .     S
C1202  H1224   1.109   .     S
C1202  H1223   1.110   .     S
C1203  H1226   1.105   .     S
C1203  O1247   1.413   .     S
C1203  C1204   1.526   .     S
C1203  H1225   1.111   .     S
C1204  H1227   1.108   .     S
C1204  H1229   1.110   .     S
C1204  H1228   1.111   .     S
C1205  C1206   1.419   .     A
C1205  C1207   1.428   .     A
C1206  C454    1.392   1_556 S
C1207  C452    1.419   1_556 S
C1208  C1209   1.409   .     A
C1209  H1212   1.080   .     S
C1209  C1210   1.387   .     A
C1210  H1211   1.084   .     S
H1213  O1244   0.990   .     S
H1231  C1019   1.086   1_655 S
H1233  C1442   1.086   .     S
O1237  Zn1258  1.942   .     S
O1237  Zn1259  1.932   .     S
O1237  Zn1260  1.932   .     S
O1237  Zn1257  1.961   .     S
O1238  Zn1258  1.933   .     S
O1239  Zn1260  1.944   .     S
O1240  Zn1259  1.938   .     S
O1241  Zn1257  1.929   .     S
O1242  S1256   1.503   .     D
O1243  S1256   1.503   .     D
O1244  S1256   1.682   .     S
O1248  Zn1257  1.926   .     S
O1249  Zn1260  1.929   .     S
O1250  Zn1258  1.924   .     S
O1251  Zn1259  1.935   .     S
O1252  Zn1260  1.929   .     S
O1253  Zn1257  1.920   .     S
O1254  Zn1258  1.936   .     S
O1255  Zn1259  1.930   .     S
C1261  C1271   1.437   .     S
C1261  O1334   1.270   .     A
C1261  O1336   1.270   .     A
C1262  C1291   1.420   .     A
C1262  O1331   1.400   .     S
C1262  C1263   1.422   .     A
C1263  O1329   1.382   .     S
C1263  C509    1.409   1_556 S
C1264  O1335   1.282   .     A
C1264  C1270   1.454   .     S
C1264  O1337   1.278   .     A
C1265  C1266   1.416   .     A
C1265  C1267   1.405   .     A
C1266  C1292   1.415   .     A
C1266  C1269   1.419   .     A
C1267  C1268   1.389   .     A
C1267  H1306   1.082   .     S
C1268  C1280   1.398   .     A
C1268  H1318   1.084   .     S
C1269  S1340   1.789   .     S
C1269  C1280   1.408   .     A
C1270  C1355   1.335   .     S
C1270  H1398   1.087   .     S
C1271  C1438   1.335   1_455 S
C1271  H1483   1.086   1_455 S
C1272  C1281   1.391   .     A
C1272  C1279   1.400   .     A
C1272  H1320   1.083   .     S
C1273  C1276   1.451   .     S
C1273  C770    1.332   1_565 S
C1273  H812    1.088   1_565 S
C1274  C1275   1.435   .     S
C1275  O1332   1.277   .     A
C1275  O1338   1.277   .     A
C1276  O1333   1.270   .     A
C1276  O1339   1.270   .     A
C1277  O1324   1.275   .     A
C1277  O1322   1.273   .     A
C1277  C1280   1.462   .     S
C1278  O1325   1.282   .     A
C1278  O1323   1.282   .     A
C1278  C1279   1.470   .     S
C1279  C1283   1.407   .     A
C1281  H1319   1.084   .     S
C1281  C1290   1.402   .     A
C1282  H1298   1.112   .     S
C1282  O1329   1.416   .     S
C1282  H1299   1.114   .     S
C1282  C1368   1.521   .     S
C1283  C1289   1.414   .     A
C1283  O1330   1.384   .     S
C1284  H1302   1.110   .     S
C1284  H1301   1.109   .     S
C1284  H1300   1.110   .     S
C1284  C1450   1.521   1_455 S
C1285  H1303   1.113   .     S
C1285  H1304   1.116   .     S
C1285  C1286   1.522   .     S
C1285  O1330   1.412   .     S
C1286  H1305   1.111   .     S
C1286  H1308   1.109   .     S
C1286  H1307   1.110   .     S
C1287  H1310   1.105   .     S
C1287  O1331   1.413   .     S
C1287  C1288   1.526   .     S
C1287  H1309   1.111   .     S
C1288  H1311   1.108   .     S
C1288  H1313   1.110   .     S
C1288  H1312   1.111   .     S
C1289  C1290   1.419   .     A
C1289  C1291   1.428   .     A
C1290  C538    1.392   1_556 S
C1291  C536    1.419   1_556 S
C1292  C1293   1.409   .     A
C1293  H1296   1.080   .     S
C1293  C1294   1.387   .     A
C1294  H1295   1.084   .     S
H1297  O1328   0.990   .     S
H1314  C1438   1.087   1_455 S
H1315  C1355   1.086   .     S
H1317  C770    1.086   1_565 S
O1321  Zn1342  1.942   .     S
O1321  Zn1343  1.932   .     S
O1321  Zn1344  1.932   .     S
O1321  Zn1341  1.961   .     S
O1322  Zn1342  1.933   .     S
O1323  Zn1344  1.944   .     S
O1324  Zn1343  1.938   .     S
O1325  Zn1341  1.929   .     S
O1326  S1340   1.503   .     D
O1327  S1340   1.503   .     D
O1328  S1340   1.682   .     S
O1332  Zn1341  1.926   .     S
O1333  Zn1344  1.929   .     S
O1334  Zn1342  1.924   .     S
O1335  Zn1343  1.935   .     S
O1336  Zn1344  1.929   .     S
O1337  Zn1341  1.920   .     S
O1338  Zn1342  1.936   .     S
O1339  Zn1343  1.930   .     S
C1345  C1355   1.437   .     S
C1345  O1418   1.270   .     A
C1345  O1420   1.270   .     A
C1346  C1375   1.420   .     A
C1346  O1415   1.400   .     S
C1346  C1347   1.422   .     A
C1347  O1413   1.382   .     S
C1347  C593    1.409   1_556 S
C1348  O1419   1.282   .     A
C1348  C1354   1.454   .     S
C1348  O1421   1.278   .     A
C1349  C1350   1.416   .     A
C1349  C1351   1.405   .     A
C1350  C1376   1.415   .     A
C1350  C1353   1.419   .     A
C1351  C1352   1.389   .     A
C1351  H1390   1.082   .     S
C1352  C1364   1.398   .     A
C1352  H1402   1.084   .     S
C1353  S1424   1.789   .     S
C1353  C1364   1.408   .     A
C1354  C1439   1.335   .     S
C1354  H1482   1.087   .     S
C1356  C1365   1.391   .     A
C1356  C1363   1.400   .     A
C1356  H1404   1.083   .     S
C1357  C1360   1.451   .     S
C1357  C854    1.332   1_565 S
C1357  H896    1.088   1_565 S
C1358  C1359   1.435   .     S
C1359  O1416   1.277   .     A
C1359  O1422   1.277   .     A
C1360  O1417   1.270   .     A
C1360  O1423   1.270   .     A
C1361  O1408   1.275   .     A
C1361  O1406   1.273   .     A
C1361  C1364   1.462   .     S
C1362  O1409   1.282   .     A
C1362  O1407   1.282   .     A
C1362  C1363   1.470   .     S
C1363  C1367   1.407   .     A
C1365  H1403   1.084   .     S
C1365  C1374   1.402   .     A
C1366  H1382   1.112   .     S
C1366  O1413   1.416   .     S
C1366  H1383   1.114   .     S
C1366  C1452   1.521   .     S
C1367  C1373   1.414   .     A
C1367  O1414   1.384   .     S
C1368  H1386   1.110   .     S
C1368  H1385   1.109   .     S
C1368  H1384   1.110   .     S
C1369  H1387   1.113   .     S
C1369  H1388   1.116   .     S
C1369  C1370   1.522   .     S
C1369  O1414   1.412   .     S
C1370  H1389   1.111   .     S
C1370  H1392   1.109   .     S
C1370  H1391   1.110   .     S
C1371  H1394   1.105   .     S
C1371  O1415   1.413   .     S
C1371  C1372   1.526   .     S
C1371  H1393   1.111   .     S
C1372  H1395   1.108   .     S
C1372  H1397   1.110   .     S
C1372  H1396   1.111   .     S
C1373  C1374   1.419   .     A
C1373  C1375   1.428   .     A
C1374  C622    1.392   1_556 S
C1375  C620    1.419   1_556 S
C1376  C1377   1.409   .     A
C1377  H1380   1.080   .     S
C1377  C1378   1.387   .     A
C1378  H1379   1.084   .     S
H1381  O1412   0.990   .     S
H1399  C1439   1.086   .     S
H1401  C854    1.086   1_565 S
O1405  Zn1426  1.942   .     S
O1405  Zn1427  1.932   .     S
O1405  Zn1428  1.932   .     S
O1405  Zn1425  1.961   .     S
O1406  Zn1426  1.933   .     S
O1407  Zn1428  1.944   .     S
O1408  Zn1427  1.938   .     S
O1409  Zn1425  1.929   .     S
O1410  S1424   1.503   .     D
O1411  S1424   1.503   .     D
O1412  S1424   1.682   .     S
O1416  Zn1425  1.926   .     S
O1417  Zn1428  1.929   .     S
O1418  Zn1426  1.924   .     S
O1419  Zn1427  1.935   .     S
O1420  Zn1428  1.929   .     S
O1421  Zn1425  1.920   .     S
O1422  Zn1426  1.936   .     S
O1423  Zn1427  1.930   .     S
C1429  C1439   1.437   .     S
C1429  O1502   1.270   .     A
C1429  O1504   1.270   .     A
C1430  C1459   1.420   .     A
C1430  O1499   1.400   .     S
C1430  C1431   1.422   .     A
C1431  O1497   1.382   .     S
C1431  C677    1.409   1_556 S
C1432  O1503   1.282   .     A
C1432  C1438   1.454   .     S
C1432  O1505   1.278   .     A
C1433  C1434   1.416   .     A
C1433  C1435   1.405   .     A
C1434  C1460   1.415   .     A
C1434  C1437   1.419   .     A
C1435  C1436   1.389   .     A
C1435  H1474   1.082   .     S
C1436  C1448   1.398   .     A
C1436  H1486   1.084   .     S
C1437  S1508   1.789   .     S
C1437  C1448   1.408   .     A
C1438  C1271   1.335   1_655 S
C1438  H1314   1.087   1_655 S
C1440  C1449   1.391   .     A
C1440  C1447   1.400   .     A
C1440  H1488   1.083   .     S
C1441  C1444   1.451   .     S
C1441  C938    1.332   1_565 S
C1441  H980    1.088   1_565 S
C1442  C1443   1.435   .     S
C1443  O1500   1.277   .     A
C1443  O1506   1.277   .     A
C1444  O1501   1.270   .     A
C1444  O1507   1.270   .     A
C1445  O1492   1.275   .     A
C1445  O1490   1.273   .     A
C1445  C1448   1.462   .     S
C1446  O1493   1.282   .     A
C1446  O1491   1.282   .     A
C1446  C1447   1.470   .     S
C1447  C1451   1.407   .     A
C1449  H1487   1.084   .     S
C1449  C1458   1.402   .     A
C1450  H1466   1.112   .     S
C1450  O1497   1.416   .     S
C1450  H1467   1.114   .     S
C1450  C1284   1.521   1_655 S
C1451  C1457   1.414   .     A
C1451  O1498   1.384   .     S
C1452  H1470   1.110   .     S
C1452  H1469   1.109   .     S
C1452  H1468   1.110   .     S
C1453  H1471   1.113   .     S
C1453  H1472   1.116   .     S
C1453  C1454   1.522   .     S
C1453  O1498   1.412   .     S
C1454  H1473   1.111   .     S
C1454  H1476   1.109   .     S
C1454  H1475   1.110   .     S
C1455  H1478   1.105   .     S
C1455  O1499   1.413   .     S
C1455  C1456   1.526   .     S
C1455  H1477   1.111   .     S
C1456  H1479   1.108   .     S
C1456  H1481   1.110   .     S
C1456  H1480   1.111   .     S
C1457  C1458   1.419   .     A
C1457  C1459   1.428   .     A
C1458  C706    1.392   1_556 S
C1459  C704    1.419   1_556 S
C1460  C1461   1.409   .     A
C1461  H1464   1.080   .     S
C1461  C1462   1.387   .     A
C1462  H1463   1.084   .     S
H1465  O1496   0.990   .     S
H1483  C1271   1.086   1_655 S
H1485  C938    1.086   1_565 S
O1489  Zn1510  1.942   .     S
O1489  Zn1511  1.932   .     S
O1489  Zn1512  1.932   .     S
O1489  Zn1509  1.961   .     S
O1490  Zn1510  1.933   .     S
O1491  Zn1512  1.944   .     S
O1492  Zn1511  1.938   .     S
O1493  Zn1509  1.929   .     S
O1494  S1508   1.503   .     D
O1495  S1508   1.503   .     D
O1496  S1508   1.682   .     S
O1500  Zn1509  1.926   .     S
O1501  Zn1512  1.929   .     S
O1502  Zn1510  1.924   .     S
O1503  Zn1511  1.935   .     S
O1504  Zn1512  1.929   .     S
O1505  Zn1509  1.920   .     S
O1506  Zn1510  1.936   .     S
O1507  Zn1511  1.930   .     S
