data_str_m1_o1_o2_pcu_sym.51
_audit_creation_date              2020-01-03
_audit_creation_method            'Materials Studio'
_symmetry_space_group_name_H-M    'P1'
_symmetry_Int_Tables_number       1
_symmetry_cell_setting            triclinic
loop_
_symmetry_equiv_pos_as_xyz
  x,y,z
_cell_length_a                    36.6080
_cell_length_b                    36.7493
_cell_length_c                    34.4808
_cell_angle_alpha                 89.9932
_cell_angle_beta                  89.9713
_cell_angle_gamma                 90.0159
loop_
_atom_site_label
_atom_site_type_symbol
_atom_site_fract_x
_atom_site_fract_y
_atom_site_fract_z
_atom_site_U_iso_or_equiv
_atom_site_adp_type
_atom_site_occupancy
C1     C     0.24389   0.03238   0.04244   0.00000  Uiso   1.00
C2     C     0.02202   0.22566   0.45851   0.00000  Uiso   1.00
C3     C     0.35251   0.40598   0.74426   0.00000  Uiso   1.00
C4     C     0.40565   0.14786   0.25638   0.00000  Uiso   1.00
C5     C     0.09603   0.35128   0.74609   0.00000  Uiso   1.00
C6     C     0.35158   0.40432   0.25332   0.00000  Uiso   1.00
C7     C     0.14747   0.09396   0.74412   0.00000  Uiso   1.00
C8     C     0.10134   0.15400   0.75313   0.00000  Uiso   1.00
C9     C     0.39752   0.34410   0.24441   0.00000  Uiso   1.00
C10    C     0.15568   0.39786   0.75641   0.00000  Uiso   1.00
C11    C     0.34584   0.10146   0.24593   0.00000  Uiso   1.00
C12    C     0.39857   0.34588   0.75339   0.00000  Uiso   1.00
C13    C     0.22676   0.47678   0.54159   0.00000  Uiso   1.00
C14    C     0.10266   0.15613   0.24423   0.00000  Uiso   1.00
C15    C     0.34444   0.10210   0.75616   0.00000  Uiso   1.00
C16    C     0.15411   0.39861   0.24603   0.00000  Uiso   1.00
C17    C     0.25001  -0.00000   0.10308   0.00000  Uiso   1.00
C18    C     0.24997   0.49999   0.89753   0.00000  Uiso   1.00
C19    C     0.49983   0.25010   0.10258   0.00000  Uiso   1.00
C20    C     0.49993   0.25002   0.89685   0.00000  Uiso   1.00
C21    C     0.49981   0.24987   0.60310   0.00000  Uiso   1.00
C22    C     0.49998   0.25006   0.39753   0.00000  Uiso   1.00
C23    C     0.25015   0.49992   0.60252   0.00000  Uiso   1.00
C24    C     0.21827   0.49138   0.45752   0.00000  Uiso   1.00
C25    C     0.25008   0.49989   0.39683   0.00000  Uiso   1.00
C26    C     0.00453   0.21743   0.54234   0.00000  Uiso   1.00
C27    C     0.47797   0.27463   0.45847   0.00000  Uiso   1.00
C28    C     0.27394   0.02276   0.54159   0.00000  Uiso   1.00
C29    C     0.28223   0.00831   0.45731   0.00000  Uiso   1.00
C30    C     0.24302   0.03260   0.08283   0.00000  Uiso   1.00
C31    C     0.27174   0.47468   0.91811   0.00000  Uiso   1.00
C32    C     0.47416   0.22874   0.08201   0.00000  Uiso   1.00
C33    C     0.27257   0.47602   0.95847   0.00000  Uiso   1.00
C34    C     0.46791   0.24027   0.91707   0.00000  Uiso   1.00
C35    C     0.25696   0.46738   0.08284   0.00000  Uiso   1.00
C36    C     0.22818   0.02528   0.91813   0.00000  Uiso   1.00
C37    C     0.02533   0.27167   0.08200   0.00000  Uiso   1.00
C38    C     0.03187   0.25987   0.91711   0.00000  Uiso   1.00
C39    C     0.49389   0.28273   0.58290   0.00000  Uiso   1.00
C40    C     0.02123   0.22435   0.41814   0.00000  Uiso   1.00
C41    C     0.22509   0.47787   0.58192   0.00000  Uiso   1.00
C42    C     0.21815   0.49011   0.41718   0.00000  Uiso   1.00
C43    C     0.00513   0.21697   0.58273   0.00000  Uiso   1.00
C44    C     0.47577   0.22764   0.04169   0.00000  Uiso   1.00
C45    C     0.47874   0.27583   0.41809   0.00000  Uiso   1.00
C46    C     0.27541   0.02179   0.58193   0.00000  Uiso   1.00
C47    C     0.28218   0.00947   0.41693   0.00000  Uiso   1.00
C48    C     0.24998   0.49999   0.02190   0.00000  Uiso   1.00
C49    C     0.24997   0.49998   0.97902   0.00000  Uiso   1.00
C50    C     0.49977   0.25020   0.02105   0.00000  Uiso   1.00
C51    C     0.49981   0.25018   0.97807   0.00000  Uiso   1.00
C52    C     0.49987   0.25009   0.52189   0.00000  Uiso   1.00
C53    C     0.49999   0.25016   0.47902   0.00000  Uiso   1.00
C54    C     0.25035   0.49979   0.52098   0.00000  Uiso   1.00
C55    C     0.46785   0.24172   0.95742   0.00000  Uiso   1.00
C56    C     0.25030   0.49985   0.47803   0.00000  Uiso   1.00
C57    C     0.24993   0.49998   0.35487   0.00000  Uiso   1.00
C58    C     0.25003   0.49999   0.64490   0.00000  Uiso   1.00
C59    C     0.49999   0.25001   0.35516   0.00000  Uiso   1.00
C60    C     0.49998   0.25000   0.64506   0.00000  Uiso   1.00
C61    C     0.49998   0.25000   0.85487   0.00000  Uiso   1.00
C62    C     0.49996   0.25001   0.14492   0.00000  Uiso   1.00
C63    C     0.24999   0.00000   0.85516   0.00000  Uiso   1.00
C64    C     0.25001   0.00001   0.14507   0.00000  Uiso   1.00
C65    C     0.17849   0.06886   0.25176   0.00000  Uiso   1.00
C66    C     0.25608   0.46760   0.04245   0.00000  Uiso   1.00
C67    C     0.32168   0.43162   0.74768   0.00000  Uiso   1.00
C68    C     0.43157   0.17839   0.25251   0.00000  Uiso   1.00
C69    C     0.06889   0.32145   0.74803   0.00000  Uiso   1.00
C70    C     0.32153   0.43118   0.25176   0.00000  Uiso   1.00
C71    C     0.17831   0.06835   0.74765   0.00000  Uiso   1.00
C72    C     0.06844   0.32159   0.25250   0.00000  Uiso   1.00
C73    C     0.43118   0.17851   0.74801   0.00000  Uiso   1.00
C74    C     0.18157   0.42840   0.75251   0.00000  Uiso   1.00
C75    C     0.31885   0.07149   0.24798   0.00000  Uiso   1.00
C76    C     0.42850   0.31886   0.75178   0.00000  Uiso   1.00
C77    C     0.22737   0.02393   0.95849   0.00000  Uiso   1.00
C78    C     0.07171   0.18165   0.24768   0.00000  Uiso   1.00
C79    C     0.31846   0.07159   0.75245   0.00000  Uiso   1.00
C80    C     0.18115   0.42852   0.24801   0.00000  Uiso   1.00
C81    C     0.07148   0.18110   0.75171   0.00000  Uiso   1.00
C82    C     0.42832   0.31841   0.24774   0.00000  Uiso   1.00
C83    C     0.12263   0.40236   0.22252   0.00000  Uiso   1.00
C84    C     0.37497   0.09894   0.78084   0.00000  Uiso   1.00
C85    C     0.10099   0.12741   0.21739   0.00000  Uiso   1.00
C86    C     0.40133   0.37589   0.77898   0.00000  Uiso   1.00
C87    C     0.37730   0.09781   0.22234   0.00000  Uiso   1.00
C88    C     0.02373   0.27281   0.04168   0.00000  Uiso   1.00
C89    C     0.12497   0.40113   0.78081   0.00000  Uiso   1.00
C90    C     0.39928   0.37281   0.21749   0.00000  Uiso   1.00
C91    C     0.09858   0.12401   0.77875   0.00000  Uiso   1.00
C92    C     0.11816   0.09229   0.77054   0.00000  Uiso   1.00
C93    C     0.37983   0.40488   0.22499   0.00000  Uiso   1.00
C94    C     0.09348   0.38104   0.77218   0.00000  Uiso   1.00
C95    C     0.40875   0.11749   0.23174   0.00000  Uiso   1.00
C96    C     0.38178   0.40764   0.77072   0.00000  Uiso   1.00
C97    C     0.12028   0.09530   0.22505   0.00000  Uiso   1.00
C98    C     0.40654   0.11898   0.77234   0.00000  Uiso   1.00
C99    C     0.03182   0.25858   0.95746   0.00000  Uiso   1.00
C100   C     0.09124   0.38254   0.23187   0.00000  Uiso   1.00
C101   C     0.37299   0.15214   0.72214   0.00000  Uiso   1.00
C102   C     0.12510   0.34879   0.28079   0.00000  Uiso   1.00
C103   C     0.35052   0.37698   0.71773   0.00000  Uiso   1.00
C104   C     0.15124   0.12576   0.27908   0.00000  Uiso   1.00
C105   C     0.12761   0.34740   0.72270   0.00000  Uiso   1.00
C106   C     0.37494   0.15115   0.28081   0.00000  Uiso   1.00
C107   C     0.14949   0.12294   0.71752   0.00000  Uiso   1.00
C108   C     0.34912   0.37465   0.27937   0.00000  Uiso   1.00
C109   C     0.36854   0.34279   0.27130   0.00000  Uiso   1.00
C110   C     0.49483   0.28260   0.54250   0.00000  Uiso   1.00
C111   C     0.12984   0.15486   0.72512   0.00000  Uiso   1.00
C112   C     0.34340   0.13110   0.27219   0.00000  Uiso   1.00
C113   C     0.15894   0.36734   0.73200   0.00000  Uiso   1.00
C114   C     0.13173   0.15757   0.27097   0.00000  Uiso   1.00
C115   C     0.37005   0.34502   0.72544   0.00000  Uiso   1.00
C116   C     0.15661   0.36889   0.27219   0.00000  Uiso   1.00
C117   C     0.34153   0.13236   0.73130   0.00000  Uiso   1.00
C118   C     0.09439   0.35209   0.25638   0.00000  Uiso   1.00
C119   C     0.40422   0.14856   0.74600   0.00000  Uiso   1.00
C120   C     0.14857   0.09589   0.25328   0.00000  Uiso   1.00
H121   H     0.23992   0.05771   0.02705   0.00000  Uiso   1.00
H122   H     0.03993   0.20728   0.47396   0.00000  Uiso   1.00
H123   H     0.20930   0.45786   0.52637   0.00000  Uiso   1.00
H124   H     0.19313   0.48586   0.47283   0.00000  Uiso   1.00
H125   H     0.00753   0.19198   0.52688   0.00000  Uiso   1.00
H126   H     0.46000   0.29299   0.47386   0.00000  Uiso   1.00
H127   H     0.29152   0.04160   0.52637   0.00000  Uiso   1.00
H128   H     0.30745   0.01393   0.47245   0.00000  Uiso   1.00
H129   H     0.16693   0.43908   0.13565   0.00000  Uiso   1.00
H130   H     0.32473   0.06556   0.86533   0.00000  Uiso   1.00
H131   H     0.07168   0.18330   0.13534   0.00000  Uiso   1.00
H132   H     0.29099   0.45810   0.97384   0.00000  Uiso   1.00
H133   H     0.43258   0.32645   0.86490   0.00000  Uiso   1.00
H134   H     0.33338   0.05988   0.13577   0.00000  Uiso   1.00
H135   H     0.17464   0.43488   0.86544   0.00000  Uiso   1.00
H136   H     0.42890   0.31704   0.13553   0.00000  Uiso   1.00
H137   H     0.10895   0.17771   0.84051   0.00000  Uiso   1.00
H138   H     0.09554   0.49601   0.75855   0.00000  Uiso   1.00
H139   H     0.35916   0.47582   0.16886   0.00000  Uiso   1.00
H140   H     0.49724   0.40461   0.75973   0.00000  Uiso   1.00
H141   H     0.47755   0.13040   0.17944   0.00000  Uiso   1.00
H142   H     0.40406   0.00406   0.75879   0.00000  Uiso   1.00
H143   H     0.45789   0.20904   0.02654   0.00000  Uiso   1.00
H144   H     0.14085   0.02583   0.16857   0.00000  Uiso   1.00
H145   H     0.00272   0.09505   0.76040   0.00000  Uiso   1.00
H146   H     0.02357   0.41125   0.16583   0.00000  Uiso   1.00
H147   H     0.41848   0.18736   0.63532   0.00000  Uiso   1.00
H148   H     0.07540   0.31501   0.36546   0.00000  Uiso   1.00
H149   H     0.32167   0.43232   0.63526   0.00000  Uiso   1.00
H150   H     0.14065   0.07175   0.34049   0.00000  Uiso   1.00
H151   H     0.08383   0.31101   0.63548   0.00000  Uiso   1.00
H152   H     0.42464   0.18493   0.36542   0.00000  Uiso   1.00
H153   H     0.13829   0.06543   0.66004   0.00000  Uiso   1.00
H154   H     0.44262   0.23630   0.97259   0.00000  Uiso   1.00
H155   H     0.37809   0.36302   0.35830   0.00000  Uiso   1.00
H156   H     0.34455   0.24689   0.25939   0.00000  Uiso   1.00
H157   H     0.10509   0.19129   0.66275   0.00000  Uiso   1.00
H158   H     0.24686   0.15406   0.26054   0.00000  Uiso   1.00
H159   H     0.22703   0.33882   0.66636   0.00000  Uiso   1.00
H160   H     0.15532   0.25360   0.25915   0.00000  Uiso   1.00
H161   H     0.35783   0.28258   0.64787   0.00000  Uiso   1.00
H162   H     0.25368   0.34736   0.26119   0.00000  Uiso   1.00
H163   H     0.27409   0.16099   0.66492   0.00000  Uiso   1.00
H164   H     0.17385   0.06727   0.09936   0.00000  Uiso   1.00
H165   H     0.26004   0.44226   0.02707   0.00000  Uiso   1.00
H166   H     0.25233   0.41460   0.86597   0.00000  Uiso   1.00
H167   H     0.46445   0.15160   0.09465   0.00000  Uiso   1.00
H168   H     0.39368   0.20085   0.93691   0.00000  Uiso   1.00
H169   H     0.32603   0.43218   0.09851   0.00000  Uiso   1.00
H170   H     0.24750   0.08547   0.86600   0.00000  Uiso   1.00
H171   H     0.03155   0.34815   0.09941   0.00000  Uiso   1.00
H172   H     0.10597   0.29945   0.93689   0.00000  Uiso   1.00
H173   H     0.42529   0.31871   0.59854   0.00000  Uiso   1.00
H174   H     0.00092   0.16440   0.36587   0.00000  Uiso   1.00
H175   H     0.22022   0.40125   0.59902   0.00000  Uiso   1.00
H176   H     0.20895   0.04185   0.97388   0.00000  Uiso   1.00
H177   H     0.14393   0.45071   0.43723   0.00000  Uiso   1.00
H178   H     0.06734   0.16807   0.58134   0.00000  Uiso   1.00
H179   H     0.49864   0.33560   0.36542   0.00000  Uiso   1.00
H180   H     0.28108   0.09864   0.59803   0.00000  Uiso   1.00
H181   H     0.34866   0.01019   0.33804   0.00000  Uiso   1.00
H182   H     0.04153   0.29147   0.02650   0.00000  Uiso   1.00
H183   H     0.05701   0.26403   0.97266   0.00000  Uiso   1.00
H184   H     0.49166   0.30807   0.52716   0.00000  Uiso   1.00
O185   O     0.25000   0.00000   0.25000   0.00000  Uiso   1.00
O186   O     0.25000   0.46964   0.66317   0.00000  Uiso   1.00
O187   O     0.03250   0.38884   0.17866   0.00000  Uiso   1.00
O188   O     0.35089   0.15484   0.64746   0.00000  Uiso   1.00
O189   O     0.36409   0.21281   0.67946   0.00000  Uiso   1.00
O190   O     0.41849   0.17170   0.65871   0.00000  Uiso   1.00
O191   O     0.13183   0.28899   0.32547   0.00000  Uiso   1.00
O192   O     0.14400   0.34762   0.35660   0.00000  Uiso   1.00
O193   O     0.07678   0.33075   0.34218   0.00000  Uiso   1.00
O194   O     0.35359   0.36297   0.64083   0.00000  Uiso   1.00
O195   O     0.29313   0.37395   0.66890   0.00000  Uiso   1.00
O196   O     0.33644   0.42913   0.65908   0.00000  Uiso   1.00
O197   O     0.46964   0.25000   0.33683   0.00000  Uiso   1.00
O198   O     0.21023   0.13111   0.32552   0.00000  Uiso   1.00
O199   O     0.15105   0.14409   0.35516   0.00000  Uiso   1.00
O200   O     0.16718   0.07704   0.34082   0.00000  Uiso   1.00
O201   O     0.15095   0.34382   0.64845   0.00000  Uiso   1.00
O202   O     0.13737   0.28623   0.68104   0.00000  Uiso   1.00
O203   O     0.08330   0.32691   0.65867   0.00000  Uiso   1.00
O204   O     0.36820   0.21093   0.32552   0.00000  Uiso   1.00
O205   O     0.35606   0.15228   0.35665   0.00000  Uiso   1.00
O206   O     0.42326   0.16918   0.34215   0.00000  Uiso   1.00
O207   O     0.14782   0.13719   0.64035   0.00000  Uiso   1.00
O208   O     0.03036   0.25000   0.66317   0.00000  Uiso   1.00
O209   O     0.20757   0.12606   0.66952   0.00000  Uiso   1.00
O210   O     0.16473   0.07102   0.65859   0.00000  Uiso   1.00
O211   O     0.33314   0.41916   0.33941   0.00000  Uiso   1.00
O212   O     0.29062   0.36931   0.32662   0.00000  Uiso   1.00
O213   O     0.35252   0.35420   0.35905   0.00000  Uiso   1.00
O214   O     0.36655   0.28801   0.32312   0.00000  Uiso   1.00
O215   O     0.30906   0.30326   0.29082   0.00000  Uiso   1.00
O216   O     0.35815   0.26886   0.25113   0.00000  Uiso   1.00
O217   O     0.14291   0.22616   0.73680   0.00000  Uiso   1.00
O218   O     0.18721   0.19353   0.69739   0.00000  Uiso   1.00
O219   O     0.00000   0.21964   0.83683   0.00000  Uiso   1.00
O220   O     0.12490   0.20934   0.66608   0.00000  Uiso   1.00
O221   O     0.28871   0.13065   0.32441   0.00000  Uiso   1.00
O222   O     0.30221   0.18902   0.29321   0.00000  Uiso   1.00
O223   O     0.26877   0.14015   0.25261   0.00000  Uiso   1.00
O224   O     0.22954   0.35940   0.75337   0.00000  Uiso   1.00
O225   O     0.19983   0.30698   0.72366   0.00000  Uiso   1.00
O226   O     0.21805   0.36120   0.67922   0.00000  Uiso   1.00
O227   O     0.13374   0.21195   0.32317   0.00000  Uiso   1.00
O228   O     0.19105   0.19746   0.29004   0.00000  Uiso   1.00
O229   O     0.14131   0.23178   0.25123   0.00000  Uiso   1.00
O230   O     0.00000   0.28036   0.16317   0.00000  Uiso   1.00
O231   O     0.35705   0.27346   0.73640   0.00000  Uiso   1.00
O232   O     0.31296   0.30647   0.69706   0.00000  Uiso   1.00
O233   O     0.37630   0.29177   0.66642   0.00000  Uiso   1.00
O234   O     0.21143   0.36927   0.32423   0.00000  Uiso   1.00
O235   O     0.19786   0.31094   0.29301   0.00000  Uiso   1.00
O236   O     0.23121   0.35984   0.25236   0.00000  Uiso   1.00
O237   O     0.27076   0.14091   0.75191   0.00000  Uiso   1.00
O238   O     0.30118   0.19294   0.72218   0.00000  Uiso   1.00
O239   O     0.28302   0.13865   0.67788   0.00000  Uiso   1.00
O240   O     0.25669   0.07944   0.14127   0.00000  Uiso   1.00
O241   O     0.28036   0.00000   0.83683   0.00000  Uiso   1.00
O242   O     0.23582   0.10581   0.08007   0.00000  Uiso   1.00
O243   O     0.18870   0.07163   0.12292   0.00000  Uiso   1.00
O244   O     0.33350   0.45667   0.88221   0.00000  Uiso   1.00
O245   O     0.30559   0.40959   0.92245   0.00000  Uiso   1.00
O246   O     0.27591   0.42379   0.85583   0.00000  Uiso   1.00
O247   O     0.42484   0.22354   0.14008   0.00000  Uiso   1.00
O248   O     0.40763   0.19748   0.07751   0.00000  Uiso   1.00
O249   O     0.45553   0.16309   0.11885   0.00000  Uiso   1.00
O250   O     0.41901   0.25084   0.85986   0.00000  Uiso   1.00
O251   O     0.43397   0.18811   0.87671   0.00000  Uiso   1.00
O252   O     0.21964   0.00000   0.16317   0.00000  Uiso   1.00
O253   O     0.39188   0.22457   0.92339   0.00000  Uiso   1.00
O254   O     0.24359   0.42077   0.14162   0.00000  Uiso   1.00
O255   O     0.26355   0.39413   0.08020   0.00000  Uiso   1.00
O256   O     0.31142   0.42804   0.12229   0.00000  Uiso   1.00
O257   O     0.16641   0.04320   0.88226   0.00000  Uiso   1.00
O258   O     0.19423   0.09031   0.92250   0.00000  Uiso   1.00
O259   O     0.22397   0.07619   0.85586   0.00000  Uiso   1.00
O260   O     0.07610   0.27583   0.13841   0.00000  Uiso   1.00
O261   O     0.09032   0.30625   0.07717   0.00000  Uiso   1.00
O262   O     0.04223   0.33594   0.12237   0.00000  Uiso   1.00
O263   O     0.00000   0.28036   0.83683   0.00000  Uiso   1.00
O264   O     0.08099   0.24877   0.86023   0.00000  Uiso   1.00
O265   O     0.06598   0.31166   0.87631   0.00000  Uiso   1.00
O266   O     0.10788   0.27566   0.92354   0.00000  Uiso   1.00
O267   O     0.00775   0.32908   0.64179   0.00000  Uiso   1.00
O268   O     0.48832   0.35610   0.58038   0.00000  Uiso   1.00
O269   O     0.43989   0.32273   0.62234   0.00000  Uiso   1.00
O270   O     0.08270   0.20517   0.38238   0.00000  Uiso   1.00
O271   O     0.05375   0.15859   0.42244   0.00000  Uiso   1.00
O272   O     0.02454   0.17350   0.35576   0.00000  Uiso   1.00
O273   O     0.17437   0.47262   0.63834   0.00000  Uiso   1.00
O274   O     0.00000   0.21964   0.16317   0.00000  Uiso   1.00
O275   O     0.16073   0.44218   0.57700   0.00000  Uiso   1.00
O276   O     0.20933   0.41318   0.62204   0.00000  Uiso   1.00
O277   O     0.16904   0.00093   0.36026   0.00000  Uiso   1.00
O278   O     0.18397   0.43812   0.37679   0.00000  Uiso   1.00
O279   O     0.14212   0.47448   0.42380   0.00000  Uiso   1.00
O280   O     0.49795   0.17362   0.64634   0.00000  Uiso   1.00
O281   O     0.49683   0.14423   0.58281   0.00000  Uiso   1.00
O282   O     0.05884   0.16804   0.60862   0.00000  Uiso   1.00
O283   O     0.41712   0.29447   0.38249   0.00000  Uiso   1.00
O284   O     0.44586   0.34142   0.42219   0.00000  Uiso   1.00
O285   O     0.21964   0.00000   0.83683   0.00000  Uiso   1.00
O286   O     0.47500   0.32642   0.35547   0.00000  Uiso   1.00
O287   O     0.32564   0.02719   0.63882   0.00000  Uiso   1.00
O288   O     0.34013   0.05683   0.57723   0.00000  Uiso   1.00
O289   O     0.29132   0.08672   0.62138   0.00000  Uiso   1.00
O290   O     0.31742   0.06219   0.37921   0.00000  Uiso   1.00
O291   O     0.35490   0.02159   0.41908   0.00000  Uiso   1.00
O292   O     0.33013   0.49700   0.35357   0.00000  Uiso   1.00
O293   O     0.25000   0.00000   0.75000   0.00000  Uiso   1.00
O294   O     0.28036   0.00000   0.16317   0.00000  Uiso   1.00
O295   O     0.20725   0.07307   0.27282   0.00000  Uiso   1.00
O296   O     0.29274   0.42693   0.72718   0.00000  Uiso   1.00
O297   O     0.42693   0.20726   0.27282   0.00000  Uiso   1.00
O298   O     0.07307   0.29274   0.72718   0.00000  Uiso   1.00
O299   O     0.29274   0.42693   0.27282   0.00000  Uiso   1.00
O300   O     0.20725   0.07307   0.72718   0.00000  Uiso   1.00
O301   O     0.07307   0.29274   0.27282   0.00000  Uiso   1.00
O302   O     0.42693   0.20726   0.72718   0.00000  Uiso   1.00
O303   O     0.20725   0.42693   0.72718   0.00000  Uiso   1.00
O304   O     0.00000   0.25000   0.25000   0.00000  Uiso   1.00
O305   O     0.29274   0.07307   0.27282   0.00000  Uiso   1.00
O306   O     0.42693   0.29275   0.72718   0.00000  Uiso   1.00
O307   O     0.07307   0.20725   0.27282   0.00000  Uiso   1.00
O308   O     0.29274   0.07307   0.72718   0.00000  Uiso   1.00
O309   O     0.20725   0.42693   0.27282   0.00000  Uiso   1.00
O310   O     0.07307   0.20725   0.72718   0.00000  Uiso   1.00
O311   O     0.42693   0.29275   0.27282   0.00000  Uiso   1.00
O312   O     0.45725   0.32307   0.77282   0.00000  Uiso   1.00
O313   O     0.04274   0.17693   0.22718   0.00000  Uiso   1.00
O314   O     0.17693   0.45725   0.77282   0.00000  Uiso   1.00
O315   O     0.00000   0.25000   0.75000   0.00000  Uiso   1.00
O316   O     0.32307   0.04275   0.22718   0.00000  Uiso   1.00
O317   O     0.04274   0.17693   0.77282   0.00000  Uiso   1.00
O318   O     0.45725   0.32307   0.22718   0.00000  Uiso   1.00
O319   O     0.32307   0.04275   0.77282   0.00000  Uiso   1.00
O320   O     0.17693   0.45725   0.22718   0.00000  Uiso   1.00
O321   O     0.45725   0.17693   0.22718   0.00000  Uiso   1.00
O322   O     0.04274   0.32307   0.77282   0.00000  Uiso   1.00
O323   O     0.17693   0.04275   0.22718   0.00000  Uiso   1.00
O324   O     0.32307   0.45725   0.77282   0.00000  Uiso   1.00
O325   O     0.04274   0.32307   0.22718   0.00000  Uiso   1.00
O326   O     0.25000   0.46964   0.33683   0.00000  Uiso   1.00
O327   O     0.45725   0.17693   0.77282   0.00000  Uiso   1.00
O328   O     0.32307   0.45725   0.22718   0.00000  Uiso   1.00
O329   O     0.17693   0.04275   0.77282   0.00000  Uiso   1.00
O330   O     0.10055   0.40406   0.14792   0.00000  Uiso   1.00
O331   O     0.11178   0.46251   0.17965   0.00000  Uiso   1.00
O332   O     0.16751   0.42323   0.15888   0.00000  Uiso   1.00
O333   O     0.38140   0.03935   0.82590   0.00000  Uiso   1.00
O334   O     0.39340   0.09813   0.85678   0.00000  Uiso   1.00
O335   O     0.32627   0.08121   0.84199   0.00000  Uiso   1.00
O336   O     0.10682   0.11574   0.14039   0.00000  Uiso   1.00
O337   O     0.25000   0.03036   0.66317   0.00000  Uiso   1.00
O338   O     0.04515   0.12271   0.16674   0.00000  Uiso   1.00
O339   O     0.08563   0.18039   0.15976   0.00000  Uiso   1.00
O340   O     0.46064   0.38208   0.82479   0.00000  Uiso   1.00
O341   O     0.40136   0.39458   0.85479   0.00000  Uiso   1.00
O342   O     0.41801   0.32760   0.84073   0.00000  Uiso   1.00
O343   O     0.39863   0.09704   0.14757   0.00000  Uiso   1.00
O344   O     0.38962   0.03816   0.17922   0.00000  Uiso   1.00
O345   O     0.33246   0.07569   0.15903   0.00000  Uiso   1.00
O346   O     0.11816   0.46085   0.82559   0.00000  Uiso   1.00
O347   O     0.10608   0.40215   0.85664   0.00000  Uiso   1.00
O348   O     0.03036   0.25000   0.33683   0.00000  Uiso   1.00
O349   O     0.17327   0.41914   0.84217   0.00000  Uiso   1.00
O350   O     0.39608   0.38579   0.14035   0.00000  Uiso   1.00
O351   O     0.45668   0.37619   0.16860   0.00000  Uiso   1.00
O352   O     0.41429   0.32019   0.15949   0.00000  Uiso   1.00
O353   O     0.03945   0.11838   0.82501   0.00000  Uiso   1.00
O354   O     0.09854   0.10527   0.85473   0.00000  Uiso   1.00
O355   O     0.08242   0.17239   0.84077   0.00000  Uiso   1.00
O356   O     0.11583   0.03769   0.82246   0.00000  Uiso   1.00
O357   O     0.05877   0.05220   0.78893   0.00000  Uiso   1.00
O358   O     0.10889   0.01815   0.75036   0.00000  Uiso   1.00
O359   O     0.46964   0.25000   0.66317   0.00000  Uiso   1.00
O360   O     0.39161   0.47709   0.23420   0.00000  Uiso   1.00
O361   O     0.43782   0.44333   0.19883   0.00000  Uiso   1.00
O362   O     0.37697   0.45626   0.16333   0.00000  Uiso   1.00
O363   O     0.03868   0.38083   0.82424   0.00000  Uiso   1.00
O364   O     0.05231   0.43907   0.79283   0.00000  Uiso   1.00
O365   O     0.01891   0.39008   0.75233   0.00000  Uiso   1.00
O366   O     0.47997   0.11034   0.25203   0.00000  Uiso   1.00
O367   O     0.44891   0.05641   0.22782   0.00000  Uiso   1.00
O368   O     0.46691   0.10573   0.17808   0.00000  Uiso   1.00
O369   O     0.38426   0.46230   0.82257   0.00000  Uiso   1.00
O370   O     0.25000   0.03036   0.33683   0.00000  Uiso   1.00
O371   O     0.44122   0.44779   0.78880   0.00000  Uiso   1.00
O372   O     0.39100   0.48180   0.75044   0.00000  Uiso   1.00
O373   O     0.10857   0.02304   0.23447   0.00000  Uiso   1.00
O374   O     0.06169   0.05707   0.20052   0.00000  Uiso   1.00
O375   O     0.12154   0.04397   0.16324   0.00000  Uiso   1.00
O376   O     0.46105   0.11945   0.82470   0.00000  Uiso   1.00
O377   O     0.44754   0.06104   0.79363   0.00000  Uiso   1.00
O378   O     0.48120   0.10978   0.75297   0.00000  Uiso   1.00
O379   O     0.02046   0.39047   0.25274   0.00000  Uiso   1.00
O380   O     0.05042   0.44293   0.22340   0.00000  Uiso   1.00
S381   S     0.12459   0.42387   0.17622   0.00000  Uiso   1.00
S382   S     0.39744   0.44655   0.20582   0.00000  Uiso   1.00
S383   S     0.05020   0.39861   0.78693   0.00000  Uiso   1.00
S384   S     0.45220   0.09695   0.22324   0.00000  Uiso   1.00
S385   S     0.40046   0.45050   0.78463   0.00000  Uiso   1.00
S386   S     0.10221   0.05368   0.20633   0.00000  Uiso   1.00
S387   S     0.44971   0.10147   0.78747   0.00000  Uiso   1.00
S388   S     0.04757   0.40212   0.22241   0.00000  Uiso   1.00
S389   S     0.37553   0.17373   0.67588   0.00000  Uiso   1.00
S390   S     0.12055   0.32822   0.32743   0.00000  Uiso   1.00
S391   S     0.33266   0.38471   0.67031   0.00000  Uiso   1.00
S392   S     0.37012   0.07859   0.82756   0.00000  Uiso   1.00
S393   S     0.17063   0.12054   0.32623   0.00000  Uiso   1.00
S394   S     0.12590   0.32523   0.67672   0.00000  Uiso   1.00
S395   S     0.37949   0.17170   0.32746   0.00000  Uiso   1.00
S396   S     0.16802   0.11535   0.67029   0.00000  Uiso   1.00
S397   S     0.33016   0.38016   0.32671   0.00000  Uiso   1.00
S398   S     0.34970   0.30015   0.28564   0.00000  Uiso   1.00
S399   S     0.14725   0.19692   0.70665   0.00000  Uiso   1.00
S400   S     0.30014   0.14858   0.28715   0.00000  Uiso   1.00
S401   S     0.20267   0.34779   0.72281   0.00000  Uiso   1.00
S402   S     0.15034   0.20030   0.28537   0.00000  Uiso   1.00
S403   S     0.08394   0.13558   0.16975   0.00000  Uiso   1.00
S404   S     0.35287   0.30309   0.70666   0.00000  Uiso   1.00
S405   S     0.19990   0.35139   0.28699   0.00000  Uiso   1.00
S406   S     0.29803   0.15214   0.72156   0.00000  Uiso   1.00
S407   S     0.23202   0.07385   0.10700   0.00000  Uiso   1.00
S408   S     0.29787   0.44034   0.89488   0.00000  Uiso   1.00
S409   S     0.43887   0.20360   0.10504   0.00000  Uiso   1.00
S410   S     0.42774   0.22561   0.89284   0.00000  Uiso   1.00
S411   S     0.26790   0.42611   0.10699   0.00000  Uiso   1.00
S412   S     0.20202   0.05958   0.89492   0.00000  Uiso   1.00
S413   S     0.06023   0.29714   0.10524   0.00000  Uiso   1.00
S414   S     0.42116   0.37109   0.82597   0.00000  Uiso   1.00
S415   S     0.07215   0.27433   0.89289   0.00000  Uiso   1.00
S416   S     0.48348   0.32413   0.60710   0.00000  Uiso   1.00
S417   S     0.04672   0.18954   0.39491   0.00000  Uiso   1.00
S418   S     0.19064   0.45172   0.60508   0.00000  Uiso   1.00
S419   S     0.17785   0.47557   0.39310   0.00000  Uiso   1.00
S420   S     0.01349   0.17463   0.60602   0.00000  Uiso   1.00
S421   S     0.45303   0.31041   0.39479   0.00000  Uiso   1.00
S422   S     0.30987   0.04785   0.60513   0.00000  Uiso   1.00
S423   S     0.32246   0.02355   0.39245   0.00000  Uiso   1.00
S424   S     0.37548   0.07636   0.17603   0.00000  Uiso   1.00
S425   S     0.12950   0.42164   0.82748   0.00000  Uiso   1.00
S426   S     0.41733   0.36479   0.17016   0.00000  Uiso   1.00
S427   S     0.07904   0.12897   0.82589   0.00000  Uiso   1.00
S428   S     0.09952   0.04946   0.78457   0.00000  Uiso   1.00
Zn429  Zn    0.20660   0.00000   0.21760   0.00000  Uiso   1.00
Zn430  Zn    0.04340   0.25000   0.28240   0.00000  Uiso   1.00
Zn431  Zn    0.25000   0.45660   0.71760   0.00000  Uiso   1.00
Zn432  Zn    0.25000   0.04340   0.28240   0.00000  Uiso   1.00
Zn433  Zn    0.04340   0.25000   0.71760   0.00000  Uiso   1.00
Zn434  Zn    0.45660   0.25000   0.28240   0.00000  Uiso   1.00
Zn435  Zn    0.25000   0.04340   0.71760   0.00000  Uiso   1.00
Zn436  Zn    0.25000   0.45660   0.28240   0.00000  Uiso   1.00
Zn437  Zn    0.29340   0.00000   0.78240   0.00000  Uiso   1.00
Zn438  Zn    0.00000   0.20660   0.21760   0.00000  Uiso   1.00
Zn439  Zn   -0.00000   0.29340   0.78240   0.00000  Uiso   1.00
Zn440  Zn    0.29340   0.00000   0.21760   0.00000  Uiso   1.00
Zn441  Zn    0.20660   0.00000   0.78240   0.00000  Uiso   1.00
Zn442  Zn   -0.00000   0.29340   0.21760   0.00000  Uiso   1.00
Zn443  Zn    0.00000   0.20660   0.78240   0.00000  Uiso   1.00
Zn444  Zn    0.45660   0.25000   0.71760   0.00000  Uiso   1.00
C445   C     0.74389   0.03238   0.04244   0.00000  Uiso   1.00
C446   C     0.52202   0.22566   0.45851   0.00000  Uiso   1.00
C447   C     0.85251   0.40598   0.74426   0.00000  Uiso   1.00
C448   C     0.90565   0.14786   0.25638   0.00000  Uiso   1.00
C449   C     0.59603   0.35128   0.74609   0.00000  Uiso   1.00
C450   C     0.85158   0.40432   0.25332   0.00000  Uiso   1.00
C451   C     0.64747   0.09396   0.74412   0.00000  Uiso   1.00
C452   C     0.60134   0.15400   0.75313   0.00000  Uiso   1.00
C453   C     0.89752   0.34410   0.24441   0.00000  Uiso   1.00
C454   C     0.65568   0.39786   0.75641   0.00000  Uiso   1.00
C455   C     0.84584   0.10146   0.24593   0.00000  Uiso   1.00
C456   C     0.89857   0.34588   0.75339   0.00000  Uiso   1.00
C457   C     0.72676   0.47678   0.54159   0.00000  Uiso   1.00
C458   C     0.60266   0.15613   0.24423   0.00000  Uiso   1.00
C459   C     0.84444   0.10210   0.75616   0.00000  Uiso   1.00
C460   C     0.65411   0.39861   0.24603   0.00000  Uiso   1.00
C461   C     0.75001  -0.00000   0.10308   0.00000  Uiso   1.00
C462   C     0.74997   0.49999   0.89753   0.00000  Uiso   1.00
C463   C     0.99983   0.25010   0.10258   0.00000  Uiso   1.00
C464   C     0.99993   0.25002   0.89685   0.00000  Uiso   1.00
C465   C     0.99981   0.24987   0.60310   0.00000  Uiso   1.00
C466   C     0.99998   0.25006   0.39753   0.00000  Uiso   1.00
C467   C     0.75015   0.49992   0.60252   0.00000  Uiso   1.00
C468   C     0.71827   0.49138   0.45752   0.00000  Uiso   1.00
C469   C     0.75008   0.49989   0.39683   0.00000  Uiso   1.00
C470   C     0.50453   0.21743   0.54234   0.00000  Uiso   1.00
C471   C     0.97797   0.27463   0.45847   0.00000  Uiso   1.00
C472   C     0.77394   0.02276   0.54159   0.00000  Uiso   1.00
C473   C     0.78223   0.00831   0.45731   0.00000  Uiso   1.00
C474   C     0.74302   0.03260   0.08283   0.00000  Uiso   1.00
C475   C     0.77174   0.47468   0.91811   0.00000  Uiso   1.00
C476   C     0.97416   0.22874   0.08201   0.00000  Uiso   1.00
C477   C     0.77257   0.47602   0.95847   0.00000  Uiso   1.00
C478   C     0.96791   0.24027   0.91707   0.00000  Uiso   1.00
C479   C     0.75696   0.46738   0.08284   0.00000  Uiso   1.00
C480   C     0.72818   0.02528   0.91813   0.00000  Uiso   1.00
C481   C     0.52533   0.27167   0.08200   0.00000  Uiso   1.00
C482   C     0.53187   0.25987   0.91711   0.00000  Uiso   1.00
C483   C     0.99389   0.28273   0.58290   0.00000  Uiso   1.00
C484   C     0.52123   0.22435   0.41814   0.00000  Uiso   1.00
C485   C     0.72509   0.47787   0.58192   0.00000  Uiso   1.00
C486   C     0.71815   0.49011   0.41718   0.00000  Uiso   1.00
C487   C     0.50513   0.21697   0.58273   0.00000  Uiso   1.00
C488   C     0.97577   0.22764   0.04169   0.00000  Uiso   1.00
C489   C     0.97874   0.27583   0.41809   0.00000  Uiso   1.00
C490   C     0.77541   0.02179   0.58193   0.00000  Uiso   1.00
C491   C     0.78218   0.00947   0.41693   0.00000  Uiso   1.00
C492   C     0.74998   0.49999   0.02190   0.00000  Uiso   1.00
C493   C     0.74997   0.49998   0.97902   0.00000  Uiso   1.00
C494   C     0.99977   0.25020   0.02105   0.00000  Uiso   1.00
C495   C     0.99981   0.25018   0.97807   0.00000  Uiso   1.00
C496   C     0.99987   0.25009   0.52189   0.00000  Uiso   1.00
C497   C     0.99999   0.25016   0.47902   0.00000  Uiso   1.00
C498   C     0.75035   0.49979   0.52098   0.00000  Uiso   1.00
C499   C     0.96785   0.24172   0.95742   0.00000  Uiso   1.00
C500   C     0.75030   0.49985   0.47803   0.00000  Uiso   1.00
C501   C     0.74993   0.49998   0.35487   0.00000  Uiso   1.00
C502   C     0.75003   0.49999   0.64490   0.00000  Uiso   1.00
C503   C     0.99999   0.25001   0.35516   0.00000  Uiso   1.00
C504   C     0.99998   0.25000   0.64506   0.00000  Uiso   1.00
C505   C     0.99998   0.25000   0.85487   0.00000  Uiso   1.00
C506   C     0.99996   0.25001   0.14492   0.00000  Uiso   1.00
C507   C     0.74999   0.00000   0.85516   0.00000  Uiso   1.00
C508   C     0.75001   0.00001   0.14507   0.00000  Uiso   1.00
C509   C     0.67849   0.06886   0.25176   0.00000  Uiso   1.00
C510   C     0.75608   0.46760   0.04245   0.00000  Uiso   1.00
C511   C     0.82168   0.43162   0.74768   0.00000  Uiso   1.00
C512   C     0.93157   0.17839   0.25251   0.00000  Uiso   1.00
C513   C     0.56889   0.32145   0.74803   0.00000  Uiso   1.00
C514   C     0.82153   0.43118   0.25176   0.00000  Uiso   1.00
C515   C     0.67831   0.06835   0.74765   0.00000  Uiso   1.00
C516   C     0.56844   0.32159   0.25250   0.00000  Uiso   1.00
C517   C     0.93118   0.17851   0.74801   0.00000  Uiso   1.00
C518   C     0.68157   0.42840   0.75251   0.00000  Uiso   1.00
C519   C     0.81885   0.07149   0.24798   0.00000  Uiso   1.00
C520   C     0.92850   0.31886   0.75178   0.00000  Uiso   1.00
C521   C     0.72737   0.02393   0.95849   0.00000  Uiso   1.00
C522   C     0.57171   0.18165   0.24768   0.00000  Uiso   1.00
C523   C     0.81846   0.07159   0.75245   0.00000  Uiso   1.00
C524   C     0.68115   0.42852   0.24801   0.00000  Uiso   1.00
C525   C     0.57148   0.18110   0.75171   0.00000  Uiso   1.00
C526   C     0.92832   0.31841   0.24774   0.00000  Uiso   1.00
C527   C     0.62263   0.40236   0.22252   0.00000  Uiso   1.00
C528   C     0.87497   0.09894   0.78084   0.00000  Uiso   1.00
C529   C     0.60099   0.12741   0.21739   0.00000  Uiso   1.00
C530   C     0.90133   0.37589   0.77898   0.00000  Uiso   1.00
C531   C     0.87730   0.09781   0.22234   0.00000  Uiso   1.00
C532   C     0.52373   0.27281   0.04168   0.00000  Uiso   1.00
C533   C     0.62497   0.40113   0.78081   0.00000  Uiso   1.00
C534   C     0.89928   0.37281   0.21749   0.00000  Uiso   1.00
C535   C     0.59858   0.12401   0.77875   0.00000  Uiso   1.00
C536   C     0.61816   0.09229   0.77054   0.00000  Uiso   1.00
C537   C     0.87983   0.40488   0.22499   0.00000  Uiso   1.00
C538   C     0.59348   0.38104   0.77218   0.00000  Uiso   1.00
C539   C     0.90875   0.11749   0.23174   0.00000  Uiso   1.00
C540   C     0.88178   0.40764   0.77072   0.00000  Uiso   1.00
C541   C     0.62028   0.09530   0.22505   0.00000  Uiso   1.00
C542   C     0.90654   0.11898   0.77234   0.00000  Uiso   1.00
C543   C     0.53182   0.25858   0.95746   0.00000  Uiso   1.00
C544   C     0.59124   0.38254   0.23187   0.00000  Uiso   1.00
C545   C     0.87299   0.15214   0.72214   0.00000  Uiso   1.00
C546   C     0.62510   0.34879   0.28079   0.00000  Uiso   1.00
C547   C     0.85052   0.37698   0.71773   0.00000  Uiso   1.00
C548   C     0.65124   0.12576   0.27908   0.00000  Uiso   1.00
C549   C     0.62761   0.34740   0.72270   0.00000  Uiso   1.00
C550   C     0.87494   0.15115   0.28081   0.00000  Uiso   1.00
C551   C     0.64949   0.12294   0.71752   0.00000  Uiso   1.00
C552   C     0.84912   0.37465   0.27937   0.00000  Uiso   1.00
C553   C     0.86854   0.34279   0.27130   0.00000  Uiso   1.00
C554   C     0.99483   0.28260   0.54250   0.00000  Uiso   1.00
C555   C     0.62984   0.15486   0.72512   0.00000  Uiso   1.00
C556   C     0.84340   0.13110   0.27219   0.00000  Uiso   1.00
C557   C     0.65894   0.36734   0.73200   0.00000  Uiso   1.00
C558   C     0.63173   0.15757   0.27097   0.00000  Uiso   1.00
C559   C     0.87005   0.34502   0.72544   0.00000  Uiso   1.00
C560   C     0.65661   0.36889   0.27219   0.00000  Uiso   1.00
C561   C     0.84153   0.13236   0.73130   0.00000  Uiso   1.00
C562   C     0.59439   0.35209   0.25638   0.00000  Uiso   1.00
C563   C     0.90422   0.14856   0.74600   0.00000  Uiso   1.00
C564   C     0.64857   0.09589   0.25328   0.00000  Uiso   1.00
H565   H     0.73992   0.05771   0.02705   0.00000  Uiso   1.00
H566   H     0.53993   0.20728   0.47396   0.00000  Uiso   1.00
H567   H     0.70930   0.45786   0.52637   0.00000  Uiso   1.00
H568   H     0.69313   0.48586   0.47283   0.00000  Uiso   1.00
H569   H     0.50753   0.19198   0.52688   0.00000  Uiso   1.00
H570   H     0.96000   0.29299   0.47386   0.00000  Uiso   1.00
H571   H     0.79152   0.04160   0.52637   0.00000  Uiso   1.00
H572   H     0.80745   0.01393   0.47245   0.00000  Uiso   1.00
H573   H     0.66693   0.43908   0.13565   0.00000  Uiso   1.00
H574   H     0.82473   0.06556   0.86533   0.00000  Uiso   1.00
H575   H     0.57168   0.18330   0.13534   0.00000  Uiso   1.00
H576   H     0.79099   0.45810   0.97384   0.00000  Uiso   1.00
H577   H     0.93258   0.32645   0.86490   0.00000  Uiso   1.00
H578   H     0.83338   0.05988   0.13577   0.00000  Uiso   1.00
H579   H     0.67464   0.43488   0.86544   0.00000  Uiso   1.00
H580   H     0.92890   0.31704   0.13553   0.00000  Uiso   1.00
H581   H     0.60895   0.17771   0.84051   0.00000  Uiso   1.00
H582   H     0.59554   0.49601   0.75855   0.00000  Uiso   1.00
H583   H     0.85916   0.47582   0.16886   0.00000  Uiso   1.00
H584   H     0.99724   0.40461   0.75973   0.00000  Uiso   1.00
H585   H     0.97755   0.13040   0.17944   0.00000  Uiso   1.00
H586   H     0.90406   0.00406   0.75879   0.00000  Uiso   1.00
H587   H     0.95789   0.20904   0.02654   0.00000  Uiso   1.00
H588   H     0.64085   0.02583   0.16857   0.00000  Uiso   1.00
H589   H     0.50272   0.09505   0.76040   0.00000  Uiso   1.00
H590   H     0.52357   0.41125   0.16583   0.00000  Uiso   1.00
H591   H     0.91848   0.18736   0.63532   0.00000  Uiso   1.00
H592   H     0.57540   0.31501   0.36546   0.00000  Uiso   1.00
H593   H     0.82167   0.43232   0.63526   0.00000  Uiso   1.00
H594   H     0.64065   0.07175   0.34049   0.00000  Uiso   1.00
H595   H     0.58383   0.31101   0.63548   0.00000  Uiso   1.00
H596   H     0.92464   0.18493   0.36542   0.00000  Uiso   1.00
H597   H     0.63829   0.06543   0.66004   0.00000  Uiso   1.00
H598   H     0.94262   0.23630   0.97259   0.00000  Uiso   1.00
H599   H     0.87809   0.36302   0.35830   0.00000  Uiso   1.00
H600   H     0.84455   0.24689   0.25939   0.00000  Uiso   1.00
H601   H     0.60509   0.19129   0.66275   0.00000  Uiso   1.00
H602   H     0.74686   0.15406   0.26054   0.00000  Uiso   1.00
H603   H     0.72703   0.33882   0.66636   0.00000  Uiso   1.00
H604   H     0.65532   0.25360   0.25915   0.00000  Uiso   1.00
H605   H     0.85783   0.28258   0.64787   0.00000  Uiso   1.00
H606   H     0.75368   0.34736   0.26119   0.00000  Uiso   1.00
H607   H     0.77409   0.16099   0.66492   0.00000  Uiso   1.00
H608   H     0.67385   0.06727   0.09936   0.00000  Uiso   1.00
H609   H     0.76004   0.44226   0.02707   0.00000  Uiso   1.00
H610   H     0.75233   0.41460   0.86597   0.00000  Uiso   1.00
H611   H     0.96445   0.15160   0.09465   0.00000  Uiso   1.00
H612   H     0.89368   0.20085   0.93691   0.00000  Uiso   1.00
H613   H     0.82603   0.43218   0.09851   0.00000  Uiso   1.00
H614   H     0.74750   0.08547   0.86600   0.00000  Uiso   1.00
H615   H     0.53155   0.34815   0.09941   0.00000  Uiso   1.00
H616   H     0.60597   0.29945   0.93689   0.00000  Uiso   1.00
H617   H     0.92529   0.31871   0.59854   0.00000  Uiso   1.00
H618   H     0.50092   0.16440   0.36587   0.00000  Uiso   1.00
H619   H     0.72022   0.40125   0.59902   0.00000  Uiso   1.00
H620   H     0.70895   0.04185   0.97388   0.00000  Uiso   1.00
H621   H     0.64393   0.45071   0.43723   0.00000  Uiso   1.00
H622   H     0.56734   0.16807   0.58134   0.00000  Uiso   1.00
H623   H     0.99864   0.33560   0.36542   0.00000  Uiso   1.00
H624   H     0.78108   0.09864   0.59803   0.00000  Uiso   1.00
H625   H     0.84866   0.01019   0.33804   0.00000  Uiso   1.00
H626   H     0.54153   0.29147   0.02650   0.00000  Uiso   1.00
H627   H     0.55701   0.26403   0.97266   0.00000  Uiso   1.00
H628   H     0.99166   0.30807   0.52716   0.00000  Uiso   1.00
O629   O     0.75000   0.00000   0.25000   0.00000  Uiso   1.00
O630   O     0.75000   0.46964   0.66317   0.00000  Uiso   1.00
O631   O     0.53250   0.38884   0.17866   0.00000  Uiso   1.00
O632   O     0.85089   0.15484   0.64746   0.00000  Uiso   1.00
O633   O     0.86409   0.21281   0.67946   0.00000  Uiso   1.00
O634   O     0.91849   0.17170   0.65871   0.00000  Uiso   1.00
O635   O     0.63183   0.28899   0.32547   0.00000  Uiso   1.00
O636   O     0.64400   0.34762   0.35660   0.00000  Uiso   1.00
O637   O     0.57678   0.33075   0.34218   0.00000  Uiso   1.00
O638   O     0.85359   0.36297   0.64083   0.00000  Uiso   1.00
O639   O     0.79313   0.37395   0.66890   0.00000  Uiso   1.00
O640   O     0.83644   0.42913   0.65908   0.00000  Uiso   1.00
O641   O     0.96964   0.25000   0.33683   0.00000  Uiso   1.00
O642   O     0.71023   0.13111   0.32552   0.00000  Uiso   1.00
O643   O     0.65105   0.14409   0.35516   0.00000  Uiso   1.00
O644   O     0.66718   0.07704   0.34082   0.00000  Uiso   1.00
O645   O     0.65095   0.34382   0.64845   0.00000  Uiso   1.00
O646   O     0.63737   0.28623   0.68104   0.00000  Uiso   1.00
O647   O     0.58330   0.32691   0.65867   0.00000  Uiso   1.00
O648   O     0.86820   0.21093   0.32552   0.00000  Uiso   1.00
O649   O     0.85606   0.15228   0.35665   0.00000  Uiso   1.00
O650   O     0.92326   0.16918   0.34215   0.00000  Uiso   1.00
O651   O     0.64782   0.13719   0.64035   0.00000  Uiso   1.00
O652   O     0.53036   0.25000   0.66317   0.00000  Uiso   1.00
O653   O     0.70757   0.12606   0.66952   0.00000  Uiso   1.00
O654   O     0.66473   0.07102   0.65859   0.00000  Uiso   1.00
O655   O     0.83314   0.41916   0.33941   0.00000  Uiso   1.00
O656   O     0.79062   0.36931   0.32662   0.00000  Uiso   1.00
O657   O     0.85252   0.35420   0.35905   0.00000  Uiso   1.00
O658   O     0.86655   0.28801   0.32312   0.00000  Uiso   1.00
O659   O     0.80906   0.30326   0.29082   0.00000  Uiso   1.00
O660   O     0.85815   0.26886   0.25113   0.00000  Uiso   1.00
O661   O     0.64291   0.22616   0.73680   0.00000  Uiso   1.00
O662   O     0.68721   0.19353   0.69739   0.00000  Uiso   1.00
O663   O     0.50000   0.21964   0.83683   0.00000  Uiso   1.00
O664   O     0.62490   0.20934   0.66608   0.00000  Uiso   1.00
O665   O     0.78871   0.13065   0.32441   0.00000  Uiso   1.00
O666   O     0.80221   0.18902   0.29321   0.00000  Uiso   1.00
O667   O     0.76877   0.14015   0.25261   0.00000  Uiso   1.00
O668   O     0.72954   0.35940   0.75337   0.00000  Uiso   1.00
O669   O     0.69983   0.30698   0.72366   0.00000  Uiso   1.00
O670   O     0.71805   0.36120   0.67922   0.00000  Uiso   1.00
O671   O     0.63374   0.21195   0.32317   0.00000  Uiso   1.00
O672   O     0.69105   0.19746   0.29004   0.00000  Uiso   1.00
O673   O     0.64131   0.23178   0.25123   0.00000  Uiso   1.00
O674   O     0.50000   0.28036   0.16317   0.00000  Uiso   1.00
O675   O     0.85705   0.27346   0.73640   0.00000  Uiso   1.00
O676   O     0.81296   0.30647   0.69706   0.00000  Uiso   1.00
O677   O     0.87630   0.29177   0.66642   0.00000  Uiso   1.00
O678   O     0.71143   0.36927   0.32423   0.00000  Uiso   1.00
O679   O     0.69786   0.31094   0.29301   0.00000  Uiso   1.00
O680   O     0.73121   0.35984   0.25236   0.00000  Uiso   1.00
O681   O     0.77076   0.14091   0.75191   0.00000  Uiso   1.00
O682   O     0.80118   0.19294   0.72218   0.00000  Uiso   1.00
O683   O     0.78302   0.13865   0.67788   0.00000  Uiso   1.00
O684   O     0.75669   0.07944   0.14127   0.00000  Uiso   1.00
O685   O     0.78036   0.00000   0.83683   0.00000  Uiso   1.00
O686   O     0.73582   0.10581   0.08007   0.00000  Uiso   1.00
O687   O     0.68870   0.07163   0.12292   0.00000  Uiso   1.00
O688   O     0.83350   0.45667   0.88221   0.00000  Uiso   1.00
O689   O     0.80559   0.40959   0.92245   0.00000  Uiso   1.00
O690   O     0.77591   0.42379   0.85583   0.00000  Uiso   1.00
O691   O     0.92484   0.22354   0.14008   0.00000  Uiso   1.00
O692   O     0.90763   0.19748   0.07751   0.00000  Uiso   1.00
O693   O     0.95553   0.16309   0.11885   0.00000  Uiso   1.00
O694   O     0.91901   0.25084   0.85986   0.00000  Uiso   1.00
O695   O     0.93397   0.18811   0.87671   0.00000  Uiso   1.00
O696   O     0.71964   0.00000   0.16317   0.00000  Uiso   1.00
O697   O     0.89188   0.22457   0.92339   0.00000  Uiso   1.00
O698   O     0.74359   0.42077   0.14162   0.00000  Uiso   1.00
O699   O     0.76355   0.39413   0.08020   0.00000  Uiso   1.00
O700   O     0.81142   0.42804   0.12229   0.00000  Uiso   1.00
O701   O     0.66641   0.04320   0.88226   0.00000  Uiso   1.00
O702   O     0.69423   0.09031   0.92250   0.00000  Uiso   1.00
O703   O     0.72397   0.07619   0.85586   0.00000  Uiso   1.00
O704   O     0.57610   0.27583   0.13841   0.00000  Uiso   1.00
O705   O     0.59032   0.30625   0.07717   0.00000  Uiso   1.00
O706   O     0.54223   0.33594   0.12237   0.00000  Uiso   1.00
O707   O     0.50000   0.28036   0.83683   0.00000  Uiso   1.00
O708   O     0.58099   0.24877   0.86023   0.00000  Uiso   1.00
O709   O     0.56598   0.31166   0.87631   0.00000  Uiso   1.00
O710   O     0.60788   0.27566   0.92354   0.00000  Uiso   1.00
O711   O     0.50775   0.32908   0.64179   0.00000  Uiso   1.00
O712   O     0.98832   0.35610   0.58038   0.00000  Uiso   1.00
O713   O     0.93989   0.32273   0.62234   0.00000  Uiso   1.00
O714   O     0.58270   0.20517   0.38238   0.00000  Uiso   1.00
O715   O     0.55375   0.15859   0.42244   0.00000  Uiso   1.00
O716   O     0.52454   0.17350   0.35576   0.00000  Uiso   1.00
O717   O     0.67437   0.47262   0.63834   0.00000  Uiso   1.00
O718   O     0.50000   0.21964   0.16317   0.00000  Uiso   1.00
O719   O     0.66073   0.44218   0.57700   0.00000  Uiso   1.00
O720   O     0.70933   0.41318   0.62204   0.00000  Uiso   1.00
O721   O     0.66904   0.00093   0.36026   0.00000  Uiso   1.00
O722   O     0.68397   0.43812   0.37679   0.00000  Uiso   1.00
O723   O     0.64212   0.47448   0.42380   0.00000  Uiso   1.00
O724   O     0.99795   0.17362   0.64634   0.00000  Uiso   1.00
O725   O     0.99683   0.14423   0.58281   0.00000  Uiso   1.00
O726   O     0.55884   0.16804   0.60862   0.00000  Uiso   1.00
O727   O     0.91712   0.29447   0.38249   0.00000  Uiso   1.00
O728   O     0.94586   0.34142   0.42219   0.00000  Uiso   1.00
O729   O     0.71964   0.00000   0.83683   0.00000  Uiso   1.00
O730   O     0.97500   0.32642   0.35547   0.00000  Uiso   1.00
O731   O     0.82564   0.02719   0.63882   0.00000  Uiso   1.00
O732   O     0.84013   0.05683   0.57723   0.00000  Uiso   1.00
O733   O     0.79132   0.08672   0.62138   0.00000  Uiso   1.00
O734   O     0.81742   0.06219   0.37921   0.00000  Uiso   1.00
O735   O     0.85490   0.02159   0.41908   0.00000  Uiso   1.00
O736   O     0.83013   0.49700   0.35357   0.00000  Uiso   1.00
O737   O     0.75000   0.00000   0.75000   0.00000  Uiso   1.00
O738   O     0.78036   0.00000   0.16317   0.00000  Uiso   1.00
O739   O     0.70725   0.07307   0.27282   0.00000  Uiso   1.00
O740   O     0.79274   0.42693   0.72718   0.00000  Uiso   1.00
O741   O     0.92693   0.20726   0.27282   0.00000  Uiso   1.00
O742   O     0.57307   0.29274   0.72718   0.00000  Uiso   1.00
O743   O     0.79274   0.42693   0.27282   0.00000  Uiso   1.00
O744   O     0.70725   0.07307   0.72718   0.00000  Uiso   1.00
O745   O     0.57307   0.29274   0.27282   0.00000  Uiso   1.00
O746   O     0.92693   0.20726   0.72718   0.00000  Uiso   1.00
O747   O     0.70725   0.42693   0.72718   0.00000  Uiso   1.00
O748   O     0.50000   0.25000   0.25000   0.00000  Uiso   1.00
O749   O     0.79274   0.07307   0.27282   0.00000  Uiso   1.00
O750   O     0.92693   0.29275   0.72718   0.00000  Uiso   1.00
O751   O     0.57307   0.20725   0.27282   0.00000  Uiso   1.00
O752   O     0.79274   0.07307   0.72718   0.00000  Uiso   1.00
O753   O     0.70725   0.42693   0.27282   0.00000  Uiso   1.00
O754   O     0.57307   0.20725   0.72718   0.00000  Uiso   1.00
O755   O     0.92693   0.29275   0.27282   0.00000  Uiso   1.00
O756   O     0.95725   0.32307   0.77282   0.00000  Uiso   1.00
O757   O     0.54274   0.17693   0.22718   0.00000  Uiso   1.00
O758   O     0.67693   0.45725   0.77282   0.00000  Uiso   1.00
O759   O     0.50000   0.25000   0.75000   0.00000  Uiso   1.00
O760   O     0.82307   0.04275   0.22718   0.00000  Uiso   1.00
O761   O     0.54274   0.17693   0.77282   0.00000  Uiso   1.00
O762   O     0.95725   0.32307   0.22718   0.00000  Uiso   1.00
O763   O     0.82307   0.04275   0.77282   0.00000  Uiso   1.00
O764   O     0.67693   0.45725   0.22718   0.00000  Uiso   1.00
O765   O     0.95725   0.17693   0.22718   0.00000  Uiso   1.00
O766   O     0.54274   0.32307   0.77282   0.00000  Uiso   1.00
O767   O     0.67693   0.04275   0.22718   0.00000  Uiso   1.00
O768   O     0.82307   0.45725   0.77282   0.00000  Uiso   1.00
O769   O     0.54274   0.32307   0.22718   0.00000  Uiso   1.00
O770   O     0.75000   0.46964   0.33683   0.00000  Uiso   1.00
O771   O     0.95725   0.17693   0.77282   0.00000  Uiso   1.00
O772   O     0.82307   0.45725   0.22718   0.00000  Uiso   1.00
O773   O     0.67693   0.04275   0.77282   0.00000  Uiso   1.00
O774   O     0.60055   0.40406   0.14792   0.00000  Uiso   1.00
O775   O     0.61178   0.46251   0.17965   0.00000  Uiso   1.00
O776   O     0.66751   0.42323   0.15888   0.00000  Uiso   1.00
O777   O     0.88140   0.03935   0.82590   0.00000  Uiso   1.00
O778   O     0.89340   0.09813   0.85678   0.00000  Uiso   1.00
O779   O     0.82627   0.08121   0.84199   0.00000  Uiso   1.00
O780   O     0.60682   0.11574   0.14039   0.00000  Uiso   1.00
O781   O     0.75000   0.03036   0.66317   0.00000  Uiso   1.00
O782   O     0.54515   0.12271   0.16674   0.00000  Uiso   1.00
O783   O     0.58563   0.18039   0.15976   0.00000  Uiso   1.00
O784   O     0.96064   0.38208   0.82479   0.00000  Uiso   1.00
O785   O     0.90136   0.39458   0.85479   0.00000  Uiso   1.00
O786   O     0.91801   0.32760   0.84073   0.00000  Uiso   1.00
O787   O     0.89863   0.09704   0.14757   0.00000  Uiso   1.00
O788   O     0.88962   0.03816   0.17922   0.00000  Uiso   1.00
O789   O     0.83246   0.07569   0.15903   0.00000  Uiso   1.00
O790   O     0.61816   0.46085   0.82559   0.00000  Uiso   1.00
O791   O     0.60608   0.40215   0.85664   0.00000  Uiso   1.00
O792   O     0.53036   0.25000   0.33683   0.00000  Uiso   1.00
O793   O     0.67327   0.41914   0.84217   0.00000  Uiso   1.00
O794   O     0.89608   0.38579   0.14035   0.00000  Uiso   1.00
O795   O     0.95668   0.37619   0.16860   0.00000  Uiso   1.00
O796   O     0.91429   0.32019   0.15949   0.00000  Uiso   1.00
O797   O     0.53945   0.11838   0.82501   0.00000  Uiso   1.00
O798   O     0.59854   0.10527   0.85473   0.00000  Uiso   1.00
O799   O     0.58242   0.17239   0.84077   0.00000  Uiso   1.00
O800   O     0.61583   0.03769   0.82246   0.00000  Uiso   1.00
O801   O     0.55877   0.05220   0.78893   0.00000  Uiso   1.00
O802   O     0.60889   0.01815   0.75036   0.00000  Uiso   1.00
O803   O     0.96964   0.25000   0.66317   0.00000  Uiso   1.00
O804   O     0.89161   0.47709   0.23420   0.00000  Uiso   1.00
O805   O     0.93782   0.44333   0.19883   0.00000  Uiso   1.00
O806   O     0.87697   0.45626   0.16333   0.00000  Uiso   1.00
O807   O     0.53868   0.38083   0.82424   0.00000  Uiso   1.00
O808   O     0.55231   0.43907   0.79283   0.00000  Uiso   1.00
O809   O     0.51891   0.39008   0.75233   0.00000  Uiso   1.00
O810   O     0.97997   0.11034   0.25203   0.00000  Uiso   1.00
O811   O     0.94891   0.05641   0.22782   0.00000  Uiso   1.00
O812   O     0.96691   0.10573   0.17808   0.00000  Uiso   1.00
O813   O     0.88426   0.46230   0.82257   0.00000  Uiso   1.00
O814   O     0.75000   0.03036   0.33683   0.00000  Uiso   1.00
O815   O     0.94122   0.44779   0.78880   0.00000  Uiso   1.00
O816   O     0.89100   0.48180   0.75044   0.00000  Uiso   1.00
O817   O     0.60857   0.02304   0.23447   0.00000  Uiso   1.00
O818   O     0.56169   0.05707   0.20052   0.00000  Uiso   1.00
O819   O     0.62154   0.04397   0.16324   0.00000  Uiso   1.00
O820   O     0.96105   0.11945   0.82470   0.00000  Uiso   1.00
O821   O     0.94754   0.06104   0.79363   0.00000  Uiso   1.00
O822   O     0.98120   0.10978   0.75297   0.00000  Uiso   1.00
O823   O     0.52046   0.39047   0.25274   0.00000  Uiso   1.00
O824   O     0.55042   0.44293   0.22340   0.00000  Uiso   1.00
S825   S     0.62459   0.42387   0.17622   0.00000  Uiso   1.00
S826   S     0.89744   0.44655   0.20582   0.00000  Uiso   1.00
S827   S     0.55020   0.39861   0.78693   0.00000  Uiso   1.00
S828   S     0.95220   0.09695   0.22324   0.00000  Uiso   1.00
S829   S     0.90046   0.45050   0.78463   0.00000  Uiso   1.00
S830   S     0.60221   0.05368   0.20633   0.00000  Uiso   1.00
S831   S     0.94971   0.10147   0.78747   0.00000  Uiso   1.00
S832   S     0.54757   0.40212   0.22241   0.00000  Uiso   1.00
S833   S     0.87553   0.17373   0.67588   0.00000  Uiso   1.00
S834   S     0.62055   0.32822   0.32743   0.00000  Uiso   1.00
S835   S     0.83266   0.38471   0.67031   0.00000  Uiso   1.00
S836   S     0.87012   0.07859   0.82756   0.00000  Uiso   1.00
S837   S     0.67063   0.12054   0.32623   0.00000  Uiso   1.00
S838   S     0.62590   0.32523   0.67672   0.00000  Uiso   1.00
S839   S     0.87949   0.17170   0.32746   0.00000  Uiso   1.00
S840   S     0.66802   0.11535   0.67029   0.00000  Uiso   1.00
S841   S     0.83016   0.38016   0.32671   0.00000  Uiso   1.00
S842   S     0.84970   0.30015   0.28564   0.00000  Uiso   1.00
S843   S     0.64725   0.19692   0.70665   0.00000  Uiso   1.00
S844   S     0.80014   0.14858   0.28715   0.00000  Uiso   1.00
S845   S     0.70267   0.34779   0.72281   0.00000  Uiso   1.00
S846   S     0.65034   0.20030   0.28537   0.00000  Uiso   1.00
S847   S     0.58394   0.13558   0.16975   0.00000  Uiso   1.00
S848   S     0.85287   0.30309   0.70666   0.00000  Uiso   1.00
S849   S     0.69990   0.35139   0.28699   0.00000  Uiso   1.00
S850   S     0.79803   0.15214   0.72156   0.00000  Uiso   1.00
S851   S     0.73202   0.07385   0.10700   0.00000  Uiso   1.00
S852   S     0.79787   0.44034   0.89488   0.00000  Uiso   1.00
S853   S     0.93887   0.20360   0.10504   0.00000  Uiso   1.00
S854   S     0.92774   0.22561   0.89284   0.00000  Uiso   1.00
S855   S     0.76790   0.42611   0.10699   0.00000  Uiso   1.00
S856   S     0.70202   0.05958   0.89492   0.00000  Uiso   1.00
S857   S     0.56023   0.29714   0.10524   0.00000  Uiso   1.00
S858   S     0.92116   0.37109   0.82597   0.00000  Uiso   1.00
S859   S     0.57215   0.27433   0.89289   0.00000  Uiso   1.00
S860   S     0.98348   0.32413   0.60710   0.00000  Uiso   1.00
S861   S     0.54672   0.18954   0.39491   0.00000  Uiso   1.00
S862   S     0.69064   0.45172   0.60508   0.00000  Uiso   1.00
S863   S     0.67785   0.47557   0.39310   0.00000  Uiso   1.00
S864   S     0.51349   0.17463   0.60602   0.00000  Uiso   1.00
S865   S     0.95303   0.31041   0.39479   0.00000  Uiso   1.00
S866   S     0.80987   0.04785   0.60513   0.00000  Uiso   1.00
S867   S     0.82246   0.02355   0.39245   0.00000  Uiso   1.00
S868   S     0.87548   0.07636   0.17603   0.00000  Uiso   1.00
S869   S     0.62950   0.42164   0.82748   0.00000  Uiso   1.00
S870   S     0.91733   0.36479   0.17016   0.00000  Uiso   1.00
S871   S     0.57904   0.12897   0.82589   0.00000  Uiso   1.00
S872   S     0.59952   0.04946   0.78457   0.00000  Uiso   1.00
Zn873  Zn    0.70660   0.00000   0.21760   0.00000  Uiso   1.00
Zn874  Zn    0.54340   0.25000   0.28240   0.00000  Uiso   1.00
Zn875  Zn    0.75000   0.45660   0.71760   0.00000  Uiso   1.00
Zn876  Zn    0.75000   0.04340   0.28240   0.00000  Uiso   1.00
Zn877  Zn    0.54340   0.25000   0.71760   0.00000  Uiso   1.00
Zn878  Zn    0.95660   0.25000   0.28240   0.00000  Uiso   1.00
Zn879  Zn    0.75000   0.04340   0.71760   0.00000  Uiso   1.00
Zn880  Zn    0.75000   0.45660   0.28240   0.00000  Uiso   1.00
Zn881  Zn    0.79340   0.00000   0.78240   0.00000  Uiso   1.00
Zn882  Zn    0.50000   0.20660   0.21760   0.00000  Uiso   1.00
Zn883  Zn    0.50000   0.29340   0.78240   0.00000  Uiso   1.00
Zn884  Zn    0.79340   0.00000   0.21760   0.00000  Uiso   1.00
Zn885  Zn    0.70660   0.00000   0.78240   0.00000  Uiso   1.00
Zn886  Zn    0.50000   0.29340   0.21760   0.00000  Uiso   1.00
Zn887  Zn    0.50000   0.20660   0.78240   0.00000  Uiso   1.00
Zn888  Zn    0.95660   0.25000   0.71760   0.00000  Uiso   1.00
C889   C     0.24389   0.53238   0.04244   0.00000  Uiso   1.00
C890   C     0.02202   0.72566   0.45851   0.00000  Uiso   1.00
C891   C     0.35251   0.90598   0.74426   0.00000  Uiso   1.00
C892   C     0.40565   0.64786   0.25638   0.00000  Uiso   1.00
C893   C     0.09603   0.85128   0.74609   0.00000  Uiso   1.00
C894   C     0.35158   0.90432   0.25332   0.00000  Uiso   1.00
C895   C     0.14747   0.59396   0.74412   0.00000  Uiso   1.00
C896   C     0.10134   0.65400   0.75313   0.00000  Uiso   1.00
C897   C     0.39752   0.84410   0.24441   0.00000  Uiso   1.00
C898   C     0.15568   0.89786   0.75641   0.00000  Uiso   1.00
C899   C     0.34584   0.60146   0.24593   0.00000  Uiso   1.00
C900   C     0.39857   0.84588   0.75339   0.00000  Uiso   1.00
C901   C     0.22676   0.97678   0.54159   0.00000  Uiso   1.00
C902   C     0.10266   0.65613   0.24423   0.00000  Uiso   1.00
C903   C     0.34444   0.60210   0.75616   0.00000  Uiso   1.00
C904   C     0.15411   0.89861   0.24603   0.00000  Uiso   1.00
C905   C     0.25001   0.50000   0.10308   0.00000  Uiso   1.00
C906   C     0.24997   0.99999   0.89753   0.00000  Uiso   1.00
C907   C     0.49983   0.75010   0.10258   0.00000  Uiso   1.00
C908   C     0.49993   0.75002   0.89685   0.00000  Uiso   1.00
C909   C     0.49981   0.74987   0.60310   0.00000  Uiso   1.00
C910   C     0.49998   0.75006   0.39753   0.00000  Uiso   1.00
C911   C     0.25015   0.99992   0.60252   0.00000  Uiso   1.00
C912   C     0.21827   0.99138   0.45752   0.00000  Uiso   1.00
C913   C     0.25008   0.99989   0.39683   0.00000  Uiso   1.00
C914   C     0.00453   0.71743   0.54234   0.00000  Uiso   1.00
C915   C     0.47797   0.77463   0.45847   0.00000  Uiso   1.00
C916   C     0.27394   0.52276   0.54159   0.00000  Uiso   1.00
C917   C     0.28223   0.50831   0.45731   0.00000  Uiso   1.00
C918   C     0.24302   0.53260   0.08283   0.00000  Uiso   1.00
C919   C     0.27174   0.97468   0.91811   0.00000  Uiso   1.00
C920   C     0.47416   0.72874   0.08201   0.00000  Uiso   1.00
C921   C     0.27257   0.97602   0.95847   0.00000  Uiso   1.00
C922   C     0.46791   0.74027   0.91707   0.00000  Uiso   1.00
C923   C     0.25696   0.96738   0.08284   0.00000  Uiso   1.00
C924   C     0.22818   0.52528   0.91813   0.00000  Uiso   1.00
C925   C     0.02533   0.77167   0.08200   0.00000  Uiso   1.00
C926   C     0.03187   0.75987   0.91711   0.00000  Uiso   1.00
C927   C     0.49389   0.78273   0.58290   0.00000  Uiso   1.00
C928   C     0.02123   0.72435   0.41814   0.00000  Uiso   1.00
C929   C     0.22509   0.97787   0.58192   0.00000  Uiso   1.00
C930   C     0.21815   0.99011   0.41718   0.00000  Uiso   1.00
C931   C     0.00513   0.71697   0.58273   0.00000  Uiso   1.00
C932   C     0.47577   0.72764   0.04169   0.00000  Uiso   1.00
C933   C     0.47874   0.77583   0.41809   0.00000  Uiso   1.00
C934   C     0.27541   0.52179   0.58193   0.00000  Uiso   1.00
C935   C     0.28218   0.50947   0.41693   0.00000  Uiso   1.00
C936   C     0.24998   0.99999   0.02190   0.00000  Uiso   1.00
C937   C     0.24997   0.99998   0.97902   0.00000  Uiso   1.00
C938   C     0.49977   0.75020   0.02105   0.00000  Uiso   1.00
C939   C     0.49981   0.75018   0.97807   0.00000  Uiso   1.00
C940   C     0.49987   0.75009   0.52189   0.00000  Uiso   1.00
C941   C     0.49999   0.75016   0.47902   0.00000  Uiso   1.00
C942   C     0.25035   0.99979   0.52098   0.00000  Uiso   1.00
C943   C     0.46785   0.74172   0.95742   0.00000  Uiso   1.00
C944   C     0.25030   0.99985   0.47803   0.00000  Uiso   1.00
C945   C     0.24993   0.99998   0.35487   0.00000  Uiso   1.00
C946   C     0.25003   0.99999   0.64490   0.00000  Uiso   1.00
C947   C     0.49999   0.75001   0.35516   0.00000  Uiso   1.00
C948   C     0.49998   0.75000   0.64506   0.00000  Uiso   1.00
C949   C     0.49998   0.75000   0.85487   0.00000  Uiso   1.00
C950   C     0.49996   0.75001   0.14492   0.00000  Uiso   1.00
C951   C     0.24999   0.50000   0.85516   0.00000  Uiso   1.00
C952   C     0.25001   0.50001   0.14507   0.00000  Uiso   1.00
C953   C     0.17849   0.56886   0.25176   0.00000  Uiso   1.00
C954   C     0.25608   0.96760   0.04245   0.00000  Uiso   1.00
C955   C     0.32168   0.93162   0.74768   0.00000  Uiso   1.00
C956   C     0.43157   0.67839   0.25251   0.00000  Uiso   1.00
C957   C     0.06889   0.82145   0.74803   0.00000  Uiso   1.00
C958   C     0.32153   0.93118   0.25176   0.00000  Uiso   1.00
C959   C     0.17831   0.56835   0.74765   0.00000  Uiso   1.00
C960   C     0.06844   0.82159   0.25250   0.00000  Uiso   1.00
C961   C     0.43118   0.67851   0.74801   0.00000  Uiso   1.00
C962   C     0.18157   0.92840   0.75251   0.00000  Uiso   1.00
C963   C     0.31885   0.57149   0.24798   0.00000  Uiso   1.00
C964   C     0.42850   0.81886   0.75178   0.00000  Uiso   1.00
C965   C     0.22737   0.52393   0.95849   0.00000  Uiso   1.00
C966   C     0.07171   0.68165   0.24768   0.00000  Uiso   1.00
C967   C     0.31846   0.57159   0.75245   0.00000  Uiso   1.00
C968   C     0.18115   0.92852   0.24801   0.00000  Uiso   1.00
C969   C     0.07148   0.68110   0.75171   0.00000  Uiso   1.00
C970   C     0.42832   0.81841   0.24774   0.00000  Uiso   1.00
C971   C     0.12263   0.90236   0.22252   0.00000  Uiso   1.00
C972   C     0.37497   0.59894   0.78084   0.00000  Uiso   1.00
C973   C     0.10099   0.62741   0.21739   0.00000  Uiso   1.00
C974   C     0.40133   0.87589   0.77898   0.00000  Uiso   1.00
C975   C     0.37730   0.59781   0.22234   0.00000  Uiso   1.00
C976   C     0.02373   0.77281   0.04168   0.00000  Uiso   1.00
C977   C     0.12497   0.90113   0.78081   0.00000  Uiso   1.00
C978   C     0.39928   0.87281   0.21749   0.00000  Uiso   1.00
C979   C     0.09858   0.62401   0.77875   0.00000  Uiso   1.00
C980   C     0.11816   0.59229   0.77054   0.00000  Uiso   1.00
C981   C     0.37983   0.90488   0.22499   0.00000  Uiso   1.00
C982   C     0.09348   0.88104   0.77218   0.00000  Uiso   1.00
C983   C     0.40875   0.61749   0.23174   0.00000  Uiso   1.00
C984   C     0.38178   0.90764   0.77072   0.00000  Uiso   1.00
C985   C     0.12028   0.59530   0.22505   0.00000  Uiso   1.00
C986   C     0.40654   0.61898   0.77234   0.00000  Uiso   1.00
C987   C     0.03182   0.75858   0.95746   0.00000  Uiso   1.00
C988   C     0.09124   0.88254   0.23187   0.00000  Uiso   1.00
C989   C     0.37299   0.65214   0.72214   0.00000  Uiso   1.00
C990   C     0.12510   0.84879   0.28079   0.00000  Uiso   1.00
C991   C     0.35052   0.87698   0.71773   0.00000  Uiso   1.00
C992   C     0.15124   0.62576   0.27908   0.00000  Uiso   1.00
C993   C     0.12761   0.84740   0.72270   0.00000  Uiso   1.00
C994   C     0.37494   0.65115   0.28081   0.00000  Uiso   1.00
C995   C     0.14949   0.62294   0.71752   0.00000  Uiso   1.00
C996   C     0.34912   0.87465   0.27937   0.00000  Uiso   1.00
C997   C     0.36854   0.84279   0.27130   0.00000  Uiso   1.00
C998   C     0.49483   0.78260   0.54250   0.00000  Uiso   1.00
C999   C     0.12984   0.65486   0.72512   0.00000  Uiso   1.00
C1000  C     0.34340   0.63110   0.27219   0.00000  Uiso   1.00
C1001  C     0.15894   0.86734   0.73200   0.00000  Uiso   1.00
C1002  C     0.13173   0.65757   0.27097   0.00000  Uiso   1.00
C1003  C     0.37005   0.84502   0.72544   0.00000  Uiso   1.00
C1004  C     0.15661   0.86889   0.27219   0.00000  Uiso   1.00
C1005  C     0.34153   0.63236   0.73130   0.00000  Uiso   1.00
C1006  C     0.09439   0.85209   0.25638   0.00000  Uiso   1.00
C1007  C     0.40422   0.64856   0.74600   0.00000  Uiso   1.00
C1008  C     0.14857   0.59589   0.25328   0.00000  Uiso   1.00
H1009  H     0.23992   0.55771   0.02705   0.00000  Uiso   1.00
H1010  H     0.03993   0.70728   0.47396   0.00000  Uiso   1.00
H1011  H     0.20930   0.95786   0.52637   0.00000  Uiso   1.00
H1012  H     0.19313   0.98586   0.47283   0.00000  Uiso   1.00
H1013  H     0.00753   0.69198   0.52688   0.00000  Uiso   1.00
H1014  H     0.46000   0.79299   0.47386   0.00000  Uiso   1.00
H1015  H     0.29152   0.54160   0.52637   0.00000  Uiso   1.00
H1016  H     0.30745   0.51393   0.47245   0.00000  Uiso   1.00
H1017  H     0.16693   0.93908   0.13565   0.00000  Uiso   1.00
H1018  H     0.32473   0.56556   0.86533   0.00000  Uiso   1.00
H1019  H     0.07168   0.68330   0.13534   0.00000  Uiso   1.00
H1020  H     0.29099   0.95810   0.97384   0.00000  Uiso   1.00
H1021  H     0.43258   0.82645   0.86490   0.00000  Uiso   1.00
H1022  H     0.33338   0.55988   0.13577   0.00000  Uiso   1.00
H1023  H     0.17464   0.93488   0.86544   0.00000  Uiso   1.00
H1024  H     0.42890   0.81704   0.13553   0.00000  Uiso   1.00
H1025  H     0.10895   0.67771   0.84051   0.00000  Uiso   1.00
H1026  H     0.09554   0.99601   0.75855   0.00000  Uiso   1.00
H1027  H     0.35916   0.97582   0.16886   0.00000  Uiso   1.00
H1028  H     0.49724   0.90461   0.75973   0.00000  Uiso   1.00
H1029  H     0.47755   0.63040   0.17944   0.00000  Uiso   1.00
H1030  H     0.40406   0.50406   0.75879   0.00000  Uiso   1.00
H1031  H     0.45789   0.70904   0.02654   0.00000  Uiso   1.00
H1032  H     0.14085   0.52583   0.16857   0.00000  Uiso   1.00
H1033  H     0.00272   0.59505   0.76040   0.00000  Uiso   1.00
H1034  H     0.02357   0.91125   0.16583   0.00000  Uiso   1.00
H1035  H     0.41848   0.68736   0.63532   0.00000  Uiso   1.00
H1036  H     0.07540   0.81501   0.36546   0.00000  Uiso   1.00
H1037  H     0.32167   0.93232   0.63526   0.00000  Uiso   1.00
H1038  H     0.14065   0.57175   0.34049   0.00000  Uiso   1.00
H1039  H     0.08383   0.81101   0.63548   0.00000  Uiso   1.00
H1040  H     0.42464   0.68493   0.36542   0.00000  Uiso   1.00
H1041  H     0.13829   0.56543   0.66004   0.00000  Uiso   1.00
H1042  H     0.44262   0.73630   0.97259   0.00000  Uiso   1.00
H1043  H     0.37809   0.86302   0.35830   0.00000  Uiso   1.00
H1044  H     0.34455   0.74689   0.25939   0.00000  Uiso   1.00
H1045  H     0.10509   0.69129   0.66275   0.00000  Uiso   1.00
H1046  H     0.24686   0.65406   0.26054   0.00000  Uiso   1.00
H1047  H     0.22703   0.83882   0.66636   0.00000  Uiso   1.00
H1048  H     0.15532   0.75360   0.25915   0.00000  Uiso   1.00
H1049  H     0.35783   0.78258   0.64787   0.00000  Uiso   1.00
H1050  H     0.25368   0.84736   0.26119   0.00000  Uiso   1.00
H1051  H     0.27409   0.66099   0.66492   0.00000  Uiso   1.00
H1052  H     0.17385   0.56727   0.09936   0.00000  Uiso   1.00
H1053  H     0.26004   0.94226   0.02707   0.00000  Uiso   1.00
H1054  H     0.25233   0.91460   0.86597   0.00000  Uiso   1.00
H1055  H     0.46445   0.65160   0.09465   0.00000  Uiso   1.00
H1056  H     0.39368   0.70085   0.93691   0.00000  Uiso   1.00
H1057  H     0.32603   0.93218   0.09851   0.00000  Uiso   1.00
H1058  H     0.24750   0.58547   0.86600   0.00000  Uiso   1.00
H1059  H     0.03155   0.84815   0.09941   0.00000  Uiso   1.00
H1060  H     0.10597   0.79945   0.93689   0.00000  Uiso   1.00
H1061  H     0.42529   0.81871   0.59854   0.00000  Uiso   1.00
H1062  H     0.00092   0.66440   0.36587   0.00000  Uiso   1.00
H1063  H     0.22022   0.90125   0.59902   0.00000  Uiso   1.00
H1064  H     0.20895   0.54185   0.97388   0.00000  Uiso   1.00
H1065  H     0.14393   0.95071   0.43723   0.00000  Uiso   1.00
H1066  H     0.06734   0.66807   0.58134   0.00000  Uiso   1.00
H1067  H     0.49864   0.83560   0.36542   0.00000  Uiso   1.00
H1068  H     0.28108   0.59864   0.59803   0.00000  Uiso   1.00
H1069  H     0.34866   0.51019   0.33804   0.00000  Uiso   1.00
H1070  H     0.04153   0.79147   0.02650   0.00000  Uiso   1.00
H1071  H     0.05701   0.76403   0.97266   0.00000  Uiso   1.00
H1072  H     0.49166   0.80807   0.52716   0.00000  Uiso   1.00
O1073  O     0.25000   0.50000   0.25000   0.00000  Uiso   1.00
O1074  O     0.25000   0.96964   0.66317   0.00000  Uiso   1.00
O1075  O     0.03250   0.88884   0.17866   0.00000  Uiso   1.00
O1076  O     0.35089   0.65484   0.64746   0.00000  Uiso   1.00
O1077  O     0.36409   0.71281   0.67946   0.00000  Uiso   1.00
O1078  O     0.41849   0.67170   0.65871   0.00000  Uiso   1.00
O1079  O     0.13183   0.78899   0.32547   0.00000  Uiso   1.00
O1080  O     0.14400   0.84762   0.35660   0.00000  Uiso   1.00
O1081  O     0.07678   0.83075   0.34218   0.00000  Uiso   1.00
O1082  O     0.35359   0.86297   0.64083   0.00000  Uiso   1.00
O1083  O     0.29313   0.87395   0.66890   0.00000  Uiso   1.00
O1084  O     0.33644   0.92913   0.65908   0.00000  Uiso   1.00
O1085  O     0.46964   0.75000   0.33683   0.00000  Uiso   1.00
O1086  O     0.21023   0.63111   0.32552   0.00000  Uiso   1.00
O1087  O     0.15105   0.64409   0.35516   0.00000  Uiso   1.00
O1088  O     0.16718   0.57704   0.34082   0.00000  Uiso   1.00
O1089  O     0.15095   0.84382   0.64845   0.00000  Uiso   1.00
O1090  O     0.13737   0.78623   0.68104   0.00000  Uiso   1.00
O1091  O     0.08330   0.82691   0.65867   0.00000  Uiso   1.00
O1092  O     0.36820   0.71093   0.32552   0.00000  Uiso   1.00
O1093  O     0.35606   0.65228   0.35665   0.00000  Uiso   1.00
O1094  O     0.42326   0.66918   0.34215   0.00000  Uiso   1.00
O1095  O     0.14782   0.63719   0.64035   0.00000  Uiso   1.00
O1096  O     0.03036   0.75000   0.66317   0.00000  Uiso   1.00
O1097  O     0.20757   0.62606   0.66952   0.00000  Uiso   1.00
O1098  O     0.16473   0.57102   0.65859   0.00000  Uiso   1.00
O1099  O     0.33314   0.91916   0.33941   0.00000  Uiso   1.00
O1100  O     0.29062   0.86931   0.32662   0.00000  Uiso   1.00
O1101  O     0.35252   0.85420   0.35905   0.00000  Uiso   1.00
O1102  O     0.36655   0.78801   0.32312   0.00000  Uiso   1.00
O1103  O     0.30906   0.80326   0.29082   0.00000  Uiso   1.00
O1104  O     0.35815   0.76886   0.25113   0.00000  Uiso   1.00
O1105  O     0.14291   0.72616   0.73680   0.00000  Uiso   1.00
O1106  O     0.18721   0.69353   0.69739   0.00000  Uiso   1.00
O1107  O     0.00000   0.71964   0.83683   0.00000  Uiso   1.00
O1108  O     0.12490   0.70934   0.66608   0.00000  Uiso   1.00
O1109  O     0.28871   0.63065   0.32441   0.00000  Uiso   1.00
O1110  O     0.30221   0.68902   0.29321   0.00000  Uiso   1.00
O1111  O     0.26877   0.64015   0.25261   0.00000  Uiso   1.00
O1112  O     0.22954   0.85940   0.75337   0.00000  Uiso   1.00
O1113  O     0.19983   0.80698   0.72366   0.00000  Uiso   1.00
O1114  O     0.21805   0.86120   0.67922   0.00000  Uiso   1.00
O1115  O     0.13374   0.71195   0.32317   0.00000  Uiso   1.00
O1116  O     0.19105   0.69746   0.29004   0.00000  Uiso   1.00
O1117  O     0.14131   0.73178   0.25123   0.00000  Uiso   1.00
O1118  O     0.00000   0.78036   0.16317   0.00000  Uiso   1.00
O1119  O     0.35705   0.77346   0.73640   0.00000  Uiso   1.00
O1120  O     0.31296   0.80647   0.69706   0.00000  Uiso   1.00
O1121  O     0.37630   0.79177   0.66642   0.00000  Uiso   1.00
O1122  O     0.21143   0.86927   0.32423   0.00000  Uiso   1.00
O1123  O     0.19786   0.81094   0.29301   0.00000  Uiso   1.00
O1124  O     0.23121   0.85984   0.25236   0.00000  Uiso   1.00
O1125  O     0.27076   0.64091   0.75191   0.00000  Uiso   1.00
O1126  O     0.30118   0.69294   0.72218   0.00000  Uiso   1.00
O1127  O     0.28302   0.63865   0.67788   0.00000  Uiso   1.00
O1128  O     0.25669   0.57944   0.14127   0.00000  Uiso   1.00
O1129  O     0.28036   0.50000   0.83683   0.00000  Uiso   1.00
O1130  O     0.23582   0.60581   0.08007   0.00000  Uiso   1.00
O1131  O     0.18870   0.57163   0.12292   0.00000  Uiso   1.00
O1132  O     0.33350   0.95667   0.88221   0.00000  Uiso   1.00
O1133  O     0.30559   0.90959   0.92245   0.00000  Uiso   1.00
O1134  O     0.27591   0.92379   0.85583   0.00000  Uiso   1.00
O1135  O     0.42484   0.72354   0.14008   0.00000  Uiso   1.00
O1136  O     0.40763   0.69748   0.07751   0.00000  Uiso   1.00
O1137  O     0.45553   0.66309   0.11885   0.00000  Uiso   1.00
O1138  O     0.41901   0.75084   0.85986   0.00000  Uiso   1.00
O1139  O     0.43397   0.68811   0.87671   0.00000  Uiso   1.00
O1140  O     0.21964   0.50000   0.16317   0.00000  Uiso   1.00
O1141  O     0.39188   0.72457   0.92339   0.00000  Uiso   1.00
O1142  O     0.24359   0.92077   0.14162   0.00000  Uiso   1.00
O1143  O     0.26355   0.89413   0.08020   0.00000  Uiso   1.00
O1144  O     0.31142   0.92804   0.12229   0.00000  Uiso   1.00
O1145  O     0.16641   0.54320   0.88226   0.00000  Uiso   1.00
O1146  O     0.19423   0.59031   0.92250   0.00000  Uiso   1.00
O1147  O     0.22397   0.57619   0.85586   0.00000  Uiso   1.00
O1148  O     0.07610   0.77583   0.13841   0.00000  Uiso   1.00
O1149  O     0.09032   0.80625   0.07717   0.00000  Uiso   1.00
O1150  O     0.04223   0.83594   0.12237   0.00000  Uiso   1.00
O1151  O     0.00000   0.78036   0.83683   0.00000  Uiso   1.00
O1152  O     0.08099   0.74877   0.86023   0.00000  Uiso   1.00
O1153  O     0.06598   0.81166   0.87631   0.00000  Uiso   1.00
O1154  O     0.10788   0.77566   0.92354   0.00000  Uiso   1.00
O1155  O     0.00775   0.82908   0.64179   0.00000  Uiso   1.00
O1156  O     0.48832   0.85610   0.58038   0.00000  Uiso   1.00
O1157  O     0.43989   0.82273   0.62234   0.00000  Uiso   1.00
O1158  O     0.08270   0.70517   0.38238   0.00000  Uiso   1.00
O1159  O     0.05375   0.65859   0.42244   0.00000  Uiso   1.00
O1160  O     0.02454   0.67350   0.35576   0.00000  Uiso   1.00
O1161  O     0.17437   0.97262   0.63834   0.00000  Uiso   1.00
O1162  O     0.00000   0.71964   0.16317   0.00000  Uiso   1.00
O1163  O     0.16073   0.94218   0.57700   0.00000  Uiso   1.00
O1164  O     0.20933   0.91318   0.62204   0.00000  Uiso   1.00
O1165  O     0.16904   0.50093   0.36026   0.00000  Uiso   1.00
O1166  O     0.18397   0.93812   0.37679   0.00000  Uiso   1.00
O1167  O     0.14212   0.97448   0.42380   0.00000  Uiso   1.00
O1168  O     0.49795   0.67362   0.64634   0.00000  Uiso   1.00
O1169  O     0.49683   0.64423   0.58281   0.00000  Uiso   1.00
O1170  O     0.05884   0.66804   0.60862   0.00000  Uiso   1.00
O1171  O     0.41712   0.79447   0.38249   0.00000  Uiso   1.00
O1172  O     0.44586   0.84142   0.42219   0.00000  Uiso   1.00
O1173  O     0.21964   0.50000   0.83683   0.00000  Uiso   1.00
O1174  O     0.47500   0.82642   0.35547   0.00000  Uiso   1.00
O1175  O     0.32564   0.52719   0.63882   0.00000  Uiso   1.00
O1176  O     0.34013   0.55683   0.57723   0.00000  Uiso   1.00
O1177  O     0.29132   0.58672   0.62138   0.00000  Uiso   1.00
O1178  O     0.31742   0.56219   0.37921   0.00000  Uiso   1.00
O1179  O     0.35490   0.52159   0.41908   0.00000  Uiso   1.00
O1180  O     0.33013   0.99700   0.35357   0.00000  Uiso   1.00
O1181  O     0.25000   0.50000   0.75000   0.00000  Uiso   1.00
O1182  O     0.28036   0.50000   0.16317   0.00000  Uiso   1.00
O1183  O     0.20725   0.57307   0.27282   0.00000  Uiso   1.00
O1184  O     0.29274   0.92693   0.72718   0.00000  Uiso   1.00
O1185  O     0.42693   0.70726   0.27282   0.00000  Uiso   1.00
O1186  O     0.07307   0.79274   0.72718   0.00000  Uiso   1.00
O1187  O     0.29274   0.92693   0.27282   0.00000  Uiso   1.00
O1188  O     0.20725   0.57307   0.72718   0.00000  Uiso   1.00
O1189  O     0.07307   0.79274   0.27282   0.00000  Uiso   1.00
O1190  O     0.42693   0.70726   0.72718   0.00000  Uiso   1.00
O1191  O     0.20725   0.92693   0.72718   0.00000  Uiso   1.00
O1192  O     0.00000   0.75000   0.25000   0.00000  Uiso   1.00
O1193  O     0.29274   0.57307   0.27282   0.00000  Uiso   1.00
O1194  O     0.42693   0.79275   0.72718   0.00000  Uiso   1.00
O1195  O     0.07307   0.70725   0.27282   0.00000  Uiso   1.00
O1196  O     0.29274   0.57307   0.72718   0.00000  Uiso   1.00
O1197  O     0.20725   0.92693   0.27282   0.00000  Uiso   1.00
O1198  O     0.07307   0.70725   0.72718   0.00000  Uiso   1.00
O1199  O     0.42693   0.79275   0.27282   0.00000  Uiso   1.00
O1200  O     0.45725   0.82307   0.77282   0.00000  Uiso   1.00
O1201  O     0.04274   0.67693   0.22718   0.00000  Uiso   1.00
O1202  O     0.17693   0.95725   0.77282   0.00000  Uiso   1.00
O1203  O     0.00000   0.75000   0.75000   0.00000  Uiso   1.00
O1204  O     0.32307   0.54275   0.22718   0.00000  Uiso   1.00
O1205  O     0.04274   0.67693   0.77282   0.00000  Uiso   1.00
O1206  O     0.45725   0.82307   0.22718   0.00000  Uiso   1.00
O1207  O     0.32307   0.54275   0.77282   0.00000  Uiso   1.00
O1208  O     0.17693   0.95725   0.22718   0.00000  Uiso   1.00
O1209  O     0.45725   0.67693   0.22718   0.00000  Uiso   1.00
O1210  O     0.04274   0.82307   0.77282   0.00000  Uiso   1.00
O1211  O     0.17693   0.54275   0.22718   0.00000  Uiso   1.00
O1212  O     0.32307   0.95725   0.77282   0.00000  Uiso   1.00
O1213  O     0.04274   0.82307   0.22718   0.00000  Uiso   1.00
O1214  O     0.25000   0.96964   0.33683   0.00000  Uiso   1.00
O1215  O     0.45725   0.67693   0.77282   0.00000  Uiso   1.00
O1216  O     0.32307   0.95725   0.22718   0.00000  Uiso   1.00
O1217  O     0.17693   0.54275   0.77282   0.00000  Uiso   1.00
O1218  O     0.10055   0.90406   0.14792   0.00000  Uiso   1.00
O1219  O     0.11178   0.96251   0.17965   0.00000  Uiso   1.00
O1220  O     0.16751   0.92323   0.15888   0.00000  Uiso   1.00
O1221  O     0.38140   0.53935   0.82590   0.00000  Uiso   1.00
O1222  O     0.39340   0.59813   0.85678   0.00000  Uiso   1.00
O1223  O     0.32627   0.58121   0.84199   0.00000  Uiso   1.00
O1224  O     0.10682   0.61574   0.14039   0.00000  Uiso   1.00
O1225  O     0.25000   0.53036   0.66317   0.00000  Uiso   1.00
O1226  O     0.04515   0.62271   0.16674   0.00000  Uiso   1.00
O1227  O     0.08563   0.68039   0.15976   0.00000  Uiso   1.00
O1228  O     0.46064   0.88208   0.82479   0.00000  Uiso   1.00
O1229  O     0.40136   0.89458   0.85479   0.00000  Uiso   1.00
O1230  O     0.41801   0.82760   0.84073   0.00000  Uiso   1.00
O1231  O     0.39863   0.59704   0.14757   0.00000  Uiso   1.00
O1232  O     0.38962   0.53816   0.17922   0.00000  Uiso   1.00
O1233  O     0.33246   0.57569   0.15903   0.00000  Uiso   1.00
O1234  O     0.11816   0.96085   0.82559   0.00000  Uiso   1.00
O1235  O     0.10608   0.90215   0.85664   0.00000  Uiso   1.00
O1236  O     0.03036   0.75000   0.33683   0.00000  Uiso   1.00
O1237  O     0.17327   0.91914   0.84217   0.00000  Uiso   1.00
O1238  O     0.39608   0.88579   0.14035   0.00000  Uiso   1.00
O1239  O     0.45668   0.87619   0.16860   0.00000  Uiso   1.00
O1240  O     0.41429   0.82019   0.15949   0.00000  Uiso   1.00
O1241  O     0.03945   0.61838   0.82501   0.00000  Uiso   1.00
O1242  O     0.09854   0.60527   0.85473   0.00000  Uiso   1.00
O1243  O     0.08242   0.67239   0.84077   0.00000  Uiso   1.00
O1244  O     0.11583   0.53769   0.82246   0.00000  Uiso   1.00
O1245  O     0.05877   0.55220   0.78893   0.00000  Uiso   1.00
O1246  O     0.10889   0.51815   0.75036   0.00000  Uiso   1.00
O1247  O     0.46964   0.75000   0.66317   0.00000  Uiso   1.00
O1248  O     0.39161   0.97709   0.23420   0.00000  Uiso   1.00
O1249  O     0.43782   0.94333   0.19883   0.00000  Uiso   1.00
O1250  O     0.37697   0.95626   0.16333   0.00000  Uiso   1.00
O1251  O     0.03868   0.88083   0.82424   0.00000  Uiso   1.00
O1252  O     0.05231   0.93907   0.79283   0.00000  Uiso   1.00
O1253  O     0.01891   0.89008   0.75233   0.00000  Uiso   1.00
O1254  O     0.47997   0.61034   0.25203   0.00000  Uiso   1.00
O1255  O     0.44891   0.55641   0.22782   0.00000  Uiso   1.00
O1256  O     0.46691   0.60573   0.17808   0.00000  Uiso   1.00
O1257  O     0.38426   0.96230   0.82257   0.00000  Uiso   1.00
O1258  O     0.25000   0.53036   0.33683   0.00000  Uiso   1.00
O1259  O     0.44122   0.94779   0.78880   0.00000  Uiso   1.00
O1260  O     0.39100   0.98180   0.75044   0.00000  Uiso   1.00
O1261  O     0.10857   0.52304   0.23447   0.00000  Uiso   1.00
O1262  O     0.06169   0.55707   0.20052   0.00000  Uiso   1.00
O1263  O     0.12154   0.54397   0.16324   0.00000  Uiso   1.00
O1264  O     0.46105   0.61945   0.82470   0.00000  Uiso   1.00
O1265  O     0.44754   0.56104   0.79363   0.00000  Uiso   1.00
O1266  O     0.48120   0.60978   0.75297   0.00000  Uiso   1.00
O1267  O     0.02046   0.89047   0.25274   0.00000  Uiso   1.00
O1268  O     0.05042   0.94293   0.22340   0.00000  Uiso   1.00
S1269  S     0.12459   0.92387   0.17622   0.00000  Uiso   1.00
S1270  S     0.39744   0.94655   0.20582   0.00000  Uiso   1.00
S1271  S     0.05020   0.89861   0.78693   0.00000  Uiso   1.00
S1272  S     0.45220   0.59695   0.22324   0.00000  Uiso   1.00
S1273  S     0.40046   0.95050   0.78463   0.00000  Uiso   1.00
S1274  S     0.10221   0.55368   0.20633   0.00000  Uiso   1.00
S1275  S     0.44971   0.60147   0.78747   0.00000  Uiso   1.00
S1276  S     0.04757   0.90212   0.22241   0.00000  Uiso   1.00
S1277  S     0.37553   0.67373   0.67588   0.00000  Uiso   1.00
S1278  S     0.12055   0.82822   0.32743   0.00000  Uiso   1.00
S1279  S     0.33266   0.88471   0.67031   0.00000  Uiso   1.00
S1280  S     0.37012   0.57859   0.82756   0.00000  Uiso   1.00
S1281  S     0.17063   0.62054   0.32623   0.00000  Uiso   1.00
S1282  S     0.12590   0.82523   0.67672   0.00000  Uiso   1.00
S1283  S     0.37949   0.67170   0.32746   0.00000  Uiso   1.00
S1284  S     0.16802   0.61535   0.67029   0.00000  Uiso   1.00
S1285  S     0.33016   0.88016   0.32671   0.00000  Uiso   1.00
S1286  S     0.34970   0.80015   0.28564   0.00000  Uiso   1.00
S1287  S     0.14725   0.69692   0.70665   0.00000  Uiso   1.00
S1288  S     0.30014   0.64858   0.28715   0.00000  Uiso   1.00
S1289  S     0.20267   0.84779   0.72281   0.00000  Uiso   1.00
S1290  S     0.15034   0.70030   0.28537   0.00000  Uiso   1.00
S1291  S     0.08394   0.63558   0.16975   0.00000  Uiso   1.00
S1292  S     0.35287   0.80309   0.70666   0.00000  Uiso   1.00
S1293  S     0.19990   0.85139   0.28699   0.00000  Uiso   1.00
S1294  S     0.29803   0.65214   0.72156   0.00000  Uiso   1.00
S1295  S     0.23202   0.57385   0.10700   0.00000  Uiso   1.00
S1296  S     0.29787   0.94034   0.89488   0.00000  Uiso   1.00
S1297  S     0.43887   0.70360   0.10504   0.00000  Uiso   1.00
S1298  S     0.42774   0.72561   0.89284   0.00000  Uiso   1.00
S1299  S     0.26790   0.92611   0.10699   0.00000  Uiso   1.00
S1300  S     0.20202   0.55958   0.89492   0.00000  Uiso   1.00
S1301  S     0.06023   0.79714   0.10524   0.00000  Uiso   1.00
S1302  S     0.42116   0.87109   0.82597   0.00000  Uiso   1.00
S1303  S     0.07215   0.77433   0.89289   0.00000  Uiso   1.00
S1304  S     0.48348   0.82413   0.60710   0.00000  Uiso   1.00
S1305  S     0.04672   0.68954   0.39491   0.00000  Uiso   1.00
S1306  S     0.19064   0.95172   0.60508   0.00000  Uiso   1.00
S1307  S     0.17785   0.97557   0.39310   0.00000  Uiso   1.00
S1308  S     0.01349   0.67463   0.60602   0.00000  Uiso   1.00
S1309  S     0.45303   0.81041   0.39479   0.00000  Uiso   1.00
S1310  S     0.30987   0.54785   0.60513   0.00000  Uiso   1.00
S1311  S     0.32246   0.52355   0.39245   0.00000  Uiso   1.00
S1312  S     0.37548   0.57636   0.17603   0.00000  Uiso   1.00
S1313  S     0.12950   0.92164   0.82748   0.00000  Uiso   1.00
S1314  S     0.41733   0.86479   0.17016   0.00000  Uiso   1.00
S1315  S     0.07904   0.62897   0.82589   0.00000  Uiso   1.00
S1316  S     0.09952   0.54946   0.78457   0.00000  Uiso   1.00
Zn1317 Zn    0.20660   0.50000   0.21760   0.00000  Uiso   1.00
Zn1318 Zn    0.04340   0.75000   0.28240   0.00000  Uiso   1.00
Zn1319 Zn    0.25000   0.95660   0.71760   0.00000  Uiso   1.00
Zn1320 Zn    0.25000   0.54340   0.28240   0.00000  Uiso   1.00
Zn1321 Zn    0.04340   0.75000   0.71760   0.00000  Uiso   1.00
Zn1322 Zn    0.45660   0.75000   0.28240   0.00000  Uiso   1.00
Zn1323 Zn    0.25000   0.54340   0.71760   0.00000  Uiso   1.00
Zn1324 Zn    0.25000   0.95660   0.28240   0.00000  Uiso   1.00
Zn1325 Zn    0.29340   0.50000   0.78240   0.00000  Uiso   1.00
Zn1326 Zn    0.00000   0.70660   0.21760   0.00000  Uiso   1.00
Zn1327 Zn   -0.00000   0.79340   0.78240   0.00000  Uiso   1.00
Zn1328 Zn    0.29340   0.50000   0.21760   0.00000  Uiso   1.00
Zn1329 Zn    0.20660   0.50000   0.78240   0.00000  Uiso   1.00
Zn1330 Zn   -0.00000   0.79340   0.21760   0.00000  Uiso   1.00
Zn1331 Zn    0.00000   0.70660   0.78240   0.00000  Uiso   1.00
Zn1332 Zn    0.45660   0.75000   0.71760   0.00000  Uiso   1.00
C1333  C     0.74389   0.53238   0.04244   0.00000  Uiso   1.00
C1334  C     0.52202   0.72566   0.45851   0.00000  Uiso   1.00
C1335  C     0.85251   0.90598   0.74426   0.00000  Uiso   1.00
C1336  C     0.90565   0.64786   0.25638   0.00000  Uiso   1.00
C1337  C     0.59603   0.85128   0.74609   0.00000  Uiso   1.00
C1338  C     0.85158   0.90432   0.25332   0.00000  Uiso   1.00
C1339  C     0.64747   0.59396   0.74412   0.00000  Uiso   1.00
C1340  C     0.60134   0.65400   0.75313   0.00000  Uiso   1.00
C1341  C     0.89752   0.84410   0.24441   0.00000  Uiso   1.00
C1342  C     0.65568   0.89786   0.75641   0.00000  Uiso   1.00
C1343  C     0.84584   0.60146   0.24593   0.00000  Uiso   1.00
C1344  C     0.89857   0.84588   0.75339   0.00000  Uiso   1.00
C1345  C     0.72676   0.97678   0.54159   0.00000  Uiso   1.00
C1346  C     0.60266   0.65613   0.24423   0.00000  Uiso   1.00
C1347  C     0.84444   0.60210   0.75616   0.00000  Uiso   1.00
C1348  C     0.65411   0.89861   0.24603   0.00000  Uiso   1.00
C1349  C     0.75001   0.50000   0.10308   0.00000  Uiso   1.00
C1350  C     0.74997   0.99999   0.89753   0.00000  Uiso   1.00
C1351  C     0.99983   0.75010   0.10258   0.00000  Uiso   1.00
C1352  C     0.99993   0.75002   0.89685   0.00000  Uiso   1.00
C1353  C     0.99981   0.74987   0.60310   0.00000  Uiso   1.00
C1354  C     0.99998   0.75006   0.39753   0.00000  Uiso   1.00
C1355  C     0.75015   0.99992   0.60252   0.00000  Uiso   1.00
C1356  C     0.71827   0.99138   0.45752   0.00000  Uiso   1.00
C1357  C     0.75008   0.99989   0.39683   0.00000  Uiso   1.00
C1358  C     0.50453   0.71743   0.54234   0.00000  Uiso   1.00
C1359  C     0.97797   0.77463   0.45847   0.00000  Uiso   1.00
C1360  C     0.77394   0.52276   0.54159   0.00000  Uiso   1.00
C1361  C     0.78223   0.50831   0.45731   0.00000  Uiso   1.00
C1362  C     0.74302   0.53260   0.08283   0.00000  Uiso   1.00
C1363  C     0.77174   0.97468   0.91811   0.00000  Uiso   1.00
C1364  C     0.97416   0.72874   0.08201   0.00000  Uiso   1.00
C1365  C     0.77257   0.97602   0.95847   0.00000  Uiso   1.00
C1366  C     0.96791   0.74027   0.91707   0.00000  Uiso   1.00
C1367  C     0.75696   0.96738   0.08284   0.00000  Uiso   1.00
C1368  C     0.72818   0.52528   0.91813   0.00000  Uiso   1.00
C1369  C     0.52533   0.77167   0.08200   0.00000  Uiso   1.00
C1370  C     0.53187   0.75987   0.91711   0.00000  Uiso   1.00
C1371  C     0.99389   0.78273   0.58290   0.00000  Uiso   1.00
C1372  C     0.52123   0.72435   0.41814   0.00000  Uiso   1.00
C1373  C     0.72509   0.97787   0.58192   0.00000  Uiso   1.00
C1374  C     0.71815   0.99011   0.41718   0.00000  Uiso   1.00
C1375  C     0.50513   0.71697   0.58273   0.00000  Uiso   1.00
C1376  C     0.97577   0.72764   0.04169   0.00000  Uiso   1.00
C1377  C     0.97874   0.77583   0.41809   0.00000  Uiso   1.00
C1378  C     0.77541   0.52179   0.58193   0.00000  Uiso   1.00
C1379  C     0.78218   0.50947   0.41693   0.00000  Uiso   1.00
C1380  C     0.74998   0.99999   0.02190   0.00000  Uiso   1.00
C1381  C     0.74997   0.99998   0.97902   0.00000  Uiso   1.00
C1382  C     0.99977   0.75020   0.02105   0.00000  Uiso   1.00
C1383  C     0.99981   0.75018   0.97807   0.00000  Uiso   1.00
C1384  C     0.99987   0.75009   0.52189   0.00000  Uiso   1.00
C1385  C     0.99999   0.75016   0.47902   0.00000  Uiso   1.00
C1386  C     0.75035   0.99979   0.52098   0.00000  Uiso   1.00
C1387  C     0.96785   0.74172   0.95742   0.00000  Uiso   1.00
C1388  C     0.75030   0.99985   0.47803   0.00000  Uiso   1.00
C1389  C     0.74993   0.99998   0.35487   0.00000  Uiso   1.00
C1390  C     0.75003   0.99999   0.64490   0.00000  Uiso   1.00
C1391  C     0.99999   0.75001   0.35516   0.00000  Uiso   1.00
C1392  C     0.99998   0.75000   0.64506   0.00000  Uiso   1.00
C1393  C     0.99998   0.75000   0.85487   0.00000  Uiso   1.00
C1394  C     0.99996   0.75001   0.14492   0.00000  Uiso   1.00
C1395  C     0.74999   0.50000   0.85516   0.00000  Uiso   1.00
C1396  C     0.75001   0.50001   0.14507   0.00000  Uiso   1.00
C1397  C     0.67849   0.56886   0.25176   0.00000  Uiso   1.00
C1398  C     0.75608   0.96760   0.04245   0.00000  Uiso   1.00
C1399  C     0.82168   0.93162   0.74768   0.00000  Uiso   1.00
C1400  C     0.93157   0.67839   0.25251   0.00000  Uiso   1.00
C1401  C     0.56889   0.82145   0.74803   0.00000  Uiso   1.00
C1402  C     0.82153   0.93118   0.25176   0.00000  Uiso   1.00
C1403  C     0.67831   0.56835   0.74765   0.00000  Uiso   1.00
C1404  C     0.56844   0.82159   0.25250   0.00000  Uiso   1.00
C1405  C     0.93118   0.67851   0.74801   0.00000  Uiso   1.00
C1406  C     0.68157   0.92840   0.75251   0.00000  Uiso   1.00
C1407  C     0.81885   0.57149   0.24798   0.00000  Uiso   1.00
C1408  C     0.92850   0.81886   0.75178   0.00000  Uiso   1.00
C1409  C     0.72737   0.52393   0.95849   0.00000  Uiso   1.00
C1410  C     0.57171   0.68165   0.24768   0.00000  Uiso   1.00
C1411  C     0.81846   0.57159   0.75245   0.00000  Uiso   1.00
C1412  C     0.68115   0.92852   0.24801   0.00000  Uiso   1.00
C1413  C     0.57148   0.68110   0.75171   0.00000  Uiso   1.00
C1414  C     0.92832   0.81841   0.24774   0.00000  Uiso   1.00
C1415  C     0.62263   0.90236   0.22252   0.00000  Uiso   1.00
C1416  C     0.87497   0.59894   0.78084   0.00000  Uiso   1.00
C1417  C     0.60099   0.62741   0.21739   0.00000  Uiso   1.00
C1418  C     0.90133   0.87589   0.77898   0.00000  Uiso   1.00
C1419  C     0.87730   0.59781   0.22234   0.00000  Uiso   1.00
C1420  C     0.52373   0.77281   0.04168   0.00000  Uiso   1.00
C1421  C     0.62497   0.90113   0.78081   0.00000  Uiso   1.00
C1422  C     0.89928   0.87281   0.21749   0.00000  Uiso   1.00
C1423  C     0.59858   0.62401   0.77875   0.00000  Uiso   1.00
C1424  C     0.61816   0.59229   0.77054   0.00000  Uiso   1.00
C1425  C     0.87983   0.90488   0.22499   0.00000  Uiso   1.00
C1426  C     0.59348   0.88104   0.77218   0.00000  Uiso   1.00
C1427  C     0.90875   0.61749   0.23174   0.00000  Uiso   1.00
C1428  C     0.88178   0.90764   0.77072   0.00000  Uiso   1.00
C1429  C     0.62028   0.59530   0.22505   0.00000  Uiso   1.00
C1430  C     0.90654   0.61898   0.77234   0.00000  Uiso   1.00
C1431  C     0.53182   0.75858   0.95746   0.00000  Uiso   1.00
C1432  C     0.59124   0.88254   0.23187   0.00000  Uiso   1.00
C1433  C     0.87299   0.65214   0.72214   0.00000  Uiso   1.00
C1434  C     0.62510   0.84879   0.28079   0.00000  Uiso   1.00
C1435  C     0.85052   0.87698   0.71773   0.00000  Uiso   1.00
C1436  C     0.65124   0.62576   0.27908   0.00000  Uiso   1.00
C1437  C     0.62761   0.84740   0.72270   0.00000  Uiso   1.00
C1438  C     0.87494   0.65115   0.28081   0.00000  Uiso   1.00
C1439  C     0.64949   0.62294   0.71752   0.00000  Uiso   1.00
C1440  C     0.84912   0.87465   0.27937   0.00000  Uiso   1.00
C1441  C     0.86854   0.84279   0.27130   0.00000  Uiso   1.00
C1442  C     0.99483   0.78260   0.54250   0.00000  Uiso   1.00
C1443  C     0.62984   0.65486   0.72512   0.00000  Uiso   1.00
C1444  C     0.84340   0.63110   0.27219   0.00000  Uiso   1.00
C1445  C     0.65894   0.86734   0.73200   0.00000  Uiso   1.00
C1446  C     0.63173   0.65757   0.27097   0.00000  Uiso   1.00
C1447  C     0.87005   0.84502   0.72544   0.00000  Uiso   1.00
C1448  C     0.65661   0.86889   0.27219   0.00000  Uiso   1.00
C1449  C     0.84153   0.63236   0.73130   0.00000  Uiso   1.00
C1450  C     0.59439   0.85209   0.25638   0.00000  Uiso   1.00
C1451  C     0.90422   0.64856   0.74600   0.00000  Uiso   1.00
C1452  C     0.64857   0.59589   0.25328   0.00000  Uiso   1.00
H1453  H     0.73992   0.55771   0.02705   0.00000  Uiso   1.00
H1454  H     0.53993   0.70728   0.47396   0.00000  Uiso   1.00
H1455  H     0.70930   0.95786   0.52637   0.00000  Uiso   1.00
H1456  H     0.69313   0.98586   0.47283   0.00000  Uiso   1.00
H1457  H     0.50753   0.69198   0.52688   0.00000  Uiso   1.00
H1458  H     0.96000   0.79299   0.47386   0.00000  Uiso   1.00
H1459  H     0.79152   0.54160   0.52637   0.00000  Uiso   1.00
H1460  H     0.80745   0.51393   0.47245   0.00000  Uiso   1.00
H1461  H     0.66693   0.93908   0.13565   0.00000  Uiso   1.00
H1462  H     0.82473   0.56556   0.86533   0.00000  Uiso   1.00
H1463  H     0.57168   0.68330   0.13534   0.00000  Uiso   1.00
H1464  H     0.79099   0.95810   0.97384   0.00000  Uiso   1.00
H1465  H     0.93258   0.82645   0.86490   0.00000  Uiso   1.00
H1466  H     0.83338   0.55988   0.13577   0.00000  Uiso   1.00
H1467  H     0.67464   0.93488   0.86544   0.00000  Uiso   1.00
H1468  H     0.92890   0.81704   0.13553   0.00000  Uiso   1.00
H1469  H     0.60895   0.67771   0.84051   0.00000  Uiso   1.00
H1470  H     0.59554   0.99601   0.75855   0.00000  Uiso   1.00
H1471  H     0.85916   0.97582   0.16886   0.00000  Uiso   1.00
H1472  H     0.99724   0.90461   0.75973   0.00000  Uiso   1.00
H1473  H     0.97755   0.63040   0.17944   0.00000  Uiso   1.00
H1474  H     0.90406   0.50406   0.75879   0.00000  Uiso   1.00
H1475  H     0.95789   0.70904   0.02654   0.00000  Uiso   1.00
H1476  H     0.64085   0.52583   0.16857   0.00000  Uiso   1.00
H1477  H     0.50272   0.59505   0.76040   0.00000  Uiso   1.00
H1478  H     0.52357   0.91125   0.16583   0.00000  Uiso   1.00
H1479  H     0.91848   0.68736   0.63532   0.00000  Uiso   1.00
H1480  H     0.57540   0.81501   0.36546   0.00000  Uiso   1.00
H1481  H     0.82167   0.93232   0.63526   0.00000  Uiso   1.00
H1482  H     0.64065   0.57175   0.34049   0.00000  Uiso   1.00
H1483  H     0.58383   0.81101   0.63548   0.00000  Uiso   1.00
H1484  H     0.92464   0.68493   0.36542   0.00000  Uiso   1.00
H1485  H     0.63829   0.56543   0.66004   0.00000  Uiso   1.00
H1486  H     0.94262   0.73630   0.97259   0.00000  Uiso   1.00
H1487  H     0.87809   0.86302   0.35830   0.00000  Uiso   1.00
H1488  H     0.84455   0.74689   0.25939   0.00000  Uiso   1.00
H1489  H     0.60509   0.69129   0.66275   0.00000  Uiso   1.00
H1490  H     0.74686   0.65406   0.26054   0.00000  Uiso   1.00
H1491  H     0.72703   0.83882   0.66636   0.00000  Uiso   1.00
H1492  H     0.65532   0.75360   0.25915   0.00000  Uiso   1.00
H1493  H     0.85783   0.78258   0.64787   0.00000  Uiso   1.00
H1494  H     0.75368   0.84736   0.26119   0.00000  Uiso   1.00
H1495  H     0.77409   0.66099   0.66492   0.00000  Uiso   1.00
H1496  H     0.67385   0.56727   0.09936   0.00000  Uiso   1.00
H1497  H     0.76004   0.94226   0.02707   0.00000  Uiso   1.00
H1498  H     0.75233   0.91460   0.86597   0.00000  Uiso   1.00
H1499  H     0.96445   0.65160   0.09465   0.00000  Uiso   1.00
H1500  H     0.89368   0.70085   0.93691   0.00000  Uiso   1.00
H1501  H     0.82603   0.93218   0.09851   0.00000  Uiso   1.00
H1502  H     0.74750   0.58547   0.86600   0.00000  Uiso   1.00
H1503  H     0.53155   0.84815   0.09941   0.00000  Uiso   1.00
H1504  H     0.60597   0.79945   0.93689   0.00000  Uiso   1.00
H1505  H     0.92529   0.81871   0.59854   0.00000  Uiso   1.00
H1506  H     0.50092   0.66440   0.36587   0.00000  Uiso   1.00
H1507  H     0.72022   0.90125   0.59902   0.00000  Uiso   1.00
H1508  H     0.70895   0.54185   0.97388   0.00000  Uiso   1.00
H1509  H     0.64393   0.95071   0.43723   0.00000  Uiso   1.00
H1510  H     0.56734   0.66807   0.58134   0.00000  Uiso   1.00
H1511  H     0.99864   0.83560   0.36542   0.00000  Uiso   1.00
H1512  H     0.78108   0.59864   0.59803   0.00000  Uiso   1.00
H1513  H     0.84866   0.51019   0.33804   0.00000  Uiso   1.00
H1514  H     0.54153   0.79147   0.02650   0.00000  Uiso   1.00
H1515  H     0.55701   0.76403   0.97266   0.00000  Uiso   1.00
H1516  H     0.99166   0.80807   0.52716   0.00000  Uiso   1.00
O1517  O     0.75000   0.50000   0.25000   0.00000  Uiso   1.00
O1518  O     0.75000   0.96964   0.66317   0.00000  Uiso   1.00
O1519  O     0.53250   0.88884   0.17866   0.00000  Uiso   1.00
O1520  O     0.85089   0.65484   0.64746   0.00000  Uiso   1.00
O1521  O     0.86409   0.71281   0.67946   0.00000  Uiso   1.00
O1522  O     0.91849   0.67170   0.65871   0.00000  Uiso   1.00
O1523  O     0.63183   0.78899   0.32547   0.00000  Uiso   1.00
O1524  O     0.64400   0.84762   0.35660   0.00000  Uiso   1.00
O1525  O     0.57678   0.83075   0.34218   0.00000  Uiso   1.00
O1526  O     0.85359   0.86297   0.64083   0.00000  Uiso   1.00
O1527  O     0.79313   0.87395   0.66890   0.00000  Uiso   1.00
O1528  O     0.83644   0.92913   0.65908   0.00000  Uiso   1.00
O1529  O     0.96964   0.75000   0.33683   0.00000  Uiso   1.00
O1530  O     0.71023   0.63111   0.32552   0.00000  Uiso   1.00
O1531  O     0.65105   0.64409   0.35516   0.00000  Uiso   1.00
O1532  O     0.66718   0.57704   0.34082   0.00000  Uiso   1.00
O1533  O     0.65095   0.84382   0.64845   0.00000  Uiso   1.00
O1534  O     0.63737   0.78623   0.68104   0.00000  Uiso   1.00
O1535  O     0.58330   0.82691   0.65867   0.00000  Uiso   1.00
O1536  O     0.86820   0.71093   0.32552   0.00000  Uiso   1.00
O1537  O     0.85606   0.65228   0.35665   0.00000  Uiso   1.00
O1538  O     0.92326   0.66918   0.34215   0.00000  Uiso   1.00
O1539  O     0.64782   0.63719   0.64035   0.00000  Uiso   1.00
O1540  O     0.53036   0.75000   0.66317   0.00000  Uiso   1.00
O1541  O     0.70757   0.62606   0.66952   0.00000  Uiso   1.00
O1542  O     0.66473   0.57102   0.65859   0.00000  Uiso   1.00
O1543  O     0.83314   0.91916   0.33941   0.00000  Uiso   1.00
O1544  O     0.79062   0.86931   0.32662   0.00000  Uiso   1.00
O1545  O     0.85252   0.85420   0.35905   0.00000  Uiso   1.00
O1546  O     0.86655   0.78801   0.32312   0.00000  Uiso   1.00
O1547  O     0.80906   0.80326   0.29082   0.00000  Uiso   1.00
O1548  O     0.85815   0.76886   0.25113   0.00000  Uiso   1.00
O1549  O     0.64291   0.72616   0.73680   0.00000  Uiso   1.00
O1550  O     0.68721   0.69353   0.69739   0.00000  Uiso   1.00
O1551  O     0.50000   0.71964   0.83683   0.00000  Uiso   1.00
O1552  O     0.62490   0.70934   0.66608   0.00000  Uiso   1.00
O1553  O     0.78871   0.63065   0.32441   0.00000  Uiso   1.00
O1554  O     0.80221   0.68902   0.29321   0.00000  Uiso   1.00
O1555  O     0.76877   0.64015   0.25261   0.00000  Uiso   1.00
O1556  O     0.72954   0.85940   0.75337   0.00000  Uiso   1.00
O1557  O     0.69983   0.80698   0.72366   0.00000  Uiso   1.00
O1558  O     0.71805   0.86120   0.67922   0.00000  Uiso   1.00
O1559  O     0.63374   0.71195   0.32317   0.00000  Uiso   1.00
O1560  O     0.69105   0.69746   0.29004   0.00000  Uiso   1.00
O1561  O     0.64131   0.73178   0.25123   0.00000  Uiso   1.00
O1562  O     0.50000   0.78036   0.16317   0.00000  Uiso   1.00
O1563  O     0.85705   0.77346   0.73640   0.00000  Uiso   1.00
O1564  O     0.81296   0.80647   0.69706   0.00000  Uiso   1.00
O1565  O     0.87630   0.79177   0.66642   0.00000  Uiso   1.00
O1566  O     0.71143   0.86927   0.32423   0.00000  Uiso   1.00
O1567  O     0.69786   0.81094   0.29301   0.00000  Uiso   1.00
O1568  O     0.73121   0.85984   0.25236   0.00000  Uiso   1.00
O1569  O     0.77076   0.64091   0.75191   0.00000  Uiso   1.00
O1570  O     0.80118   0.69294   0.72218   0.00000  Uiso   1.00
O1571  O     0.78302   0.63865   0.67788   0.00000  Uiso   1.00
O1572  O     0.75669   0.57944   0.14127   0.00000  Uiso   1.00
O1573  O     0.78036   0.50000   0.83683   0.00000  Uiso   1.00
O1574  O     0.73582   0.60581   0.08007   0.00000  Uiso   1.00
O1575  O     0.68870   0.57163   0.12292   0.00000  Uiso   1.00
O1576  O     0.83350   0.95667   0.88221   0.00000  Uiso   1.00
O1577  O     0.80559   0.90959   0.92245   0.00000  Uiso   1.00
O1578  O     0.77591   0.92379   0.85583   0.00000  Uiso   1.00
O1579  O     0.92484   0.72354   0.14008   0.00000  Uiso   1.00
O1580  O     0.90763   0.69748   0.07751   0.00000  Uiso   1.00
O1581  O     0.95553   0.66309   0.11885   0.00000  Uiso   1.00
O1582  O     0.91901   0.75084   0.85986   0.00000  Uiso   1.00
O1583  O     0.93397   0.68811   0.87671   0.00000  Uiso   1.00
O1584  O     0.71964   0.50000   0.16317   0.00000  Uiso   1.00
O1585  O     0.89188   0.72457   0.92339   0.00000  Uiso   1.00
O1586  O     0.74359   0.92077   0.14162   0.00000  Uiso   1.00
O1587  O     0.76355   0.89413   0.08020   0.00000  Uiso   1.00
O1588  O     0.81142   0.92804   0.12229   0.00000  Uiso   1.00
O1589  O     0.66641   0.54320   0.88226   0.00000  Uiso   1.00
O1590  O     0.69423   0.59031   0.92250   0.00000  Uiso   1.00
O1591  O     0.72397   0.57619   0.85586   0.00000  Uiso   1.00
O1592  O     0.57610   0.77583   0.13841   0.00000  Uiso   1.00
O1593  O     0.59032   0.80625   0.07717   0.00000  Uiso   1.00
O1594  O     0.54223   0.83594   0.12237   0.00000  Uiso   1.00
O1595  O     0.50000   0.78036   0.83683   0.00000  Uiso   1.00
O1596  O     0.58099   0.74877   0.86023   0.00000  Uiso   1.00
O1597  O     0.56598   0.81166   0.87631   0.00000  Uiso   1.00
O1598  O     0.60788   0.77566   0.92354   0.00000  Uiso   1.00
O1599  O     0.50775   0.82908   0.64179   0.00000  Uiso   1.00
O1600  O     0.98832   0.85610   0.58038   0.00000  Uiso   1.00
O1601  O     0.93989   0.82273   0.62234   0.00000  Uiso   1.00
O1602  O     0.58270   0.70517   0.38238   0.00000  Uiso   1.00
O1603  O     0.55375   0.65859   0.42244   0.00000  Uiso   1.00
O1604  O     0.52454   0.67350   0.35576   0.00000  Uiso   1.00
O1605  O     0.67437   0.97262   0.63834   0.00000  Uiso   1.00
O1606  O     0.50000   0.71964   0.16317   0.00000  Uiso   1.00
O1607  O     0.66073   0.94218   0.57700   0.00000  Uiso   1.00
O1608  O     0.70933   0.91318   0.62204   0.00000  Uiso   1.00
O1609  O     0.66904   0.50093   0.36026   0.00000  Uiso   1.00
O1610  O     0.68397   0.93812   0.37679   0.00000  Uiso   1.00
O1611  O     0.64212   0.97448   0.42380   0.00000  Uiso   1.00
O1612  O     0.99795   0.67362   0.64634   0.00000  Uiso   1.00
O1613  O     0.99683   0.64423   0.58281   0.00000  Uiso   1.00
O1614  O     0.55884   0.66804   0.60862   0.00000  Uiso   1.00
O1615  O     0.91712   0.79447   0.38249   0.00000  Uiso   1.00
O1616  O     0.94586   0.84142   0.42219   0.00000  Uiso   1.00
O1617  O     0.71964   0.50000   0.83683   0.00000  Uiso   1.00
O1618  O     0.97500   0.82642   0.35547   0.00000  Uiso   1.00
O1619  O     0.82564   0.52719   0.63882   0.00000  Uiso   1.00
O1620  O     0.84013   0.55683   0.57723   0.00000  Uiso   1.00
O1621  O     0.79132   0.58672   0.62138   0.00000  Uiso   1.00
O1622  O     0.81742   0.56219   0.37921   0.00000  Uiso   1.00
O1623  O     0.85490   0.52159   0.41908   0.00000  Uiso   1.00
O1624  O     0.83013   0.99700   0.35357   0.00000  Uiso   1.00
O1625  O     0.75000   0.50000   0.75000   0.00000  Uiso   1.00
O1626  O     0.78036   0.50000   0.16317   0.00000  Uiso   1.00
O1627  O     0.70725   0.57307   0.27282   0.00000  Uiso   1.00
O1628  O     0.79274   0.92693   0.72718   0.00000  Uiso   1.00
O1629  O     0.92693   0.70726   0.27282   0.00000  Uiso   1.00
O1630  O     0.57307   0.79274   0.72718   0.00000  Uiso   1.00
O1631  O     0.79274   0.92693   0.27282   0.00000  Uiso   1.00
O1632  O     0.70725   0.57307   0.72718   0.00000  Uiso   1.00
O1633  O     0.57307   0.79274   0.27282   0.00000  Uiso   1.00
O1634  O     0.92693   0.70726   0.72718   0.00000  Uiso   1.00
O1635  O     0.70725   0.92693   0.72718   0.00000  Uiso   1.00
O1636  O     0.50000   0.75000   0.25000   0.00000  Uiso   1.00
O1637  O     0.79274   0.57307   0.27282   0.00000  Uiso   1.00
O1638  O     0.92693   0.79275   0.72718   0.00000  Uiso   1.00
O1639  O     0.57307   0.70725   0.27282   0.00000  Uiso   1.00
O1640  O     0.79274   0.57307   0.72718   0.00000  Uiso   1.00
O1641  O     0.70725   0.92693   0.27282   0.00000  Uiso   1.00
O1642  O     0.57307   0.70725   0.72718   0.00000  Uiso   1.00
O1643  O     0.92693   0.79275   0.27282   0.00000  Uiso   1.00
O1644  O     0.95725   0.82307   0.77282   0.00000  Uiso   1.00
O1645  O     0.54274   0.67693   0.22718   0.00000  Uiso   1.00
O1646  O     0.67693   0.95725   0.77282   0.00000  Uiso   1.00
O1647  O     0.50000   0.75000   0.75000   0.00000  Uiso   1.00
O1648  O     0.82307   0.54275   0.22718   0.00000  Uiso   1.00
O1649  O     0.54274   0.67693   0.77282   0.00000  Uiso   1.00
O1650  O     0.95725   0.82307   0.22718   0.00000  Uiso   1.00
O1651  O     0.82307   0.54275   0.77282   0.00000  Uiso   1.00
O1652  O     0.67693   0.95725   0.22718   0.00000  Uiso   1.00
O1653  O     0.95725   0.67693   0.22718   0.00000  Uiso   1.00
O1654  O     0.54274   0.82307   0.77282   0.00000  Uiso   1.00
O1655  O     0.67693   0.54275   0.22718   0.00000  Uiso   1.00
O1656  O     0.82307   0.95725   0.77282   0.00000  Uiso   1.00
O1657  O     0.54274   0.82307   0.22718   0.00000  Uiso   1.00
O1658  O     0.75000   0.96964   0.33683   0.00000  Uiso   1.00
O1659  O     0.95725   0.67693   0.77282   0.00000  Uiso   1.00
O1660  O     0.82307   0.95725   0.22718   0.00000  Uiso   1.00
O1661  O     0.67693   0.54275   0.77282   0.00000  Uiso   1.00
O1662  O     0.60055   0.90406   0.14792   0.00000  Uiso   1.00
O1663  O     0.61178   0.96251   0.17965   0.00000  Uiso   1.00
O1664  O     0.66751   0.92323   0.15888   0.00000  Uiso   1.00
O1665  O     0.88140   0.53935   0.82590   0.00000  Uiso   1.00
O1666  O     0.89340   0.59813   0.85678   0.00000  Uiso   1.00
O1667  O     0.82627   0.58121   0.84199   0.00000  Uiso   1.00
O1668  O     0.60682   0.61574   0.14039   0.00000  Uiso   1.00
O1669  O     0.75000   0.53036   0.66317   0.00000  Uiso   1.00
O1670  O     0.54515   0.62271   0.16674   0.00000  Uiso   1.00
O1671  O     0.58563   0.68039   0.15976   0.00000  Uiso   1.00
O1672  O     0.96064   0.88208   0.82479   0.00000  Uiso   1.00
O1673  O     0.90136   0.89458   0.85479   0.00000  Uiso   1.00
O1674  O     0.91801   0.82760   0.84073   0.00000  Uiso   1.00
O1675  O     0.89863   0.59704   0.14757   0.00000  Uiso   1.00
O1676  O     0.88962   0.53816   0.17922   0.00000  Uiso   1.00
O1677  O     0.83246   0.57569   0.15903   0.00000  Uiso   1.00
O1678  O     0.61816   0.96085   0.82559   0.00000  Uiso   1.00
O1679  O     0.60608   0.90215   0.85664   0.00000  Uiso   1.00
O1680  O     0.53036   0.75000   0.33683   0.00000  Uiso   1.00
O1681  O     0.67327   0.91914   0.84217   0.00000  Uiso   1.00
O1682  O     0.89608   0.88579   0.14035   0.00000  Uiso   1.00
O1683  O     0.95668   0.87619   0.16860   0.00000  Uiso   1.00
O1684  O     0.91429   0.82019   0.15949   0.00000  Uiso   1.00
O1685  O     0.53945   0.61838   0.82501   0.00000  Uiso   1.00
O1686  O     0.59854   0.60527   0.85473   0.00000  Uiso   1.00
O1687  O     0.58242   0.67239   0.84077   0.00000  Uiso   1.00
O1688  O     0.61583   0.53769   0.82246   0.00000  Uiso   1.00
O1689  O     0.55877   0.55220   0.78893   0.00000  Uiso   1.00
O1690  O     0.60889   0.51815   0.75036   0.00000  Uiso   1.00
O1691  O     0.96964   0.75000   0.66317   0.00000  Uiso   1.00
O1692  O     0.89161   0.97709   0.23420   0.00000  Uiso   1.00
O1693  O     0.93782   0.94333   0.19883   0.00000  Uiso   1.00
O1694  O     0.87697   0.95626   0.16333   0.00000  Uiso   1.00
O1695  O     0.53868   0.88083   0.82424   0.00000  Uiso   1.00
O1696  O     0.55231   0.93907   0.79283   0.00000  Uiso   1.00
O1697  O     0.51891   0.89008   0.75233   0.00000  Uiso   1.00
O1698  O     0.97997   0.61034   0.25203   0.00000  Uiso   1.00
O1699  O     0.94891   0.55641   0.22782   0.00000  Uiso   1.00
O1700  O     0.96691   0.60573   0.17808   0.00000  Uiso   1.00
O1701  O     0.88426   0.96230   0.82257   0.00000  Uiso   1.00
O1702  O     0.75000   0.53036   0.33683   0.00000  Uiso   1.00
O1703  O     0.94122   0.94779   0.78880   0.00000  Uiso   1.00
O1704  O     0.89100   0.98180   0.75044   0.00000  Uiso   1.00
O1705  O     0.60857   0.52304   0.23447   0.00000  Uiso   1.00
O1706  O     0.56169   0.55707   0.20052   0.00000  Uiso   1.00
O1707  O     0.62154   0.54397   0.16324   0.00000  Uiso   1.00
O1708  O     0.96105   0.61945   0.82470   0.00000  Uiso   1.00
O1709  O     0.94754   0.56104   0.79363   0.00000  Uiso   1.00
O1710  O     0.98120   0.60978   0.75297   0.00000  Uiso   1.00
O1711  O     0.52046   0.89047   0.25274   0.00000  Uiso   1.00
O1712  O     0.55042   0.94293   0.22340   0.00000  Uiso   1.00
S1713  S     0.62459   0.92387   0.17622   0.00000  Uiso   1.00
S1714  S     0.89744   0.94655   0.20582   0.00000  Uiso   1.00
S1715  S     0.55020   0.89861   0.78693   0.00000  Uiso   1.00
S1716  S     0.95220   0.59695   0.22324   0.00000  Uiso   1.00
S1717  S     0.90046   0.95050   0.78463   0.00000  Uiso   1.00
S1718  S     0.60221   0.55368   0.20633   0.00000  Uiso   1.00
S1719  S     0.94971   0.60147   0.78747   0.00000  Uiso   1.00
S1720  S     0.54757   0.90212   0.22241   0.00000  Uiso   1.00
S1721  S     0.87553   0.67373   0.67588   0.00000  Uiso   1.00
S1722  S     0.62055   0.82822   0.32743   0.00000  Uiso   1.00
S1723  S     0.83266   0.88471   0.67031   0.00000  Uiso   1.00
S1724  S     0.87012   0.57859   0.82756   0.00000  Uiso   1.00
S1725  S     0.67063   0.62054   0.32623   0.00000  Uiso   1.00
S1726  S     0.62590   0.82523   0.67672   0.00000  Uiso   1.00
S1727  S     0.87949   0.67170   0.32746   0.00000  Uiso   1.00
S1728  S     0.66802   0.61535   0.67029   0.00000  Uiso   1.00
S1729  S     0.83016   0.88016   0.32671   0.00000  Uiso   1.00
S1730  S     0.84970   0.80015   0.28564   0.00000  Uiso   1.00
S1731  S     0.64725   0.69692   0.70665   0.00000  Uiso   1.00
S1732  S     0.80014   0.64858   0.28715   0.00000  Uiso   1.00
S1733  S     0.70267   0.84779   0.72281   0.00000  Uiso   1.00
S1734  S     0.65034   0.70030   0.28537   0.00000  Uiso   1.00
S1735  S     0.58394   0.63558   0.16975   0.00000  Uiso   1.00
S1736  S     0.85287   0.80309   0.70666   0.00000  Uiso   1.00
S1737  S     0.69990   0.85139   0.28699   0.00000  Uiso   1.00
S1738  S     0.79803   0.65214   0.72156   0.00000  Uiso   1.00
S1739  S     0.73202   0.57385   0.10700   0.00000  Uiso   1.00
S1740  S     0.79787   0.94034   0.89488   0.00000  Uiso   1.00
S1741  S     0.93887   0.70360   0.10504   0.00000  Uiso   1.00
S1742  S     0.92774   0.72561   0.89284   0.00000  Uiso   1.00
S1743  S     0.76790   0.92611   0.10699   0.00000  Uiso   1.00
S1744  S     0.70202   0.55958   0.89492   0.00000  Uiso   1.00
S1745  S     0.56023   0.79714   0.10524   0.00000  Uiso   1.00
S1746  S     0.92116   0.87109   0.82597   0.00000  Uiso   1.00
S1747  S     0.57215   0.77433   0.89289   0.00000  Uiso   1.00
S1748  S     0.98348   0.82413   0.60710   0.00000  Uiso   1.00
S1749  S     0.54672   0.68954   0.39491   0.00000  Uiso   1.00
S1750  S     0.69064   0.95172   0.60508   0.00000  Uiso   1.00
S1751  S     0.67785   0.97557   0.39310   0.00000  Uiso   1.00
S1752  S     0.51349   0.67463   0.60602   0.00000  Uiso   1.00
S1753  S     0.95303   0.81041   0.39479   0.00000  Uiso   1.00
S1754  S     0.80987   0.54785   0.60513   0.00000  Uiso   1.00
S1755  S     0.82246   0.52355   0.39245   0.00000  Uiso   1.00
S1756  S     0.87548   0.57636   0.17603   0.00000  Uiso   1.00
S1757  S     0.62950   0.92164   0.82748   0.00000  Uiso   1.00
S1758  S     0.91733   0.86479   0.17016   0.00000  Uiso   1.00
S1759  S     0.57904   0.62897   0.82589   0.00000  Uiso   1.00
S1760  S     0.59952   0.54946   0.78457   0.00000  Uiso   1.00
Zn1761 Zn    0.70660   0.50000   0.21760   0.00000  Uiso   1.00
Zn1762 Zn    0.54340   0.75000   0.28240   0.00000  Uiso   1.00
Zn1763 Zn    0.75000   0.95660   0.71760   0.00000  Uiso   1.00
Zn1764 Zn    0.75000   0.54340   0.28240   0.00000  Uiso   1.00
Zn1765 Zn    0.54340   0.75000   0.71760   0.00000  Uiso   1.00
Zn1766 Zn    0.95660   0.75000   0.28240   0.00000  Uiso   1.00
Zn1767 Zn    0.75000   0.54340   0.71760   0.00000  Uiso   1.00
Zn1768 Zn    0.75000   0.95660   0.28240   0.00000  Uiso   1.00
Zn1769 Zn    0.79340   0.50000   0.78240   0.00000  Uiso   1.00
Zn1770 Zn    0.50000   0.70660   0.21760   0.00000  Uiso   1.00
Zn1771 Zn    0.50000   0.79340   0.78240   0.00000  Uiso   1.00
Zn1772 Zn    0.79340   0.50000   0.21760   0.00000  Uiso   1.00
Zn1773 Zn    0.70660   0.50000   0.78240   0.00000  Uiso   1.00
Zn1774 Zn    0.50000   0.79340   0.21760   0.00000  Uiso   1.00
Zn1775 Zn    0.50000   0.70660   0.78240   0.00000  Uiso   1.00
Zn1776 Zn    0.95660   0.75000   0.71760   0.00000  Uiso   1.00
loop_
_geom_bond_atom_site_label_1
_geom_bond_atom_site_label_2
_geom_bond_distance
_geom_bond_site_symmetry_2
_ccdc_geom_bond_type
C1     C30     1.393   .     A
C1     H121    1.081   .     S
C1     C936    1.403   1_545 S
C2     C40     1.393   .     A
C2     H122    1.082   .     S
C2     C497    1.400   1_455 S
C3     C103    1.407   .     A
C3     C96     1.409   .     A
C3     C67     1.475   .     S
C4     C106    1.410   .     A
C4     C68     1.475   .     S
C4     C95     1.407   .     A
C5     C105    1.417   .     A
C5     C94     1.419   .     A
C5     C69     1.481   .     S
C6     C93     1.422   .     A
C6     C70     1.479   .     S
C6     C108    1.415   .     A
C7     C92     1.409   .     A
C7     C107    1.407   .     A
C7     C71     1.475   .     S
C8     C81     1.480   .     S
C8     C111    1.422   .     A
C8     C91     1.416   .     A
C9     C90     1.407   .     A
C9     C82     1.475   .     S
C9     C109    1.409   .     A
C10    C113    1.407   .     A
C10    C89     1.409   .     A
C10    C74     1.475   .     S
C11    C112    1.419   .     A
C11    C87     1.416   .     A
C11    C75     1.481   .     S
C12    C115    1.422   .     A
C12    C86     1.416   .     A
C12    C76     1.480   .     S
C13    C41     1.392   .     A
C13    C54     1.402   .     A
C13    H123    1.081   .     S
C14    C114    1.409   .     A
C14    C85     1.405   .     A
C14    C78     1.476   .     S
C15    C84     1.410   .     A
C15    C79     1.476   .     S
C15    C117    1.408   .     A
C16    C80     1.481   .     S
C16    C116    1.419   .     A
C16    C83     1.416   .     A
C17    C923    1.410   1_545 A
C17    C30     1.410   .     S
C17    C64     1.448   .     S
C18    C31     1.416   .     A
C18    C924    1.416   .     S
C18    C951    1.461   .     S
C19    C32     1.415   .     A
C19    C62     1.460   .     S
C19    C481    1.415   .     S
C20    C34     1.410   .     A
C20    C61     1.447   .     S
C20    C482    1.410   .     S
C21    C60     1.447   .     S
C21    C39     1.411   .     A
C21    C487    1.412   .     S
C22    C45     1.416   .     A
C22    C59     1.461   .     S
C22    C484    1.416   .     S
C23    C41     1.415   .     A
C23    C58     1.461   .     S
C23    C934    1.415   .     S
C24    C56     1.404   .     A
C24    C42     1.392   .     A
C24    H124    1.080   .     S
C25    C57     1.447   .     S
C25    C42     1.410   .     A
C25    C935    1.409   .     S
C26    H125    1.082   .     S
C26    C43     1.393   .     A
C26    C496    1.402   1_455 S
C27    C53     1.400   .     A
C27    H126    1.082   .     S
C27    C45     1.393   .     A
C28    C46     1.393   .     A
C28    H127    1.081   .     S
C28    C942    1.401   1_545 S
C29    C47     1.393   .     A
C29    H128    1.081   .     S
C29    C944    1.405   1_545 S
C30    S407    1.776   .     S
C31    S408    1.774   .     S
C31    C33     1.393   .     A
C32    S409    1.775   .     S
C32    C44     1.392   .     A
C33    H132    1.082   .     S
C33    C49     1.400   .     A
C34    C55     1.392   .     A
C34    S410    1.775   .     S
C35    C66     1.393   .     A
C35    S411    1.776   .     S
C35    C905    1.410   .     A
C36    S412    1.774   .     S
C36    C77     1.393   .     A
C36    C906    1.416   1_545 S
C37    S413    1.775   .     S
C37    C88     1.392   .     A
C37    C463    1.415   1_455 S
C38    S415    1.775   .     S
C38    C99     1.392   .     A
C38    C464    1.410   1_455 S
C39    C110    1.393   .     A
C39    S416    1.777   .     S
C40    S417    1.774   .     S
C40    C466    1.416   1_455 S
C41    S418    1.775   .     S
C42    S419    1.775   .     S
C43    S420    1.778   .     S
C43    C465    1.412   1_455 S
C44    C50     1.402   .     A
C44    H143    1.081   .     S
C45    S421    1.774   .     S
C46    S422    1.774   .     S
C46    C911    1.415   1_545 S
C47    S423    1.776   .     S
C47    C913    1.409   1_545 S
C48    C66     1.403   .     A
C48    C889    1.403   .     S
C48    C49     1.479   1_554 S
C49    C48     1.479   1_556 S
C49    C965    1.400   .     S
C50    C51     1.482   1_554 S
C50    C532    1.402   .     S
C51    C55     1.405   .     A
C51    C50     1.482   1_556 S
C51    C543    1.405   .     S
C52    C110    1.403   .     A
C52    C53     1.478   .     S
C52    C470    1.402   .     S
C53    C446    1.400   .     S
C54    C56     1.481   .     S
C54    C916    1.401   .     S
C55    H154    1.080   .     S
C56    C917    1.405   .     S
C57    O326    1.277   .     A
C57    O1258   1.278   .     S
C58    O186    1.281   .     A
C58    O1225   1.282   .     S
C59    O197    1.279   .     A
C59    O792    1.278   .     S
C60    O359    1.274   .     A
C60    O652    1.276   .     S
C61    O663    1.278   .     S
C61    O707    1.277   .     S
C62    O674    1.281   .     S
C62    O718    1.281   .     S
C63    O241    1.279   .     A
C63    O285    1.278   .     A
C63    C906    1.461   1_545 S
C64    O252    1.275   .     A
C64    O294    1.275   .     A
C65    O295    1.289   .     A
C65    O323    1.282   .     A
C65    C120    1.480   .     S
C66    H165    1.081   .     S
C67    O296    1.286   .     A
C67    O324    1.281   .     A
C68    O321    1.284   .     A
C68    O297    1.282   .     A
C69    O298    1.286   .     A
C69    O322    1.284   .     A
C70    O328    1.280   .     A
C70    O299    1.289   .     A
C71    O329    1.281   .     A
C71    O300    1.285   .     A
C72    O325    1.285   .     A
C72    C118    1.475   .     S
C72    O301    1.282   .     A
C73    C119    1.480   .     S
C73    O327    1.283   .     A
C73    O302    1.287   .     A
C74    O314    1.282   .     A
C74    O303    1.284   .     A
C75    O305    1.284   .     A
C75    O316    1.286   .     A
C76    O312    1.288   .     A
C76    O306    1.282   .     A
C77    H176    1.082   .     S
C77    C937    1.400   1_545 S
C78    O307    1.280   .     A
C78    O313    1.286   .     A
C79    O308    1.284   .     A
C79    O319    1.283   .     A
C80    O309    1.284   .     A
C80    O320    1.286   .     A
C81    O310    1.282   .     A
C81    O317    1.288   .     A
C82    O318    1.286   .     A
C82    O311    1.280   .     A
C83    S381    1.783   .     S
C83    C100    1.398   .     A
C84    S392    1.785   .     S
C84    C98     1.401   .     A
C85    C97     1.400   .     A
C85    S403    1.783   .     S
C86    S414    1.784   .     S
C86    C96     1.398   .     A
C87    C95     1.398   .     A
C87    S424    1.782   .     S
C88    H182    1.081   .     S
C88    C494    1.402   1_455 S
C89    C94     1.401   .     A
C89    S425    1.785   .     S
C90    C93     1.401   .     A
C90    S426    1.785   .     S
C91    C92     1.398   .     A
C91    S427    1.785   .     S
C92    S428    1.782   .     S
C93    S382    1.788   .     S
C94    S383    1.785   .     S
C95    S384    1.785   .     S
C96    S385    1.783   .     S
C97    S386    1.787   .     S
C97    C120    1.422   .     A
C98    S387    1.785   .     S
C98    C119    1.419   .     A
C99    H183    1.080   .     S
C99    C495    1.405   1_455 S
C100   S388    1.783   .     S
C100   C118    1.407   .     A
C101   S389    1.784   .     S
C101   C117    1.398   .     A
C101   C119    1.415   .     A
C102   S390    1.785   .     S
C102   C118    1.410   .     A
C102   C116    1.401   .     A
C103   S391    1.784   .     S
C103   C115    1.401   .     A
C104   S393    1.785   .     S
C104   C120    1.416   .     A
C104   C114    1.398   .     A
C105   C113    1.398   .     A
C105   S394    1.784   .     S
C106   C112    1.402   .     A
C106   S395    1.785   .     S
C107   C111    1.401   .     A
C107   S396    1.786   .     S
C108   C109    1.398   .     A
C108   S397    1.785   .     S
C109   S398    1.782   .     S
C110   H184    1.081   .     S
C111   S399    1.789   .     S
C112   S400    1.785   .     S
C113   S401    1.783   .     S
C114   S402    1.782   .     S
C115   S404    1.786   .     S
C116   S405    1.785   .     S
C117   S406    1.783   .     S
H129   O332    0.991   .     S
H130   O335    0.991   .     S
H131   O339    0.991   .     S
H133   O342    0.991   .     S
H134   O345    0.991   .     S
H135   O349    0.991   .     S
H136   O352    0.991   .     S
H137   O355    0.991   .     S
H138   O1246   0.990   .     S
H139   O362    0.989   .     S
H140   O809    0.990   .     S
H141   O368    0.988   .     S
H142   O1260   0.990   1_545 S
H144   O375    0.989   .     S
H145   O822    0.990   1_455 S
H146   O187    0.991   .     S
H147   O190    0.991   .     S
H148   O193    0.991   .     S
H149   O196    0.991   .     S
H150   O200    0.991   .     S
H151   O203    0.991   .     S
H152   O206    0.991   .     S
H153   O210    0.991   .     S
H155   O213    0.991   .     S
H156   O216    0.990   .     S
H157   O220    0.989   .     S
H158   O223    0.990   .     S
H159   O226    0.991   .     S
H160   O229    0.990   .     S
H161   O233    0.990   .     S
H162   O236    0.990   .     S
H163   O239    0.991   .     S
H164   O243    0.991   .     S
H166   O246    0.991   .     S
H167   O249    0.990   .     S
H168   O253    0.991   .     S
H169   O256    0.991   .     S
H170   O259    0.991   .     S
H171   O262    0.990   .     S
H172   O266    0.991   .     S
H173   O269    0.991   .     S
H174   O272    0.990   .     S
H175   O276    0.990   .     S
H177   O279    0.991   .     S
H178   O282    0.991   .     S
H179   O286    0.990   .     S
H180   O289    0.991   .     S
H181   O1180   0.991   1_545 S
O185   Zn440   1.942   .     S
O185   Zn432   1.947   .     S
O185   Zn429   1.943   .     S
O185   Zn1324  1.947   1_545 S
O186   Zn431   1.937   .     S
O187   S388    1.679   .     S
O188   S389    1.502   .     D
O189   S389    1.501   .     D
O190   S389    1.682   .     S
O191   S390    1.501   .     D
O192   S390    1.503   .     D
O193   S390    1.683   .     S
O194   S391    1.503   .     D
O195   S391    1.501   .     D
O196   S391    1.683   .     S
O197   Zn434   1.937   .     S
O198   S393    1.501   .     D
O199   S393    1.503   .     D
O200   S393    1.681   .     S
O201   S394    1.502   .     D
O202   S394    1.501   .     D
O203   S394    1.681   .     S
O204   S395    1.501   .     D
O205   S395    1.503   .     D
O206   S395    1.683   .     S
O207   S396    1.502   .     D
O208   Zn433   1.937   .     S
O208   C504    1.276   1_455 S
O209   S396    1.500   .     D
O210   S396    1.683   .     S
O211   S397    1.503   .     D
O212   S397    1.501   .     D
O213   S397    1.681   .     S
O214   S398    1.500   .     D
O215   S398    1.503   .     D
O216   S398    1.683   .     S
O217   S399    1.504   .     D
O218   S399    1.502   .     D
O219   Zn443   1.937   .     S
O219   C505    1.278   1_455 S
O220   S399    1.684   .     S
O221   S400    1.503   .     D
O222   S400    1.503   .     D
O223   S400    1.684   .     S
O224   S401    1.504   .     D
O225   S401    1.504   .     D
O226   S401    1.679   .     S
O227   S402    1.500   .     D
O228   S402    1.503   .     D
O229   S402    1.683   .     S
O230   C506    1.281   1_455 S
O230   Zn442   1.937   .     S
O231   S404    1.504   .     D
O232   S404    1.503   .     D
O233   S404    1.683   .     S
O234   S405    1.503   .     D
O235   S405    1.503   .     D
O236   S405    1.684   .     S
O237   S406    1.504   .     D
O238   S406    1.504   .     D
O239   S406    1.679   .     S
O240   S407    1.502   .     D
O241   Zn437   1.936   .     S
O242   S407    1.503   .     D
O243   S407    1.680   .     S
O244   S408    1.501   .     D
O245   S408    1.504   .     D
O246   S408    1.682   .     S
O247   S409    1.503   .     D
O248   S409    1.504   .     D
O249   S409    1.678   .     S
O250   S410    1.502   .     D
O251   S410    1.503   .     D
O252   Zn429   1.936   .     S
O253   S410    1.683   .     S
O254   S411    1.502   .     D
O255   S411    1.503   .     D
O256   S411    1.680   .     S
O257   S412    1.501   .     D
O258   S412    1.504   .     D
O259   S412    1.682   .     S
O260   S413    1.503   .     D
O261   S413    1.504   .     D
O262   S413    1.678   .     S
O263   C505    1.277   1_455 S
O263   Zn439   1.937   .     S
O264   S415    1.502   .     D
O265   S415    1.503   .     D
O266   S415    1.683   .     S
O267   S860    1.502   1_455 S
O268   S416    1.503   .     D
O269   S416    1.680   .     S
O270   S417    1.501   .     D
O271   S417    1.504   .     D
O272   S417    1.682   .     S
O273   S418    1.503   .     D
O274   Zn438   1.937   .     S
O274   C506    1.281   1_455 S
O275   S418    1.504   .     D
O276   S418    1.678   .     S
O277   S1307   1.502   1_545 S
O278   S419    1.503   .     D
O279   S419    1.683   .     S
O280   S864    1.502   .     S
O281   S864    1.503   .     S
O282   S420    1.680   .     S
O283   S421    1.500   .     D
O284   S421    1.504   .     D
O285   Zn441   1.937   .     S
O286   S421    1.682   .     S
O287   S422    1.503   .     D
O288   S422    1.504   .     D
O289   S422    1.678   .     S
O290   S423    1.503   .     D
O291   S423    1.503   .     D
O292   H1069   0.991   .     S
O292   S1311   1.682   .     S
O293   Zn437   1.943   .     S
O293   Zn435   1.947   .     S
O293   Zn441   1.942   .     S
O293   Zn1319  1.947   1_545 S
O294   Zn440   1.937   .     S
O295   Zn432   1.936   .     S
O296   Zn431   1.936   .     S
O297   Zn434   1.938   .     S
O298   Zn433   1.938   .     S
O299   Zn436   1.936   .     S
O300   Zn435   1.936   .     S
O301   Zn430   1.938   .     S
O302   Zn444   1.938   .     S
O303   Zn431   1.935   .     S
O304   Zn438   1.947   .     S
O304   Zn430   1.943   .     S
O304   Zn878   1.942   1_455 S
O304   Zn442   1.947   .     S
O305   Zn432   1.935   .     S
O306   Zn444   1.938   .     S
O307   Zn430   1.938   .     S
O308   Zn435   1.936   .     S
O309   Zn436   1.936   .     S
O310   Zn433   1.938   .     S
O311   Zn434   1.938   .     S
O312   Zn883   1.936   .     S
O313   Zn438   1.936   .     S
O314   Zn1329  1.938   .     S
O315   Zn433   1.942   .     S
O315   Zn443   1.947   .     S
O315   Zn439   1.947   .     S
O315   Zn888   1.943   1_455 S
O316   Zn440   1.938   .     S
O317   Zn443   1.936   .     S
O318   Zn886   1.936   .     S
O319   Zn437   1.938   .     S
O320   Zn1317  1.938   .     S
O321   Zn882   1.935   .     S
O322   Zn439   1.935   .     S
O323   Zn429   1.938   .     S
O324   Zn1325  1.938   .     S
O325   Zn442   1.936   .     S
O326   Zn436   1.937   .     S
O327   Zn887   1.936   .     S
O328   Zn1328  1.938   .     S
O329   Zn441   1.938   .     S
O330   S381    1.502   .     D
O331   S381    1.500   .     D
O332   S381    1.681   .     S
O333   S392    1.501   .     D
O334   S392    1.503   .     D
O335   S392    1.683   .     S
O336   S403    1.503   .     D
O337   Zn435   1.937   .     S
O337   C946    1.282   1_545 S
O338   S403    1.500   .     D
O339   S403    1.683   .     S
O340   S414    1.501   .     D
O341   S414    1.503   .     D
O342   S414    1.681   .     S
O343   S424    1.502   .     D
O344   S424    1.500   .     D
O345   S424    1.681   .     S
O346   S425    1.501   .     D
O347   S425    1.503   .     D
O348   Zn430   1.936   .     S
O348   C503    1.278   1_455 S
O349   S425    1.683   .     S
O350   S426    1.502   .     D
O351   S426    1.501   .     D
O352   S426    1.683   .     S
O353   S427    1.501   .     D
O354   S427    1.503   .     D
O355   S427    1.681   .     S
O356   S428    1.500   .     D
O357   S428    1.503   .     D
O358   S428    1.683   .     S
O358   H1026   0.990   1_545 S
O359   Zn444   1.936   .     S
O360   S382    1.505   .     D
O361   S382    1.502   .     D
O362   S382    1.684   .     S
O363   S383    1.503   .     D
O364   S383    1.503   .     D
O365   S383    1.684   .     S
O365   H584    0.990   1_455 S
O366   S384    1.504   .     D
O367   S384    1.503   .     D
O368   S384    1.679   .     S
O369   S385    1.500   .     D
O370   Zn432   1.937   .     S
O370   C945    1.278   1_545 S
O371   S385    1.503   .     D
O372   S385    1.683   .     S
O372   H1030   0.990   .     S
O373   S386    1.504   .     D
O374   S386    1.502   .     D
O375   S386    1.684   .     S
O376   S387    1.503   .     D
O377   S387    1.503   .     D
O378   S387    1.684   .     S
O378   H589    0.990   .     S
O379   S388    1.504   .     D
O380   S388    1.504   .     D
S416   O711    1.502   .     S
S419   O1165   1.502   .     S
S420   O725    1.503   1_455 S
S420   O724    1.502   1_455 S
S423   O1180   1.682   1_545 S
Zn429  O1208   1.938   1_545 S
Zn431  O1181   1.947   .     S
Zn434  O748    1.942   .     S
Zn436  O1073   1.947   .     S
Zn437  O1212   1.938   1_545 S
Zn438  O765    1.935   1_455 S
Zn439  O756    1.936   1_455 S
Zn440  O1216   1.938   1_545 S
Zn441  O1202   1.938   1_545 S
Zn442  O762    1.936   1_455 S
Zn443  O771    1.936   1_455 S
Zn444  O759    1.943   .     S
C445   C474    1.393   .     A
C445   H565    1.081   .     S
C445   C1380   1.403   1_545 S
C446   C484    1.393   .     A
C446   H566    1.082   .     S
C447   C547    1.407   .     A
C447   C540    1.409   .     A
C447   C511    1.475   .     S
C448   C550    1.410   .     A
C448   C512    1.475   .     S
C448   C539    1.407   .     A
C449   C549    1.417   .     A
C449   C538    1.419   .     A
C449   C513    1.481   .     S
C450   C537    1.422   .     A
C450   C514    1.479   .     S
C450   C552    1.415   .     A
C451   C536    1.409   .     A
C451   C551    1.407   .     A
C451   C515    1.475   .     S
C452   C525    1.480   .     S
C452   C555    1.422   .     A
C452   C535    1.416   .     A
C453   C534    1.407   .     A
C453   C526    1.475   .     S
C453   C553    1.409   .     A
C454   C557    1.407   .     A
C454   C533    1.409   .     A
C454   C518    1.475   .     S
C455   C556    1.419   .     A
C455   C531    1.416   .     A
C455   C519    1.481   .     S
C456   C559    1.422   .     A
C456   C530    1.416   .     A
C456   C520    1.480   .     S
C457   C485    1.392   .     A
C457   C498    1.402   .     A
C457   H567    1.081   .     S
C458   C558    1.409   .     A
C458   C529    1.405   .     A
C458   C522    1.476   .     S
C459   C528    1.410   .     A
C459   C523    1.476   .     S
C459   C561    1.408   .     A
C460   C524    1.481   .     S
C460   C560    1.419   .     A
C460   C527    1.416   .     A
C461   C1367   1.410   1_545 A
C461   C474    1.410   .     S
C461   C508    1.448   .     S
C462   C475    1.416   .     A
C462   C1368   1.416   .     S
C462   C1395   1.461   .     S
C463   C476    1.415   .     A
C463   C506    1.460   .     S
C463   C37     1.415   1_655 S
C464   C478    1.410   .     A
C464   C505    1.447   .     S
C464   C38     1.410   1_655 S
C465   C504    1.447   .     S
C465   C483    1.411   .     A
C465   C43     1.412   1_655 S
C466   C489    1.416   .     A
C466   C503    1.461   .     S
C466   C40     1.416   1_655 S
C467   C485    1.415   .     A
C467   C502    1.461   .     S
C467   C1378   1.415   .     S
C468   C500    1.404   .     A
C468   C486    1.392   .     A
C468   H568    1.080   .     S
C469   C501    1.447   .     S
C469   C486    1.410   .     A
C469   C1379   1.409   .     S
C470   H569    1.082   .     S
C470   C487    1.393   .     A
C471   C497    1.400   .     A
C471   H570    1.082   .     S
C471   C489    1.393   .     A
C472   C490    1.393   .     A
C472   H571    1.081   .     S
C472   C1386   1.401   1_545 S
C473   C491    1.393   .     A
C473   H572    1.081   .     S
C473   C1388   1.405   1_545 S
C474   S851    1.776   .     S
C475   S852    1.774   .     S
C475   C477    1.393   .     A
C476   S853    1.775   .     S
C476   C488    1.392   .     A
C477   H576    1.082   .     S
C477   C493    1.400   .     A
C478   C499    1.392   .     A
C478   S854    1.775   .     S
C479   C510    1.393   .     A
C479   S855    1.776   .     S
C479   C1349   1.410   .     A
C480   S856    1.774   .     S
C480   C521    1.393   .     A
C480   C1350   1.416   1_545 S
C481   S857    1.775   .     S
C481   C532    1.392   .     A
C482   S859    1.775   .     S
C482   C543    1.392   .     A
C483   C554    1.393   .     A
C483   S860    1.777   .     S
C484   S861    1.774   .     S
C485   S862    1.775   .     S
C486   S863    1.775   .     S
C487   S864    1.778   .     S
C488   C494    1.402   .     A
C488   H587    1.081   .     S
C489   S865    1.774   .     S
C490   S866    1.774   .     S
C490   C1355   1.415   1_545 S
C491   S867    1.776   .     S
C491   C1357   1.409   1_545 S
C492   C510    1.403   .     A
C492   C1333   1.403   .     S
C492   C493    1.479   1_554 S
C493   C492    1.479   1_556 S
C493   C1409   1.400   .     S
C494   C495    1.482   1_554 S
C494   C88     1.402   1_655 S
C495   C499    1.405   .     A
C495   C494    1.482   1_556 S
C495   C99     1.405   1_655 S
C496   C554    1.403   .     A
C496   C497    1.478   .     S
C496   C26     1.402   1_655 S
C497   C2      1.400   1_655 S
C498   C500    1.481   .     S
C498   C1360   1.401   .     S
C499   H598    1.080   .     S
C500   C1361   1.405   .     S
C501   O770    1.277   .     A
C501   O1702   1.278   .     S
C502   O630    1.281   .     A
C502   O1669   1.282   .     S
C503   O641    1.279   .     A
C503   O348    1.278   1_655 S
C504   O803    1.274   .     A
C504   O208    1.276   1_655 S
C505   O219    1.278   1_655 S
C505   O263    1.277   1_655 S
C506   O230    1.281   1_655 S
C506   O274    1.281   1_655 S
C507   O685    1.279   .     A
C507   O729    1.278   .     A
C507   C1350   1.461   1_545 S
C508   O696    1.275   .     A
C508   O738    1.275   .     A
C509   O739    1.289   .     A
C509   O767    1.282   .     A
C509   C564    1.480   .     S
C510   H609    1.081   .     S
C511   O740    1.286   .     A
C511   O768    1.281   .     A
C512   O765    1.284   .     A
C512   O741    1.282   .     A
C513   O742    1.286   .     A
C513   O766    1.284   .     A
C514   O772    1.280   .     A
C514   O743    1.289   .     A
C515   O773    1.281   .     A
C515   O744    1.285   .     A
C516   O769    1.285   .     A
C516   C562    1.475   .     S
C516   O745    1.282   .     A
C517   C563    1.480   .     S
C517   O771    1.283   .     A
C517   O746    1.287   .     A
C518   O758    1.282   .     A
C518   O747    1.284   .     A
C519   O749    1.284   .     A
C519   O760    1.286   .     A
C520   O756    1.288   .     A
C520   O750    1.282   .     A
C521   H620    1.082   .     S
C521   C1381   1.400   1_545 S
C522   O751    1.280   .     A
C522   O757    1.286   .     A
C523   O752    1.284   .     A
C523   O763    1.283   .     A
C524   O753    1.284   .     A
C524   O764    1.286   .     A
C525   O754    1.282   .     A
C525   O761    1.288   .     A
C526   O762    1.286   .     A
C526   O755    1.280   .     A
C527   S825    1.783   .     S
C527   C544    1.398   .     A
C528   S836    1.785   .     S
C528   C542    1.401   .     A
C529   C541    1.400   .     A
C529   S847    1.783   .     S
C530   S858    1.784   .     S
C530   C540    1.398   .     A
C531   C539    1.398   .     A
C531   S868    1.782   .     S
C532   H626    1.081   .     S
C533   C538    1.401   .     A
C533   S869    1.785   .     S
C534   C537    1.401   .     A
C534   S870    1.785   .     S
C535   C536    1.398   .     A
C535   S871    1.785   .     S
C536   S872    1.782   .     S
C537   S826    1.788   .     S
C538   S827    1.785   .     S
C539   S828    1.785   .     S
C540   S829    1.783   .     S
C541   S830    1.787   .     S
C541   C564    1.422   .     A
C542   S831    1.785   .     S
C542   C563    1.419   .     A
C543   H627    1.080   .     S
C544   S832    1.783   .     S
C544   C562    1.407   .     A
C545   S833    1.784   .     S
C545   C561    1.398   .     A
C545   C563    1.415   .     A
C546   S834    1.785   .     S
C546   C562    1.410   .     A
C546   C560    1.401   .     A
C547   S835    1.784   .     S
C547   C559    1.401   .     A
C548   S837    1.785   .     S
C548   C564    1.416   .     A
C548   C558    1.398   .     A
C549   C557    1.398   .     A
C549   S838    1.784   .     S
C550   C556    1.402   .     A
C550   S839    1.785   .     S
C551   C555    1.401   .     A
C551   S840    1.786   .     S
C552   C553    1.398   .     A
C552   S841    1.785   .     S
C553   S842    1.782   .     S
C554   H628    1.081   .     S
C555   S843    1.789   .     S
C556   S844    1.785   .     S
C557   S845    1.783   .     S
C558   S846    1.782   .     S
C559   S848    1.786   .     S
C560   S849    1.785   .     S
C561   S850    1.783   .     S
H573   O776    0.991   .     S
H574   O779    0.991   .     S
H575   O783    0.991   .     S
H577   O786    0.991   .     S
H578   O789    0.991   .     S
H579   O793    0.991   .     S
H580   O796    0.991   .     S
H581   O799    0.991   .     S
H582   O1690   0.990   .     S
H583   O806    0.989   .     S
H584   O365    0.990   1_655 S
H585   O812    0.988   .     S
H586   O1704   0.990   1_545 S
H588   O819    0.989   .     S
H590   O631    0.991   .     S
H591   O634    0.991   .     S
H592   O637    0.991   .     S
H593   O640    0.991   .     S
H594   O644    0.991   .     S
H595   O647    0.991   .     S
H596   O650    0.991   .     S
H597   O654    0.991   .     S
H599   O657    0.991   .     S
H600   O660    0.990   .     S
H601   O664    0.989   .     S
H602   O667    0.990   .     S
H603   O670    0.991   .     S
H604   O673    0.990   .     S
H605   O677    0.990   .     S
H606   O680    0.990   .     S
H607   O683    0.991   .     S
H608   O687    0.991   .     S
H610   O690    0.991   .     S
H611   O693    0.990   .     S
H612   O697    0.991   .     S
H613   O700    0.991   .     S
H614   O703    0.991   .     S
H615   O706    0.990   .     S
H616   O710    0.991   .     S
H617   O713    0.991   .     S
H618   O716    0.990   .     S
H619   O720    0.990   .     S
H621   O723    0.991   .     S
H622   O726    0.991   .     S
H623   O730    0.990   .     S
H624   O733    0.991   .     S
H625   O1624   0.991   1_545 S
O629   Zn884   1.942   .     S
O629   Zn876   1.947   .     S
O629   Zn873   1.943   .     S
O629   Zn1768  1.947   1_545 S
O630   Zn875   1.937   .     S
O631   S832    1.679   .     S
O632   S833    1.502   .     D
O633   S833    1.501   .     D
O634   S833    1.682   .     S
O635   S834    1.501   .     D
O636   S834    1.503   .     D
O637   S834    1.683   .     S
O638   S835    1.503   .     D
O639   S835    1.501   .     D
O640   S835    1.683   .     S
O641   Zn878   1.937   .     S
O642   S837    1.501   .     D
O643   S837    1.503   .     D
O644   S837    1.681   .     S
O645   S838    1.502   .     D
O646   S838    1.501   .     D
O647   S838    1.681   .     S
O648   S839    1.501   .     D
O649   S839    1.503   .     D
O650   S839    1.683   .     S
O651   S840    1.502   .     D
O652   Zn877   1.937   .     S
O653   S840    1.500   .     D
O654   S840    1.683   .     S
O655   S841    1.503   .     D
O656   S841    1.501   .     D
O657   S841    1.681   .     S
O658   S842    1.500   .     D
O659   S842    1.503   .     D
O660   S842    1.683   .     S
O661   S843    1.504   .     D
O662   S843    1.502   .     D
O663   Zn887   1.937   .     S
O664   S843    1.684   .     S
O665   S844    1.503   .     D
O666   S844    1.503   .     D
O667   S844    1.684   .     S
O668   S845    1.504   .     D
O669   S845    1.504   .     D
O670   S845    1.679   .     S
O671   S846    1.500   .     D
O672   S846    1.503   .     D
O673   S846    1.683   .     S
O674   Zn886   1.937   .     S
O675   S848    1.504   .     D
O676   S848    1.503   .     D
O677   S848    1.683   .     S
O678   S849    1.503   .     D
O679   S849    1.503   .     D
O680   S849    1.684   .     S
O681   S850    1.504   .     D
O682   S850    1.504   .     D
O683   S850    1.679   .     S
O684   S851    1.502   .     D
O685   Zn881   1.936   .     S
O686   S851    1.503   .     D
O687   S851    1.680   .     S
O688   S852    1.501   .     D
O689   S852    1.504   .     D
O690   S852    1.682   .     S
O691   S853    1.503   .     D
O692   S853    1.504   .     D
O693   S853    1.678   .     S
O694   S854    1.502   .     D
O695   S854    1.503   .     D
O696   Zn873   1.936   .     S
O697   S854    1.683   .     S
O698   S855    1.502   .     D
O699   S855    1.503   .     D
O700   S855    1.680   .     S
O701   S856    1.501   .     D
O702   S856    1.504   .     D
O703   S856    1.682   .     S
O704   S857    1.503   .     D
O705   S857    1.504   .     D
O706   S857    1.678   .     S
O707   Zn883   1.937   .     S
O708   S859    1.502   .     D
O709   S859    1.503   .     D
O710   S859    1.683   .     S
O712   S860    1.503   .     D
O713   S860    1.680   .     S
O714   S861    1.501   .     D
O715   S861    1.504   .     D
O716   S861    1.682   .     S
O717   S862    1.503   .     D
O718   Zn882   1.937   .     S
O719   S862    1.504   .     D
O720   S862    1.678   .     S
O721   S1751   1.502   1_545 S
O722   S863    1.503   .     D
O723   S863    1.683   .     S
O724   S420    1.502   1_655 S
O725   S420    1.503   1_655 S
O726   S864    1.680   .     S
O727   S865    1.500   .     D
O728   S865    1.504   .     D
O729   Zn885   1.937   .     S
O730   S865    1.682   .     S
O731   S866    1.503   .     D
O732   S866    1.504   .     D
O733   S866    1.678   .     S
O734   S867    1.503   .     D
O735   S867    1.503   .     D
O736   H1513   0.991   .     S
O736   S1755   1.682   .     S
O737   Zn881   1.943   .     S
O737   Zn879   1.947   .     S
O737   Zn885   1.942   .     S
O737   Zn1763  1.947   1_545 S
O738   Zn884   1.937   .     S
O739   Zn876   1.936   .     S
O740   Zn875   1.936   .     S
O741   Zn878   1.938   .     S
O742   Zn877   1.938   .     S
O743   Zn880   1.936   .     S
O744   Zn879   1.936   .     S
O745   Zn874   1.938   .     S
O746   Zn888   1.938   .     S
O747   Zn875   1.935   .     S
O748   Zn882   1.947   .     S
O748   Zn874   1.943   .     S
O748   Zn886   1.947   .     S
O749   Zn876   1.935   .     S
O750   Zn888   1.938   .     S
O751   Zn874   1.938   .     S
O752   Zn879   1.936   .     S
O753   Zn880   1.936   .     S
O754   Zn877   1.938   .     S
O755   Zn878   1.938   .     S
O756   Zn439   1.936   1_655 S
O757   Zn882   1.936   .     S
O758   Zn1773  1.938   .     S
O759   Zn877   1.942   .     S
O759   Zn887   1.947   .     S
O759   Zn883   1.947   .     S
O760   Zn884   1.938   .     S
O761   Zn887   1.936   .     S
O762   Zn442   1.936   1_655 S
O763   Zn881   1.938   .     S
O764   Zn1761  1.938   .     S
O765   Zn438   1.935   1_655 S
O766   Zn883   1.935   .     S
O767   Zn873   1.938   .     S
O768   Zn1769  1.938   .     S
O769   Zn886   1.936   .     S
O770   Zn880   1.937   .     S
O771   Zn443   1.936   1_655 S
O772   Zn1772  1.938   .     S
O773   Zn885   1.938   .     S
O774   S825    1.502   .     D
O775   S825    1.500   .     D
O776   S825    1.681   .     S
O777   S836    1.501   .     D
O778   S836    1.503   .     D
O779   S836    1.683   .     S
O780   S847    1.503   .     D
O781   Zn879   1.937   .     S
O781   C1390   1.282   1_545 S
O782   S847    1.500   .     D
O783   S847    1.683   .     S
O784   S858    1.501   .     D
O785   S858    1.503   .     D
O786   S858    1.681   .     S
O787   S868    1.502   .     D
O788   S868    1.500   .     D
O789   S868    1.681   .     S
O790   S869    1.501   .     D
O791   S869    1.503   .     D
O792   Zn874   1.936   .     S
O793   S869    1.683   .     S
O794   S870    1.502   .     D
O795   S870    1.501   .     D
O796   S870    1.683   .     S
O797   S871    1.501   .     D
O798   S871    1.503   .     D
O799   S871    1.681   .     S
O800   S872    1.500   .     D
O801   S872    1.503   .     D
O802   S872    1.683   .     S
O802   H1470   0.990   1_545 S
O803   Zn888   1.936   .     S
O804   S826    1.505   .     D
O805   S826    1.502   .     D
O806   S826    1.684   .     S
O807   S827    1.503   .     D
O808   S827    1.503   .     D
O809   S827    1.684   .     S
O810   S828    1.504   .     D
O811   S828    1.503   .     D
O812   S828    1.679   .     S
O813   S829    1.500   .     D
O814   Zn876   1.937   .     S
O814   C1389   1.278   1_545 S
O815   S829    1.503   .     D
O816   S829    1.683   .     S
O816   H1474   0.990   .     S
O817   S830    1.504   .     D
O818   S830    1.502   .     D
O819   S830    1.684   .     S
O820   S831    1.503   .     D
O821   S831    1.503   .     D
O822   S831    1.684   .     S
O822   H145    0.990   1_655 S
O823   S832    1.504   .     D
O824   S832    1.504   .     D
S860   O267    1.502   1_655 S
S863   O1609   1.502   .     S
S867   O1624   1.682   1_545 S
Zn873  O1652   1.938   1_545 S
Zn875  O1625   1.947   .     S
Zn878  O304    1.942   1_655 S
Zn880  O1517   1.947   .     S
Zn881  O1656   1.938   1_545 S
Zn884  O1660   1.938   1_545 S
Zn885  O1646   1.938   1_545 S
Zn888  O315    1.943   1_655 S
C889   C918    1.393   .     A
C889   H1009   1.081   .     S
C890   C928    1.393   .     A
C890   H1010   1.082   .     S
C890   C1385   1.400   1_455 S
C891   C991    1.407   .     A
C891   C984    1.409   .     A
C891   C955    1.475   .     S
C892   C994    1.410   .     A
C892   C956    1.475   .     S
C892   C983    1.407   .     A
C893   C993    1.417   .     A
C893   C982    1.419   .     A
C893   C957    1.481   .     S
C894   C981    1.422   .     A
C894   C958    1.479   .     S
C894   C996    1.415   .     A
C895   C980    1.409   .     A
C895   C995    1.407   .     A
C895   C959    1.475   .     S
C896   C969    1.480   .     S
C896   C999    1.422   .     A
C896   C979    1.416   .     A
C897   C978    1.407   .     A
C897   C970    1.475   .     S
C897   C997    1.409   .     A
C898   C1001   1.407   .     A
C898   C977    1.409   .     A
C898   C962    1.475   .     S
C899   C1000   1.419   .     A
C899   C975    1.416   .     A
C899   C963    1.481   .     S
C900   C1003   1.422   .     A
C900   C974    1.416   .     A
C900   C964    1.480   .     S
C901   C929    1.392   .     A
C901   C942    1.402   .     A
C901   H1011   1.081   .     S
C902   C1002   1.409   .     A
C902   C973    1.405   .     A
C902   C966    1.476   .     S
C903   C972    1.410   .     A
C903   C967    1.476   .     S
C903   C1005   1.408   .     A
C904   C968    1.481   .     S
C904   C1004   1.419   .     A
C904   C971    1.416   .     A
C905   C918    1.410   .     S
C905   C952    1.448   .     S
C906   C919    1.416   .     A
C906   C36     1.416   1_565 S
C906   C63     1.461   1_565 S
C907   C920    1.415   .     A
C907   C950    1.460   .     S
C907   C1369   1.415   .     S
C908   C922    1.410   .     A
C908   C949    1.447   .     S
C908   C1370   1.410   .     S
C909   C948    1.447   .     S
C909   C927    1.411   .     A
C909   C1375   1.412   .     S
C910   C933    1.416   .     A
C910   C947    1.461   .     S
C910   C1372   1.416   .     S
C911   C929    1.415   .     A
C911   C946    1.461   .     S
C911   C46     1.415   1_565 S
C912   C944    1.404   .     A
C912   C930    1.392   .     A
C912   H1012   1.080   .     S
C913   C945    1.447   .     S
C913   C930    1.410   .     A
C913   C47     1.409   1_565 S
C914   H1013   1.082   .     S
C914   C931    1.393   .     A
C914   C1384   1.402   1_455 S
C915   C941    1.400   .     A
C915   H1014   1.082   .     S
C915   C933    1.393   .     A
C916   C934    1.393   .     A
C916   H1015   1.081   .     S
C917   C935    1.393   .     A
C917   H1016   1.081   .     S
C918   S1295   1.776   .     S
C919   S1296   1.774   .     S
C919   C921    1.393   .     A
C920   S1297   1.775   .     S
C920   C932    1.392   .     A
C921   H1020   1.082   .     S
C921   C937    1.400   .     A
C922   C943    1.392   .     A
C922   S1298   1.775   .     S
C923   C954    1.393   .     A
C923   S1299   1.776   .     S
C923   C17     1.410   1_565 A
C924   S1300   1.774   .     S
C924   C965    1.393   .     A
C925   S1301   1.775   .     S
C925   C976    1.392   .     A
C925   C1351   1.415   1_455 S
C926   S1303   1.775   .     S
C926   C987    1.392   .     A
C926   C1352   1.410   1_455 S
C927   C998    1.393   .     A
C927   S1304   1.777   .     S
C928   S1305   1.774   .     S
C928   C1354   1.416   1_455 S
C929   S1306   1.775   .     S
C930   S1307   1.775   .     S
C931   S1308   1.778   .     S
C931   C1353   1.412   1_455 S
C932   C938    1.402   .     A
C932   H1031   1.081   .     S
C933   S1309   1.774   .     S
C934   S1310   1.774   .     S
C935   S1311   1.776   .     S
C936   C954    1.403   .     A
C936   C1      1.403   1_565 S
C936   C937    1.479   1_554 S
C937   C936    1.479   1_556 S
C937   C77     1.400   1_565 S
C938   C939    1.482   1_554 S
C938   C1420   1.402   .     S
C939   C943    1.405   .     A
C939   C938    1.482   1_556 S
C939   C1431   1.405   .     S
C940   C998    1.403   .     A
C940   C941    1.478   .     S
C940   C1358   1.402   .     S
C941   C1334   1.400   .     S
C942   C944    1.481   .     S
C942   C28     1.401   1_565 S
C943   H1042   1.080   .     S
C944   C29     1.405   1_565 S
C945   O1214   1.277   .     A
C945   O370    1.278   1_565 S
C946   O1074   1.281   .     A
C946   O337    1.282   1_565 S
C947   O1085   1.279   .     A
C947   O1680   1.278   .     S
C948   O1247   1.274   .     A
C948   O1540   1.276   .     S
C949   O1551   1.278   .     S
C949   O1595   1.277   .     S
C950   O1562   1.281   .     S
C950   O1606   1.281   .     S
C951   O1129   1.279   .     A
C951   O1173   1.278   .     A
C952   O1140   1.275   .     A
C952   O1182   1.275   .     A
C953   O1183   1.289   .     A
C953   O1211   1.282   .     A
C953   C1008   1.480   .     S
C954   H1053   1.081   .     S
C955   O1184   1.286   .     A
C955   O1212   1.281   .     A
C956   O1209   1.284   .     A
C956   O1185   1.282   .     A
C957   O1186   1.286   .     A
C957   O1210   1.284   .     A
C958   O1216   1.280   .     A
C958   O1187   1.289   .     A
C959   O1217   1.281   .     A
C959   O1188   1.285   .     A
C960   O1213   1.285   .     A
C960   C1006   1.475   .     S
C960   O1189   1.282   .     A
C961   C1007   1.480   .     S
C961   O1215   1.283   .     A
C961   O1190   1.287   .     A
C962   O1202   1.282   .     A
C962   O1191   1.284   .     A
C963   O1193   1.284   .     A
C963   O1204   1.286   .     A
C964   O1200   1.288   .     A
C964   O1194   1.282   .     A
C965   H1064   1.082   .     S
C966   O1195   1.280   .     A
C966   O1201   1.286   .     A
C967   O1196   1.284   .     A
C967   O1207   1.283   .     A
C968   O1197   1.284   .     A
C968   O1208   1.286   .     A
C969   O1198   1.282   .     A
C969   O1205   1.288   .     A
C970   O1206   1.286   .     A
C970   O1199   1.280   .     A
C971   S1269   1.783   .     S
C971   C988    1.398   .     A
C972   S1280   1.785   .     S
C972   C986    1.401   .     A
C973   C985    1.400   .     A
C973   S1291   1.783   .     S
C974   S1302   1.784   .     S
C974   C984    1.398   .     A
C975   C983    1.398   .     A
C975   S1312   1.782   .     S
C976   H1070   1.081   .     S
C976   C1382   1.402   1_455 S
C977   C982    1.401   .     A
C977   S1313   1.785   .     S
C978   C981    1.401   .     A
C978   S1314   1.785   .     S
C979   C980    1.398   .     A
C979   S1315   1.785   .     S
C980   S1316   1.782   .     S
C981   S1270   1.788   .     S
C982   S1271   1.785   .     S
C983   S1272   1.785   .     S
C984   S1273   1.783   .     S
C985   S1274   1.787   .     S
C985   C1008   1.422   .     A
C986   S1275   1.785   .     S
C986   C1007   1.419   .     A
C987   H1071   1.080   .     S
C987   C1383   1.405   1_455 S
C988   S1276   1.783   .     S
C988   C1006   1.407   .     A
C989   S1277   1.784   .     S
C989   C1005   1.398   .     A
C989   C1007   1.415   .     A
C990   S1278   1.785   .     S
C990   C1006   1.410   .     A
C990   C1004   1.401   .     A
C991   S1279   1.784   .     S
C991   C1003   1.401   .     A
C992   S1281   1.785   .     S
C992   C1008   1.416   .     A
C992   C1002   1.398   .     A
C993   C1001   1.398   .     A
C993   S1282   1.784   .     S
C994   C1000   1.402   .     A
C994   S1283   1.785   .     S
C995   C999    1.401   .     A
C995   S1284   1.786   .     S
C996   C997    1.398   .     A
C996   S1285   1.785   .     S
C997   S1286   1.782   .     S
C998   H1072   1.081   .     S
C999   S1287   1.789   .     S
C1000  S1288   1.785   .     S
C1001  S1289   1.783   .     S
C1002  S1290   1.782   .     S
C1003  S1292   1.786   .     S
C1004  S1293   1.785   .     S
C1005  S1294   1.783   .     S
H1017  O1220   0.991   .     S
H1018  O1223   0.991   .     S
H1019  O1227   0.991   .     S
H1021  O1230   0.991   .     S
H1022  O1233   0.991   .     S
H1023  O1237   0.991   .     S
H1024  O1240   0.991   .     S
H1025  O1243   0.991   .     S
H1026  O358    0.990   1_565 S
H1027  O1250   0.989   .     S
H1028  O1697   0.990   .     S
H1029  O1256   0.988   .     S
H1032  O1263   0.989   .     S
H1033  O1710   0.990   1_455 S
H1034  O1075   0.991   .     S
H1035  O1078   0.991   .     S
H1036  O1081   0.991   .     S
H1037  O1084   0.991   .     S
H1038  O1088   0.991   .     S
H1039  O1091   0.991   .     S
H1040  O1094   0.991   .     S
H1041  O1098   0.991   .     S
H1043  O1101   0.991   .     S
H1044  O1104   0.990   .     S
H1045  O1108   0.989   .     S
H1046  O1111   0.990   .     S
H1047  O1114   0.991   .     S
H1048  O1117   0.990   .     S
H1049  O1121   0.990   .     S
H1050  O1124   0.990   .     S
H1051  O1127   0.991   .     S
H1052  O1131   0.991   .     S
H1054  O1134   0.991   .     S
H1055  O1137   0.990   .     S
H1056  O1141   0.991   .     S
H1057  O1144   0.991   .     S
H1058  O1147   0.991   .     S
H1059  O1150   0.990   .     S
H1060  O1154   0.991   .     S
H1061  O1157   0.991   .     S
H1062  O1160   0.990   .     S
H1063  O1164   0.990   .     S
H1065  O1167   0.991   .     S
H1066  O1170   0.991   .     S
H1067  O1174   0.990   .     S
H1068  O1177   0.991   .     S
O1073  Zn1328  1.942   .     S
O1073  Zn1320  1.947   .     S
O1073  Zn1317  1.943   .     S
O1074  Zn1319  1.937   .     S
O1075  S1276   1.679   .     S
O1076  S1277   1.502   .     D
O1077  S1277   1.501   .     D
O1078  S1277   1.682   .     S
O1079  S1278   1.501   .     D
O1080  S1278   1.503   .     D
O1081  S1278   1.683   .     S
O1082  S1279   1.503   .     D
O1083  S1279   1.501   .     D
O1084  S1279   1.683   .     S
O1085  Zn1322  1.937   .     S
O1086  S1281   1.501   .     D
O1087  S1281   1.503   .     D
O1088  S1281   1.681   .     S
O1089  S1282   1.502   .     D
O1090  S1282   1.501   .     D
O1091  S1282   1.681   .     S
O1092  S1283   1.501   .     D
O1093  S1283   1.503   .     D
O1094  S1283   1.683   .     S
O1095  S1284   1.502   .     D
O1096  Zn1321  1.937   .     S
O1096  C1392   1.276   1_455 S
O1097  S1284   1.500   .     D
O1098  S1284   1.683   .     S
O1099  S1285   1.503   .     D
O1100  S1285   1.501   .     D
O1101  S1285   1.681   .     S
O1102  S1286   1.500   .     D
O1103  S1286   1.503   .     D
O1104  S1286   1.683   .     S
O1105  S1287   1.504   .     D
O1106  S1287   1.502   .     D
O1107  Zn1331  1.937   .     S
O1107  C1393   1.278   1_455 S
O1108  S1287   1.684   .     S
O1109  S1288   1.503   .     D
O1110  S1288   1.503   .     D
O1111  S1288   1.684   .     S
O1112  S1289   1.504   .     D
O1113  S1289   1.504   .     D
O1114  S1289   1.679   .     S
O1115  S1290   1.500   .     D
O1116  S1290   1.503   .     D
O1117  S1290   1.683   .     S
O1118  C1394   1.281   1_455 S
O1118  Zn1330  1.937   .     S
O1119  S1292   1.504   .     D
O1120  S1292   1.503   .     D
O1121  S1292   1.683   .     S
O1122  S1293   1.503   .     D
O1123  S1293   1.503   .     D
O1124  S1293   1.684   .     S
O1125  S1294   1.504   .     D
O1126  S1294   1.504   .     D
O1127  S1294   1.679   .     S
O1128  S1295   1.502   .     D
O1129  Zn1325  1.936   .     S
O1130  S1295   1.503   .     D
O1131  S1295   1.680   .     S
O1132  S1296   1.501   .     D
O1133  S1296   1.504   .     D
O1134  S1296   1.682   .     S
O1135  S1297   1.503   .     D
O1136  S1297   1.504   .     D
O1137  S1297   1.678   .     S
O1138  S1298   1.502   .     D
O1139  S1298   1.503   .     D
O1140  Zn1317  1.936   .     S
O1141  S1298   1.683   .     S
O1142  S1299   1.502   .     D
O1143  S1299   1.503   .     D
O1144  S1299   1.680   .     S
O1145  S1300   1.501   .     D
O1146  S1300   1.504   .     D
O1147  S1300   1.682   .     S
O1148  S1301   1.503   .     D
O1149  S1301   1.504   .     D
O1150  S1301   1.678   .     S
O1151  C1393   1.277   1_455 S
O1151  Zn1327  1.937   .     S
O1152  S1303   1.502   .     D
O1153  S1303   1.503   .     D
O1154  S1303   1.683   .     S
O1155  S1748   1.502   1_455 S
O1156  S1304   1.503   .     D
O1157  S1304   1.680   .     S
O1158  S1305   1.501   .     D
O1159  S1305   1.504   .     D
O1160  S1305   1.682   .     S
O1161  S1306   1.503   .     D
O1162  Zn1326  1.937   .     S
O1162  C1394   1.281   1_455 S
O1163  S1306   1.504   .     D
O1164  S1306   1.678   .     S
O1166  S1307   1.503   .     D
O1167  S1307   1.683   .     S
O1168  S1752   1.502   .     S
O1169  S1752   1.503   .     S
O1170  S1308   1.680   .     S
O1171  S1309   1.500   .     D
O1172  S1309   1.504   .     D
O1173  Zn1329  1.937   .     S
O1174  S1309   1.682   .     S
O1175  S1310   1.503   .     D
O1176  S1310   1.504   .     D
O1177  S1310   1.678   .     S
O1178  S1311   1.503   .     D
O1179  S1311   1.503   .     D
O1180  H181    0.991   1_565 S
O1180  S423    1.682   1_565 S
O1181  Zn1325  1.943   .     S
O1181  Zn1323  1.947   .     S
O1181  Zn1329  1.942   .     S
O1182  Zn1328  1.937   .     S
O1183  Zn1320  1.936   .     S
O1184  Zn1319  1.936   .     S
O1185  Zn1322  1.938   .     S
O1186  Zn1321  1.938   .     S
O1187  Zn1324  1.936   .     S
O1188  Zn1323  1.936   .     S
O1189  Zn1318  1.938   .     S
O1190  Zn1332  1.938   .     S
O1191  Zn1319  1.935   .     S
O1192  Zn1326  1.947   .     S
O1192  Zn1318  1.943   .     S
O1192  Zn1766  1.942   1_455 S
O1192  Zn1330  1.947   .     S
O1193  Zn1320  1.935   .     S
O1194  Zn1332  1.938   .     S
O1195  Zn1318  1.938   .     S
O1196  Zn1323  1.936   .     S
O1197  Zn1324  1.936   .     S
O1198  Zn1321  1.938   .     S
O1199  Zn1322  1.938   .     S
O1200  Zn1771  1.936   .     S
O1201  Zn1326  1.936   .     S
O1202  Zn441   1.938   1_565 S
O1203  Zn1321  1.942   .     S
O1203  Zn1331  1.947   .     S
O1203  Zn1327  1.947   .     S
O1203  Zn1776  1.943   1_455 S
O1204  Zn1328  1.938   .     S
O1205  Zn1331  1.936   .     S
O1206  Zn1774  1.936   .     S
O1207  Zn1325  1.938   .     S
O1208  Zn429   1.938   1_565 S
O1209  Zn1770  1.935   .     S
O1210  Zn1327  1.935   .     S
O1211  Zn1317  1.938   .     S
O1212  Zn437   1.938   1_565 S
O1213  Zn1330  1.936   .     S
O1214  Zn1324  1.937   .     S
O1215  Zn1775  1.936   .     S
O1216  Zn440   1.938   1_565 S
O1217  Zn1329  1.938   .     S
O1218  S1269   1.502   .     D
O1219  S1269   1.500   .     D
O1220  S1269   1.681   .     S
O1221  S1280   1.501   .     D
O1222  S1280   1.503   .     D
O1223  S1280   1.683   .     S
O1224  S1291   1.503   .     D
O1225  Zn1323  1.937   .     S
O1226  S1291   1.500   .     D
O1227  S1291   1.683   .     S
O1228  S1302   1.501   .     D
O1229  S1302   1.503   .     D
O1230  S1302   1.681   .     S
O1231  S1312   1.502   .     D
O1232  S1312   1.500   .     D
O1233  S1312   1.681   .     S
O1234  S1313   1.501   .     D
O1235  S1313   1.503   .     D
O1236  Zn1318  1.936   .     S
O1236  C1391   1.278   1_455 S
O1237  S1313   1.683   .     S
O1238  S1314   1.502   .     D
O1239  S1314   1.501   .     D
O1240  S1314   1.683   .     S
O1241  S1315   1.501   .     D
O1242  S1315   1.503   .     D
O1243  S1315   1.681   .     S
O1244  S1316   1.500   .     D
O1245  S1316   1.503   .     D
O1246  S1316   1.683   .     S
O1247  Zn1332  1.936   .     S
O1248  S1270   1.505   .     D
O1249  S1270   1.502   .     D
O1250  S1270   1.684   .     S
O1251  S1271   1.503   .     D
O1252  S1271   1.503   .     D
O1253  S1271   1.684   .     S
O1253  H1472   0.990   1_455 S
O1254  S1272   1.504   .     D
O1255  S1272   1.503   .     D
O1256  S1272   1.679   .     S
O1257  S1273   1.500   .     D
O1258  Zn1320  1.937   .     S
O1259  S1273   1.503   .     D
O1260  S1273   1.683   .     S
O1260  H142    0.990   1_565 S
O1261  S1274   1.504   .     D
O1262  S1274   1.502   .     D
O1263  S1274   1.684   .     S
O1264  S1275   1.503   .     D
O1265  S1275   1.503   .     D
O1266  S1275   1.684   .     S
O1266  H1477   0.990   .     S
O1267  S1276   1.504   .     D
O1268  S1276   1.504   .     D
S1304  O1599   1.502   .     S
S1307  O277    1.502   1_565 S
S1308  O1613   1.503   1_455 S
S1308  O1612   1.502   1_455 S
Zn1319 O293    1.947   1_565 S
Zn1322 O1636   1.942   .     S
Zn1324 O185    1.947   1_565 S
Zn1326 O1653   1.935   1_455 S
Zn1327 O1644   1.936   1_455 S
Zn1330 O1650   1.936   1_455 S
Zn1331 O1659   1.936   1_455 S
Zn1332 O1647   1.943   .     S
C1333  C1362   1.393   .     A
C1333  H1453   1.081   .     S
C1334  C1372   1.393   .     A
C1334  H1454   1.082   .     S
C1335  C1435   1.407   .     A
C1335  C1428   1.409   .     A
C1335  C1399   1.475   .     S
C1336  C1438   1.410   .     A
C1336  C1400   1.475   .     S
C1336  C1427   1.407   .     A
C1337  C1437   1.417   .     A
C1337  C1426   1.419   .     A
C1337  C1401   1.481   .     S
C1338  C1425   1.422   .     A
C1338  C1402   1.479   .     S
C1338  C1440   1.415   .     A
C1339  C1424   1.409   .     A
C1339  C1439   1.407   .     A
C1339  C1403   1.475   .     S
C1340  C1413   1.480   .     S
C1340  C1443   1.422   .     A
C1340  C1423   1.416   .     A
C1341  C1422   1.407   .     A
C1341  C1414   1.475   .     S
C1341  C1441   1.409   .     A
C1342  C1445   1.407   .     A
C1342  C1421   1.409   .     A
C1342  C1406   1.475   .     S
C1343  C1444   1.419   .     A
C1343  C1419   1.416   .     A
C1343  C1407   1.481   .     S
C1344  C1447   1.422   .     A
C1344  C1418   1.416   .     A
C1344  C1408   1.480   .     S
C1345  C1373   1.392   .     A
C1345  C1386   1.402   .     A
C1345  H1455   1.081   .     S
C1346  C1446   1.409   .     A
C1346  C1417   1.405   .     A
C1346  C1410   1.476   .     S
C1347  C1416   1.410   .     A
C1347  C1411   1.476   .     S
C1347  C1449   1.408   .     A
C1348  C1412   1.481   .     S
C1348  C1448   1.419   .     A
C1348  C1415   1.416   .     A
C1349  C1362   1.410   .     S
C1349  C1396   1.448   .     S
C1350  C1363   1.416   .     A
C1350  C480    1.416   1_565 S
C1350  C507    1.461   1_565 S
C1351  C1364   1.415   .     A
C1351  C1394   1.460   .     S
C1351  C925    1.415   1_655 S
C1352  C1366   1.410   .     A
C1352  C1393   1.447   .     S
C1352  C926    1.410   1_655 S
C1353  C1392   1.447   .     S
C1353  C1371   1.411   .     A
C1353  C931    1.412   1_655 S
C1354  C1377   1.416   .     A
C1354  C1391   1.461   .     S
C1354  C928    1.416   1_655 S
C1355  C1373   1.415   .     A
C1355  C1390   1.461   .     S
C1355  C490    1.415   1_565 S
C1356  C1388   1.404   .     A
C1356  C1374   1.392   .     A
C1356  H1456   1.080   .     S
C1357  C1389   1.447   .     S
C1357  C1374   1.410   .     A
C1357  C491    1.409   1_565 S
C1358  H1457   1.082   .     S
C1358  C1375   1.393   .     A
C1359  C1385   1.400   .     A
C1359  H1458   1.082   .     S
C1359  C1377   1.393   .     A
C1360  C1378   1.393   .     A
C1360  H1459   1.081   .     S
C1361  C1379   1.393   .     A
C1361  H1460   1.081   .     S
C1362  S1739   1.776   .     S
C1363  S1740   1.774   .     S
C1363  C1365   1.393   .     A
C1364  S1741   1.775   .     S
C1364  C1376   1.392   .     A
C1365  H1464   1.082   .     S
C1365  C1381   1.400   .     A
C1366  C1387   1.392   .     A
C1366  S1742   1.775   .     S
C1367  C1398   1.393   .     A
C1367  S1743   1.776   .     S
C1367  C461    1.410   1_565 A
C1368  S1744   1.774   .     S
C1368  C1409   1.393   .     A
C1369  S1745   1.775   .     S
C1369  C1420   1.392   .     A
C1370  S1747   1.775   .     S
C1370  C1431   1.392   .     A
C1371  C1442   1.393   .     A
C1371  S1748   1.777   .     S
C1372  S1749   1.774   .     S
C1373  S1750   1.775   .     S
C1374  S1751   1.775   .     S
C1375  S1752   1.778   .     S
C1376  C1382   1.402   .     A
C1376  H1475   1.081   .     S
C1377  S1753   1.774   .     S
C1378  S1754   1.774   .     S
C1379  S1755   1.776   .     S
C1380  C1398   1.403   .     A
C1380  C445    1.403   1_565 S
C1380  C1381   1.479   1_554 S
C1381  C1380   1.479   1_556 S
C1381  C521    1.400   1_565 S
C1382  C1383   1.482   1_554 S
C1382  C976    1.402   1_655 S
C1383  C1387   1.405   .     A
C1383  C1382   1.482   1_556 S
C1383  C987    1.405   1_655 S
C1384  C1442   1.403   .     A
C1384  C1385   1.478   .     S
C1384  C914    1.402   1_655 S
C1385  C890    1.400   1_655 S
C1386  C1388   1.481   .     S
C1386  C472    1.401   1_565 S
C1387  H1486   1.080   .     S
C1388  C473    1.405   1_565 S
C1389  O1658   1.277   .     A
C1389  O814    1.278   1_565 S
C1390  O1518   1.281   .     A
C1390  O781    1.282   1_565 S
C1391  O1529   1.279   .     A
C1391  O1236   1.278   1_655 S
C1392  O1691   1.274   .     A
C1392  O1096   1.276   1_655 S
C1393  O1107   1.278   1_655 S
C1393  O1151   1.277   1_655 S
C1394  O1118   1.281   1_655 S
C1394  O1162   1.281   1_655 S
C1395  O1573   1.279   .     A
C1395  O1617   1.278   .     A
C1396  O1584   1.275   .     A
C1396  O1626   1.275   .     A
C1397  O1627   1.289   .     A
C1397  O1655   1.282   .     A
C1397  C1452   1.480   .     S
C1398  H1497   1.081   .     S
C1399  O1628   1.286   .     A
C1399  O1656   1.281   .     A
C1400  O1653   1.284   .     A
C1400  O1629   1.282   .     A
C1401  O1630   1.286   .     A
C1401  O1654   1.284   .     A
C1402  O1660   1.280   .     A
C1402  O1631   1.289   .     A
C1403  O1661   1.281   .     A
C1403  O1632   1.285   .     A
C1404  O1657   1.285   .     A
C1404  C1450   1.475   .     S
C1404  O1633   1.282   .     A
C1405  C1451   1.480   .     S
C1405  O1659   1.283   .     A
C1405  O1634   1.287   .     A
C1406  O1646   1.282   .     A
C1406  O1635   1.284   .     A
C1407  O1637   1.284   .     A
C1407  O1648   1.286   .     A
C1408  O1644   1.288   .     A
C1408  O1638   1.282   .     A
C1409  H1508   1.082   .     S
C1410  O1639   1.280   .     A
C1410  O1645   1.286   .     A
C1411  O1640   1.284   .     A
C1411  O1651   1.283   .     A
C1412  O1641   1.284   .     A
C1412  O1652   1.286   .     A
C1413  O1642   1.282   .     A
C1413  O1649   1.288   .     A
C1414  O1650   1.286   .     A
C1414  O1643   1.280   .     A
C1415  S1713   1.783   .     S
C1415  C1432   1.398   .     A
C1416  S1724   1.785   .     S
C1416  C1430   1.401   .     A
C1417  C1429   1.400   .     A
C1417  S1735   1.783   .     S
C1418  S1746   1.784   .     S
C1418  C1428   1.398   .     A
C1419  C1427   1.398   .     A
C1419  S1756   1.782   .     S
C1420  H1514   1.081   .     S
C1421  C1426   1.401   .     A
C1421  S1757   1.785   .     S
C1422  C1425   1.401   .     A
C1422  S1758   1.785   .     S
C1423  C1424   1.398   .     A
C1423  S1759   1.785   .     S
C1424  S1760   1.782   .     S
C1425  S1714   1.788   .     S
C1426  S1715   1.785   .     S
C1427  S1716   1.785   .     S
C1428  S1717   1.783   .     S
C1429  S1718   1.787   .     S
C1429  C1452   1.422   .     A
C1430  S1719   1.785   .     S
C1430  C1451   1.419   .     A
C1431  H1515   1.080   .     S
C1432  S1720   1.783   .     S
C1432  C1450   1.407   .     A
C1433  S1721   1.784   .     S
C1433  C1449   1.398   .     A
C1433  C1451   1.415   .     A
C1434  S1722   1.785   .     S
C1434  C1450   1.410   .     A
C1434  C1448   1.401   .     A
C1435  S1723   1.784   .     S
C1435  C1447   1.401   .     A
C1436  S1725   1.785   .     S
C1436  C1452   1.416   .     A
C1436  C1446   1.398   .     A
C1437  C1445   1.398   .     A
C1437  S1726   1.784   .     S
C1438  C1444   1.402   .     A
C1438  S1727   1.785   .     S
C1439  C1443   1.401   .     A
C1439  S1728   1.786   .     S
C1440  C1441   1.398   .     A
C1440  S1729   1.785   .     S
C1441  S1730   1.782   .     S
C1442  H1516   1.081   .     S
C1443  S1731   1.789   .     S
C1444  S1732   1.785   .     S
C1445  S1733   1.783   .     S
C1446  S1734   1.782   .     S
C1447  S1736   1.786   .     S
C1448  S1737   1.785   .     S
C1449  S1738   1.783   .     S
H1461  O1664   0.991   .     S
H1462  O1667   0.991   .     S
H1463  O1671   0.991   .     S
H1465  O1674   0.991   .     S
H1466  O1677   0.991   .     S
H1467  O1681   0.991   .     S
H1468  O1684   0.991   .     S
H1469  O1687   0.991   .     S
H1470  O802    0.990   1_565 S
H1471  O1694   0.989   .     S
H1472  O1253   0.990   1_655 S
H1473  O1700   0.988   .     S
H1476  O1707   0.989   .     S
H1478  O1519   0.991   .     S
H1479  O1522   0.991   .     S
H1480  O1525   0.991   .     S
H1481  O1528   0.991   .     S
H1482  O1532   0.991   .     S
H1483  O1535   0.991   .     S
H1484  O1538   0.991   .     S
H1485  O1542   0.991   .     S
H1487  O1545   0.991   .     S
H1488  O1548   0.990   .     S
H1489  O1552   0.989   .     S
H1490  O1555   0.990   .     S
H1491  O1558   0.991   .     S
H1492  O1561   0.990   .     S
H1493  O1565   0.990   .     S
H1494  O1568   0.990   .     S
H1495  O1571   0.991   .     S
H1496  O1575   0.991   .     S
H1498  O1578   0.991   .     S
H1499  O1581   0.990   .     S
H1500  O1585   0.991   .     S
H1501  O1588   0.991   .     S
H1502  O1591   0.991   .     S
H1503  O1594   0.990   .     S
H1504  O1598   0.991   .     S
H1505  O1601   0.991   .     S
H1506  O1604   0.990   .     S
H1507  O1608   0.990   .     S
H1509  O1611   0.991   .     S
H1510  O1614   0.991   .     S
H1511  O1618   0.990   .     S
H1512  O1621   0.991   .     S
O1517  Zn1772  1.942   .     S
O1517  Zn1764  1.947   .     S
O1517  Zn1761  1.943   .     S
O1518  Zn1763  1.937   .     S
O1519  S1720   1.679   .     S
O1520  S1721   1.502   .     D
O1521  S1721   1.501   .     D
O1522  S1721   1.682   .     S
O1523  S1722   1.501   .     D
O1524  S1722   1.503   .     D
O1525  S1722   1.683   .     S
O1526  S1723   1.503   .     D
O1527  S1723   1.501   .     D
O1528  S1723   1.683   .     S
O1529  Zn1766  1.937   .     S
O1530  S1725   1.501   .     D
O1531  S1725   1.503   .     D
O1532  S1725   1.681   .     S
O1533  S1726   1.502   .     D
O1534  S1726   1.501   .     D
O1535  S1726   1.681   .     S
O1536  S1727   1.501   .     D
O1537  S1727   1.503   .     D
O1538  S1727   1.683   .     S
O1539  S1728   1.502   .     D
O1540  Zn1765  1.937   .     S
O1541  S1728   1.500   .     D
O1542  S1728   1.683   .     S
O1543  S1729   1.503   .     D
O1544  S1729   1.501   .     D
O1545  S1729   1.681   .     S
O1546  S1730   1.500   .     D
O1547  S1730   1.503   .     D
O1548  S1730   1.683   .     S
O1549  S1731   1.504   .     D
O1550  S1731   1.502   .     D
O1551  Zn1775  1.937   .     S
O1552  S1731   1.684   .     S
O1553  S1732   1.503   .     D
O1554  S1732   1.503   .     D
O1555  S1732   1.684   .     S
O1556  S1733   1.504   .     D
O1557  S1733   1.504   .     D
O1558  S1733   1.679   .     S
O1559  S1734   1.500   .     D
O1560  S1734   1.503   .     D
O1561  S1734   1.683   .     S
O1562  Zn1774  1.937   .     S
O1563  S1736   1.504   .     D
O1564  S1736   1.503   .     D
O1565  S1736   1.683   .     S
O1566  S1737   1.503   .     D
O1567  S1737   1.503   .     D
O1568  S1737   1.684   .     S
O1569  S1738   1.504   .     D
O1570  S1738   1.504   .     D
O1571  S1738   1.679   .     S
O1572  S1739   1.502   .     D
O1573  Zn1769  1.936   .     S
O1574  S1739   1.503   .     D
O1575  S1739   1.680   .     S
O1576  S1740   1.501   .     D
O1577  S1740   1.504   .     D
O1578  S1740   1.682   .     S
O1579  S1741   1.503   .     D
O1580  S1741   1.504   .     D
O1581  S1741   1.678   .     S
O1582  S1742   1.502   .     D
O1583  S1742   1.503   .     D
O1584  Zn1761  1.936   .     S
O1585  S1742   1.683   .     S
O1586  S1743   1.502   .     D
O1587  S1743   1.503   .     D
O1588  S1743   1.680   .     S
O1589  S1744   1.501   .     D
O1590  S1744   1.504   .     D
O1591  S1744   1.682   .     S
O1592  S1745   1.503   .     D
O1593  S1745   1.504   .     D
O1594  S1745   1.678   .     S
O1595  Zn1771  1.937   .     S
O1596  S1747   1.502   .     D
O1597  S1747   1.503   .     D
O1598  S1747   1.683   .     S
O1600  S1748   1.503   .     D
O1601  S1748   1.680   .     S
O1602  S1749   1.501   .     D
O1603  S1749   1.504   .     D
O1604  S1749   1.682   .     S
O1605  S1750   1.503   .     D
O1606  Zn1770  1.937   .     S
O1607  S1750   1.504   .     D
O1608  S1750   1.678   .     S
O1610  S1751   1.503   .     D
O1611  S1751   1.683   .     S
O1612  S1308   1.502   1_655 S
O1613  S1308   1.503   1_655 S
O1614  S1752   1.680   .     S
O1615  S1753   1.500   .     D
O1616  S1753   1.504   .     D
O1617  Zn1773  1.937   .     S
O1618  S1753   1.682   .     S
O1619  S1754   1.503   .     D
O1620  S1754   1.504   .     D
O1621  S1754   1.678   .     S
O1622  S1755   1.503   .     D
O1623  S1755   1.503   .     D
O1624  H625    0.991   1_565 S
O1624  S867    1.682   1_565 S
O1625  Zn1769  1.943   .     S
O1625  Zn1767  1.947   .     S
O1625  Zn1773  1.942   .     S
O1626  Zn1772  1.937   .     S
O1627  Zn1764  1.936   .     S
O1628  Zn1763  1.936   .     S
O1629  Zn1766  1.938   .     S
O1630  Zn1765  1.938   .     S
O1631  Zn1768  1.936   .     S
O1632  Zn1767  1.936   .     S
O1633  Zn1762  1.938   .     S
O1634  Zn1776  1.938   .     S
O1635  Zn1763  1.935   .     S
O1636  Zn1770  1.947   .     S
O1636  Zn1762  1.943   .     S
O1636  Zn1774  1.947   .     S
O1637  Zn1764  1.935   .     S
O1638  Zn1776  1.938   .     S
O1639  Zn1762  1.938   .     S
O1640  Zn1767  1.936   .     S
O1641  Zn1768  1.936   .     S
O1642  Zn1765  1.938   .     S
O1643  Zn1766  1.938   .     S
O1644  Zn1327  1.936   1_655 S
O1645  Zn1770  1.936   .     S
O1646  Zn885   1.938   1_565 S
O1647  Zn1765  1.942   .     S
O1647  Zn1775  1.947   .     S
O1647  Zn1771  1.947   .     S
O1648  Zn1772  1.938   .     S
O1649  Zn1775  1.936   .     S
O1650  Zn1330  1.936   1_655 S
O1651  Zn1769  1.938   .     S
O1652  Zn873   1.938   1_565 S
O1653  Zn1326  1.935   1_655 S
O1654  Zn1771  1.935   .     S
O1655  Zn1761  1.938   .     S
O1656  Zn881   1.938   1_565 S
O1657  Zn1774  1.936   .     S
O1658  Zn1768  1.937   .     S
O1659  Zn1331  1.936   1_655 S
O1660  Zn884   1.938   1_565 S
O1661  Zn1773  1.938   .     S
O1662  S1713   1.502   .     D
O1663  S1713   1.500   .     D
O1664  S1713   1.681   .     S
O1665  S1724   1.501   .     D
O1666  S1724   1.503   .     D
O1667  S1724   1.683   .     S
O1668  S1735   1.503   .     D
O1669  Zn1767  1.937   .     S
O1670  S1735   1.500   .     D
O1671  S1735   1.683   .     S
O1672  S1746   1.501   .     D
O1673  S1746   1.503   .     D
O1674  S1746   1.681   .     S
O1675  S1756   1.502   .     D
O1676  S1756   1.500   .     D
O1677  S1756   1.681   .     S
O1678  S1757   1.501   .     D
O1679  S1757   1.503   .     D
O1680  Zn1762  1.936   .     S
O1681  S1757   1.683   .     S
O1682  S1758   1.502   .     D
O1683  S1758   1.501   .     D
O1684  S1758   1.683   .     S
O1685  S1759   1.501   .     D
O1686  S1759   1.503   .     D
O1687  S1759   1.681   .     S
O1688  S1760   1.500   .     D
O1689  S1760   1.503   .     D
O1690  S1760   1.683   .     S
O1691  Zn1776  1.936   .     S
O1692  S1714   1.505   .     D
O1693  S1714   1.502   .     D
O1694  S1714   1.684   .     S
O1695  S1715   1.503   .     D
O1696  S1715   1.503   .     D
O1697  S1715   1.684   .     S
O1698  S1716   1.504   .     D
O1699  S1716   1.503   .     D
O1700  S1716   1.679   .     S
O1701  S1717   1.500   .     D
O1702  Zn1764  1.937   .     S
O1703  S1717   1.503   .     D
O1704  S1717   1.683   .     S
O1704  H586    0.990   1_565 S
O1705  S1718   1.504   .     D
O1706  S1718   1.502   .     D
O1707  S1718   1.684   .     S
O1708  S1719   1.503   .     D
O1709  S1719   1.503   .     D
O1710  S1719   1.684   .     S
O1710  H1033   0.990   1_655 S
O1711  S1720   1.504   .     D
O1712  S1720   1.504   .     D
S1748  O1155   1.502   1_655 S
S1751  O721    1.502   1_565 S
Zn1763 O737    1.947   1_565 S
Zn1766 O1192   1.942   1_655 S
Zn1768 O629    1.947   1_565 S
Zn1776 O1203   1.943   1_655 S
