data_str_m1_o10_o18_pcu_sym.45
_audit_creation_date              2020-01-03
_audit_creation_method            'Materials Studio'
_symmetry_space_group_name_H-M    'P1'
_symmetry_Int_Tables_number       1
_symmetry_cell_setting            triclinic
loop_
_symmetry_equiv_pos_as_xyz
  x,y,z
_cell_length_a                    32.7204
_cell_length_b                    32.4891
_cell_length_c                    35.5457
_cell_angle_alpha                 97.8219
_cell_angle_beta                  73.1115
_cell_angle_gamma                 98.3725
loop_
_atom_site_label
_atom_site_type_symbol
_atom_site_fract_x
_atom_site_fract_y
_atom_site_fract_z
_atom_site_U_iso_or_equiv
_atom_site_adp_type
_atom_site_occupancy
C1     C     0.05282   0.16013   0.25865   0.00000  Uiso   1.00
C2     C     0.20853   0.13657   0.45739   0.00000  Uiso   1.00
C3     C     0.22476   0.11299   0.47826   0.00000  Uiso   1.00
C4     C     0.28104   0.17338   0.24133   0.00000  Uiso   1.00
C5     C     0.21811   0.12208   0.01896   0.00000  Uiso   1.00
C6     C     0.19801   0.15825   0.03819   0.00000  Uiso   1.00
C7     C     0.22998   0.09518   0.04115   0.00000  Uiso   1.00
C8     C     0.22010   0.10309   0.08214   0.00000  Uiso   1.00
C9     C     0.18594   0.16346   0.07974   0.00000  Uiso   1.00
C10    C     0.32684   0.17457   0.23731   0.00000  Uiso   1.00
C11    C     0.00772   0.15773   0.26328   0.00000  Uiso   1.00
C12    C     0.12630   0.23837   0.41662   0.00000  Uiso   1.00
C13    C     0.18096   0.32220   0.23805   0.00000  Uiso   1.00
C14    C     0.15188   0.01210   0.26230   0.00000  Uiso   1.00
C15    C     0.15604   0.05612   0.25895   0.00000  Uiso   1.00
C16    C     0.17690   0.27767   0.24133   0.00000  Uiso   1.00
C17    C     0.18805   0.14553   0.14400   0.00000  Uiso   1.00
C18    C     0.14593   0.18802   0.35621   0.00000  Uiso   1.00
C19    C     0.14291   0.20124   0.39818   0.00000  Uiso   1.00
C20    C     0.19780   0.13686   0.10130   0.00000  Uiso   1.00
C21    C     0.12989   0.25366   0.45422   0.00000  Uiso   1.00
C22    C     0.16121   0.17858   0.41855   0.00000  Uiso   1.00
C23    C     0.16685   0.19409   0.45597   0.00000  Uiso   1.00
C24    C     0.15090   0.23252   0.47405   0.00000  Uiso   1.00
C25    C     0.18718   0.17190   0.47597   0.00000  Uiso   1.00
C26    C     0.18717   0.18597   0.01555   0.00000  Uiso   1.00
C27    C     0.17761   0.22744   0.03036   0.00000  Uiso   1.00
C28    C     0.15788   0.24981   0.01057   0.00000  Uiso   1.00
Cl29   Cl    0.25653   0.05076   0.01916   0.00000  Uiso   1.00
Cl30   Cl    0.30876   0.13568   0.30663   0.00000  Uiso   1.00
Cl31   Cl    0.19924   0.25572   0.06789   0.00000  Uiso   1.00
H32    H     0.20781   0.00285   0.21575   0.00000  Uiso   1.00
H33    H     0.12468   0.33222   0.28469   0.00000  Uiso   1.00
H34    H     0.16535   0.18679   0.09607   0.00000  Uiso   1.00
H35    H     0.22938   0.08262   0.09914   0.00000  Uiso   1.00
H36    H     0.24080   0.08635   0.46235   0.00000  Uiso   1.00
H37    H     0.11684   0.28269   0.46690   0.00000  Uiso   1.00
H38    H     0.11177   0.25639   0.40150   0.00000  Uiso   1.00
H39    H     0.17080   0.14871   0.40433   0.00000  Uiso   1.00
H40    H     0.21448   0.12689   0.42624   0.00000  Uiso   1.00
I41    I     0.14033   0.31079   0.03627   0.00000  Uiso   1.00
I42    I     0.03717   0.20349   0.18820   0.00000  Uiso   1.00
O43    O     0.16667   0.16667   0.25000   0.00000  Uiso   1.00
O44    O     0.15693   0.12393   0.16625   0.00000  Uiso   1.00
O45    O     0.12687   0.20646   0.33749   0.00000  Uiso   1.00
O46    O     0.21088   0.17493   0.15877   0.00000  Uiso   1.00
O47    O     0.17198   0.16135   0.33749   0.00000  Uiso   1.00
O48    O     0.17849   0.08101   0.27820   0.00000  Uiso   1.00
O49    O     0.14581   0.26136   0.26767   0.00000  Uiso   1.00
O50    O     0.07452   0.13251   0.23607   0.00000  Uiso   1.00
O51    O     0.26785   0.19179   0.21805   0.00000  Uiso   1.00
O52    O     0.06990   0.18960   0.27820   0.00000  Uiso   1.00
O53    O     0.25440   0.15277   0.26767   0.00000  Uiso   1.00
O54    O     0.13800   0.06903   0.23607   0.00000  Uiso   1.00
O55    O     0.20437   0.25527   0.21805   0.00000  Uiso   1.00
Zn56   Zn    0.19244   0.14090   0.28277   0.00000  Uiso   1.00
Zn57   Zn    0.13459   0.12378   0.22257   0.00000  Uiso   1.00
Zn58   Zn    0.21166   0.19664   0.21188   0.00000  Uiso   1.00
Zn59   Zn    0.12798   0.20535   0.28277   0.00000  Uiso   1.00
C60    C     0.38615   0.16013   0.25865   0.00000  Uiso   1.00
C61    C     0.54187   0.13657   0.45739   0.00000  Uiso   1.00
C62    C     0.55810   0.11299   0.47826   0.00000  Uiso   1.00
C63    C     0.61437   0.17338   0.24133   0.00000  Uiso   1.00
C64    C     0.55144   0.12208   0.01896   0.00000  Uiso   1.00
C65    C     0.53134   0.15825   0.03819   0.00000  Uiso   1.00
C66    C     0.56331   0.09518   0.04115   0.00000  Uiso   1.00
C67    C     0.55343   0.10309   0.08214   0.00000  Uiso   1.00
C68    C     0.51927   0.16346   0.07974   0.00000  Uiso   1.00
C69    C     0.66017   0.17457   0.23731   0.00000  Uiso   1.00
C70    C     0.34105   0.15773   0.26328   0.00000  Uiso   1.00
C71    C     0.45964   0.23837   0.41662   0.00000  Uiso   1.00
C72    C     0.51429   0.32220   0.23805   0.00000  Uiso   1.00
C73    C     0.48522   0.01210   0.26230   0.00000  Uiso   1.00
C74    C     0.48938   0.05612   0.25895   0.00000  Uiso   1.00
C75    C     0.51023   0.27767   0.24133   0.00000  Uiso   1.00
C76    C     0.52139   0.14553   0.14400   0.00000  Uiso   1.00
C77    C     0.47927   0.18802   0.35621   0.00000  Uiso   1.00
C78    C     0.47624   0.20124   0.39818   0.00000  Uiso   1.00
C79    C     0.53114   0.13686   0.10130   0.00000  Uiso   1.00
C80    C     0.46322   0.25366   0.45422   0.00000  Uiso   1.00
C81    C     0.49454   0.17858   0.41855   0.00000  Uiso   1.00
C82    C     0.50018   0.19409   0.45597   0.00000  Uiso   1.00
C83    C     0.48423   0.23252   0.47405   0.00000  Uiso   1.00
C84    C     0.52051   0.17190   0.47597   0.00000  Uiso   1.00
C85    C     0.52050   0.18597   0.01555   0.00000  Uiso   1.00
C86    C     0.51094   0.22744   0.03036   0.00000  Uiso   1.00
C87    C     0.49122   0.24981   0.01057   0.00000  Uiso   1.00
Cl88   Cl    0.58987   0.05076   0.01916   0.00000  Uiso   1.00
Cl89   Cl    0.64209   0.13568   0.30663   0.00000  Uiso   1.00
Cl90   Cl    0.53258   0.25572   0.06789   0.00000  Uiso   1.00
H91    H     0.54114   0.00285   0.21575   0.00000  Uiso   1.00
H92    H     0.45802   0.33222   0.28469   0.00000  Uiso   1.00
H93    H     0.49868   0.18679   0.09607   0.00000  Uiso   1.00
H94    H     0.56272   0.08262   0.09914   0.00000  Uiso   1.00
H95    H     0.57413   0.08635   0.46235   0.00000  Uiso   1.00
H96    H     0.45017   0.28269   0.46690   0.00000  Uiso   1.00
H97    H     0.44510   0.25639   0.40150   0.00000  Uiso   1.00
H98    H     0.50413   0.14871   0.40433   0.00000  Uiso   1.00
H99    H     0.54781   0.12689   0.42624   0.00000  Uiso   1.00
I100   I     0.47366   0.31079   0.03627   0.00000  Uiso   1.00
I101   I     0.37050   0.20349   0.18820   0.00000  Uiso   1.00
O102   O     0.50000   0.16667   0.25000   0.00000  Uiso   1.00
O103   O     0.49027   0.12393   0.16625   0.00000  Uiso   1.00
O104   O     0.46020   0.20646   0.33749   0.00000  Uiso   1.00
O105   O     0.54421   0.17493   0.15877   0.00000  Uiso   1.00
O106   O     0.50532   0.16135   0.33749   0.00000  Uiso   1.00
O107   O     0.51182   0.08101   0.27820   0.00000  Uiso   1.00
O108   O     0.47914   0.26136   0.26767   0.00000  Uiso   1.00
O109   O     0.40785   0.13251   0.23607   0.00000  Uiso   1.00
O110   O     0.60119   0.19179   0.21805   0.00000  Uiso   1.00
O111   O     0.40323   0.18960   0.27820   0.00000  Uiso   1.00
O112   O     0.58773   0.15277   0.26767   0.00000  Uiso   1.00
O113   O     0.47133   0.06903   0.23607   0.00000  Uiso   1.00
O114   O     0.53771   0.25527   0.21805   0.00000  Uiso   1.00
Zn115  Zn    0.52577   0.14090   0.28277   0.00000  Uiso   1.00
Zn116  Zn    0.46792   0.12378   0.22257   0.00000  Uiso   1.00
Zn117  Zn    0.54500   0.19664   0.21188   0.00000  Uiso   1.00
Zn118  Zn    0.46131   0.20535   0.28277   0.00000  Uiso   1.00
C119   C     0.71948   0.16013   0.25865   0.00000  Uiso   1.00
C120   C     0.87520   0.13657   0.45739   0.00000  Uiso   1.00
C121   C     0.89143   0.11299   0.47826   0.00000  Uiso   1.00
C122   C     0.94770   0.17338   0.24133   0.00000  Uiso   1.00
C123   C     0.88478   0.12208   0.01896   0.00000  Uiso   1.00
C124   C     0.86467   0.15825   0.03819   0.00000  Uiso   1.00
C125   C     0.89664   0.09518   0.04115   0.00000  Uiso   1.00
C126   C     0.88676   0.10309   0.08214   0.00000  Uiso   1.00
C127   C     0.85260   0.16346   0.07974   0.00000  Uiso   1.00
C128   C     0.99351   0.17457   0.23731   0.00000  Uiso   1.00
C129   C     0.67438   0.15773   0.26328   0.00000  Uiso   1.00
C130   C     0.79297   0.23837   0.41662   0.00000  Uiso   1.00
C131   C     0.84763   0.32220   0.23805   0.00000  Uiso   1.00
C132   C     0.81855   0.01210   0.26230   0.00000  Uiso   1.00
C133   C     0.82271   0.05612   0.25895   0.00000  Uiso   1.00
C134   C     0.84357   0.27767   0.24133   0.00000  Uiso   1.00
C135   C     0.85472   0.14553   0.14400   0.00000  Uiso   1.00
C136   C     0.81260   0.18802   0.35621   0.00000  Uiso   1.00
C137   C     0.80957   0.20124   0.39818   0.00000  Uiso   1.00
C138   C     0.86447   0.13686   0.10130   0.00000  Uiso   1.00
C139   C     0.79655   0.25366   0.45422   0.00000  Uiso   1.00
C140   C     0.82788   0.17858   0.41855   0.00000  Uiso   1.00
C141   C     0.83352   0.19409   0.45597   0.00000  Uiso   1.00
C142   C     0.81757   0.23252   0.47405   0.00000  Uiso   1.00
C143   C     0.85385   0.17190   0.47597   0.00000  Uiso   1.00
C144   C     0.85383   0.18597   0.01555   0.00000  Uiso   1.00
C145   C     0.84428   0.22744   0.03036   0.00000  Uiso   1.00
C146   C     0.82455   0.24981   0.01057   0.00000  Uiso   1.00
Cl147  Cl    0.92320   0.05076   0.01916   0.00000  Uiso   1.00
Cl148  Cl    0.97543   0.13568   0.30663   0.00000  Uiso   1.00
Cl149  Cl    0.86591   0.25572   0.06789   0.00000  Uiso   1.00
H150   H     0.87447   0.00285   0.21575   0.00000  Uiso   1.00
H151   H     0.79135   0.33222   0.28469   0.00000  Uiso   1.00
H152   H     0.83201   0.18679   0.09607   0.00000  Uiso   1.00
H153   H     0.89605   0.08262   0.09914   0.00000  Uiso   1.00
H154   H     0.90747   0.08635   0.46235   0.00000  Uiso   1.00
H155   H     0.78350   0.28269   0.46690   0.00000  Uiso   1.00
H156   H     0.77844   0.25639   0.40150   0.00000  Uiso   1.00
H157   H     0.83746   0.14871   0.40433   0.00000  Uiso   1.00
H158   H     0.88114   0.12689   0.42624   0.00000  Uiso   1.00
I159   I     0.80700   0.31079   0.03627   0.00000  Uiso   1.00
I160   I     0.70383   0.20349   0.18820   0.00000  Uiso   1.00
O161   O     0.83333   0.16667   0.25000   0.00000  Uiso   1.00
O162   O     0.82360   0.12393   0.16625   0.00000  Uiso   1.00
O163   O     0.79354   0.20646   0.33749   0.00000  Uiso   1.00
O164   O     0.87755   0.17493   0.15877   0.00000  Uiso   1.00
O165   O     0.83865   0.16135   0.33749   0.00000  Uiso   1.00
O166   O     0.84515   0.08101   0.27820   0.00000  Uiso   1.00
O167   O     0.81247   0.26136   0.26767   0.00000  Uiso   1.00
O168   O     0.74119   0.13251   0.23607   0.00000  Uiso   1.00
O169   O     0.93452   0.19179   0.21805   0.00000  Uiso   1.00
O170   O     0.73656   0.18960   0.27820   0.00000  Uiso   1.00
O171   O     0.92106   0.15277   0.26767   0.00000  Uiso   1.00
O172   O     0.80467   0.06903   0.23607   0.00000  Uiso   1.00
O173   O     0.87104   0.25527   0.21805   0.00000  Uiso   1.00
Zn174  Zn    0.85910   0.14090   0.28277   0.00000  Uiso   1.00
Zn175  Zn    0.80125   0.12378   0.22257   0.00000  Uiso   1.00
Zn176  Zn    0.87833   0.19664   0.21188   0.00000  Uiso   1.00
Zn177  Zn    0.79465   0.20535   0.28277   0.00000  Uiso   1.00
C178   C     0.05282   0.49346   0.25865   0.00000  Uiso   1.00
C179   C     0.20853   0.46990   0.45739   0.00000  Uiso   1.00
C180   C     0.22476   0.44632   0.47826   0.00000  Uiso   1.00
C181   C     0.28104   0.50672   0.24133   0.00000  Uiso   1.00
C182   C     0.21811   0.45542   0.01896   0.00000  Uiso   1.00
C183   C     0.19801   0.49159   0.03819   0.00000  Uiso   1.00
C184   C     0.22998   0.42851   0.04115   0.00000  Uiso   1.00
C185   C     0.22010   0.43642   0.08214   0.00000  Uiso   1.00
C186   C     0.18594   0.49679   0.07974   0.00000  Uiso   1.00
C187   C     0.32684   0.50790   0.23731   0.00000  Uiso   1.00
C188   C     0.00772   0.49106   0.26328   0.00000  Uiso   1.00
C189   C     0.12630   0.57171   0.41662   0.00000  Uiso   1.00
C190   C     0.18096   0.65554   0.23805   0.00000  Uiso   1.00
C191   C     0.15188   0.34543   0.26230   0.00000  Uiso   1.00
C192   C     0.15604   0.38945   0.25895   0.00000  Uiso   1.00
C193   C     0.17690   0.61101   0.24133   0.00000  Uiso   1.00
C194   C     0.18805   0.47886   0.14400   0.00000  Uiso   1.00
C195   C     0.14593   0.52135   0.35621   0.00000  Uiso   1.00
C196   C     0.14291   0.53457   0.39818   0.00000  Uiso   1.00
C197   C     0.19780   0.47020   0.10130   0.00000  Uiso   1.00
C198   C     0.12989   0.58699   0.45422   0.00000  Uiso   1.00
C199   C     0.16121   0.51191   0.41855   0.00000  Uiso   1.00
C200   C     0.16685   0.52742   0.45597   0.00000  Uiso   1.00
C201   C     0.15090   0.56585   0.47405   0.00000  Uiso   1.00
C202   C     0.18718   0.50523   0.47597   0.00000  Uiso   1.00
C203   C     0.18717   0.51930   0.01555   0.00000  Uiso   1.00
C204   C     0.17761   0.56077   0.03036   0.00000  Uiso   1.00
C205   C     0.15788   0.58315   0.01057   0.00000  Uiso   1.00
Cl206  Cl    0.25653   0.38410   0.01916   0.00000  Uiso   1.00
Cl207  Cl    0.30876   0.46902   0.30663   0.00000  Uiso   1.00
Cl208  Cl    0.19924   0.58906   0.06789   0.00000  Uiso   1.00
H209   H     0.20781   0.33618   0.21575   0.00000  Uiso   1.00
H210   H     0.12468   0.66556   0.28469   0.00000  Uiso   1.00
H211   H     0.16535   0.52012   0.09607   0.00000  Uiso   1.00
H212   H     0.22938   0.41595   0.09914   0.00000  Uiso   1.00
H213   H     0.24080   0.41968   0.46235   0.00000  Uiso   1.00
H214   H     0.11684   0.61602   0.46690   0.00000  Uiso   1.00
H215   H     0.11177   0.58973   0.40150   0.00000  Uiso   1.00
H216   H     0.17080   0.48205   0.40433   0.00000  Uiso   1.00
H217   H     0.21448   0.46023   0.42624   0.00000  Uiso   1.00
I218   I     0.14033   0.64412   0.03627   0.00000  Uiso   1.00
I219   I     0.03717   0.53682   0.18820   0.00000  Uiso   1.00
O220   O     0.16667   0.50000   0.25000   0.00000  Uiso   1.00
O221   O     0.15693   0.45726   0.16625   0.00000  Uiso   1.00
O222   O     0.12687   0.53979   0.33749   0.00000  Uiso   1.00
O223   O     0.21088   0.50826   0.15877   0.00000  Uiso   1.00
O224   O     0.17198   0.49468   0.33749   0.00000  Uiso   1.00
O225   O     0.17849   0.41434   0.27820   0.00000  Uiso   1.00
O226   O     0.14581   0.59469   0.26767   0.00000  Uiso   1.00
O227   O     0.07452   0.46584   0.23607   0.00000  Uiso   1.00
O228   O     0.26785   0.52512   0.21805   0.00000  Uiso   1.00
O229   O     0.06990   0.52293   0.27820   0.00000  Uiso   1.00
O230   O     0.25440   0.48610   0.26767   0.00000  Uiso   1.00
O231   O     0.13800   0.40236   0.23607   0.00000  Uiso   1.00
O232   O     0.20437   0.58860   0.21805   0.00000  Uiso   1.00
Zn233  Zn    0.19244   0.47423   0.28277   0.00000  Uiso   1.00
Zn234  Zn    0.13459   0.45711   0.22257   0.00000  Uiso   1.00
Zn235  Zn    0.21166   0.52997   0.21188   0.00000  Uiso   1.00
Zn236  Zn    0.12798   0.53868   0.28277   0.00000  Uiso   1.00
C237   C     0.38615   0.49346   0.25865   0.00000  Uiso   1.00
C238   C     0.54187   0.46990   0.45739   0.00000  Uiso   1.00
C239   C     0.55810   0.44632   0.47826   0.00000  Uiso   1.00
C240   C     0.61437   0.50672   0.24133   0.00000  Uiso   1.00
C241   C     0.55144   0.45542   0.01896   0.00000  Uiso   1.00
C242   C     0.53134   0.49159   0.03819   0.00000  Uiso   1.00
C243   C     0.56331   0.42851   0.04115   0.00000  Uiso   1.00
C244   C     0.55343   0.43642   0.08214   0.00000  Uiso   1.00
C245   C     0.51927   0.49679   0.07974   0.00000  Uiso   1.00
C246   C     0.66017   0.50790   0.23731   0.00000  Uiso   1.00
C247   C     0.34105   0.49106   0.26328   0.00000  Uiso   1.00
C248   C     0.45964   0.57171   0.41662   0.00000  Uiso   1.00
C249   C     0.51429   0.65554   0.23805   0.00000  Uiso   1.00
C250   C     0.48522   0.34543   0.26230   0.00000  Uiso   1.00
C251   C     0.48938   0.38945   0.25895   0.00000  Uiso   1.00
C252   C     0.51023   0.61101   0.24133   0.00000  Uiso   1.00
C253   C     0.52139   0.47886   0.14400   0.00000  Uiso   1.00
C254   C     0.47927   0.52135   0.35621   0.00000  Uiso   1.00
C255   C     0.47624   0.53457   0.39818   0.00000  Uiso   1.00
C256   C     0.53114   0.47020   0.10130   0.00000  Uiso   1.00
C257   C     0.46322   0.58699   0.45422   0.00000  Uiso   1.00
C258   C     0.49454   0.51191   0.41855   0.00000  Uiso   1.00
C259   C     0.50018   0.52742   0.45597   0.00000  Uiso   1.00
C260   C     0.48423   0.56585   0.47405   0.00000  Uiso   1.00
C261   C     0.52051   0.50523   0.47597   0.00000  Uiso   1.00
C262   C     0.52050   0.51930   0.01555   0.00000  Uiso   1.00
C263   C     0.51094   0.56077   0.03036   0.00000  Uiso   1.00
C264   C     0.49122   0.58315   0.01057   0.00000  Uiso   1.00
Cl265  Cl    0.58987   0.38410   0.01916   0.00000  Uiso   1.00
Cl266  Cl    0.64209   0.46902   0.30663   0.00000  Uiso   1.00
Cl267  Cl    0.53258   0.58906   0.06789   0.00000  Uiso   1.00
H268   H     0.54114   0.33618   0.21575   0.00000  Uiso   1.00
H269   H     0.45802   0.66556   0.28469   0.00000  Uiso   1.00
H270   H     0.49868   0.52012   0.09607   0.00000  Uiso   1.00
H271   H     0.56272   0.41595   0.09914   0.00000  Uiso   1.00
H272   H     0.57413   0.41968   0.46235   0.00000  Uiso   1.00
H273   H     0.45017   0.61602   0.46690   0.00000  Uiso   1.00
H274   H     0.44510   0.58973   0.40150   0.00000  Uiso   1.00
H275   H     0.50413   0.48205   0.40433   0.00000  Uiso   1.00
H276   H     0.54781   0.46023   0.42624   0.00000  Uiso   1.00
I277   I     0.47366   0.64412   0.03627   0.00000  Uiso   1.00
I278   I     0.37050   0.53682   0.18820   0.00000  Uiso   1.00
O279   O     0.50000   0.50000   0.25000   0.00000  Uiso   1.00
O280   O     0.49027   0.45726   0.16625   0.00000  Uiso   1.00
O281   O     0.46020   0.53979   0.33749   0.00000  Uiso   1.00
O282   O     0.54421   0.50826   0.15877   0.00000  Uiso   1.00
O283   O     0.50532   0.49468   0.33749   0.00000  Uiso   1.00
O284   O     0.51182   0.41434   0.27820   0.00000  Uiso   1.00
O285   O     0.47914   0.59469   0.26767   0.00000  Uiso   1.00
O286   O     0.40785   0.46584   0.23607   0.00000  Uiso   1.00
O287   O     0.60119   0.52512   0.21805   0.00000  Uiso   1.00
O288   O     0.40323   0.52293   0.27820   0.00000  Uiso   1.00
O289   O     0.58773   0.48610   0.26767   0.00000  Uiso   1.00
O290   O     0.47133   0.40236   0.23607   0.00000  Uiso   1.00
O291   O     0.53771   0.58860   0.21805   0.00000  Uiso   1.00
Zn292  Zn    0.52577   0.47423   0.28277   0.00000  Uiso   1.00
Zn293  Zn    0.46792   0.45711   0.22257   0.00000  Uiso   1.00
Zn294  Zn    0.54500   0.52997   0.21188   0.00000  Uiso   1.00
Zn295  Zn    0.46131   0.53868   0.28277   0.00000  Uiso   1.00
C296   C     0.71948   0.49346   0.25865   0.00000  Uiso   1.00
C297   C     0.87520   0.46990   0.45739   0.00000  Uiso   1.00
C298   C     0.89143   0.44632   0.47826   0.00000  Uiso   1.00
C299   C     0.94770   0.50672   0.24133   0.00000  Uiso   1.00
C300   C     0.88478   0.45542   0.01896   0.00000  Uiso   1.00
C301   C     0.86467   0.49159   0.03819   0.00000  Uiso   1.00
C302   C     0.89664   0.42851   0.04115   0.00000  Uiso   1.00
C303   C     0.88676   0.43642   0.08214   0.00000  Uiso   1.00
C304   C     0.85260   0.49679   0.07974   0.00000  Uiso   1.00
C305   C     0.99351   0.50790   0.23731   0.00000  Uiso   1.00
C306   C     0.67438   0.49106   0.26328   0.00000  Uiso   1.00
C307   C     0.79297   0.57171   0.41662   0.00000  Uiso   1.00
C308   C     0.84763   0.65554   0.23805   0.00000  Uiso   1.00
C309   C     0.81855   0.34543   0.26230   0.00000  Uiso   1.00
C310   C     0.82271   0.38945   0.25895   0.00000  Uiso   1.00
C311   C     0.84357   0.61101   0.24133   0.00000  Uiso   1.00
C312   C     0.85472   0.47886   0.14400   0.00000  Uiso   1.00
C313   C     0.81260   0.52135   0.35621   0.00000  Uiso   1.00
C314   C     0.80957   0.53457   0.39818   0.00000  Uiso   1.00
C315   C     0.86447   0.47020   0.10130   0.00000  Uiso   1.00
C316   C     0.79655   0.58699   0.45422   0.00000  Uiso   1.00
C317   C     0.82788   0.51191   0.41855   0.00000  Uiso   1.00
C318   C     0.83352   0.52742   0.45597   0.00000  Uiso   1.00
C319   C     0.81757   0.56585   0.47405   0.00000  Uiso   1.00
C320   C     0.85385   0.50523   0.47597   0.00000  Uiso   1.00
C321   C     0.85383   0.51930   0.01555   0.00000  Uiso   1.00
C322   C     0.84428   0.56077   0.03036   0.00000  Uiso   1.00
C323   C     0.82455   0.58315   0.01057   0.00000  Uiso   1.00
Cl324  Cl    0.92320   0.38410   0.01916   0.00000  Uiso   1.00
Cl325  Cl    0.97543   0.46902   0.30663   0.00000  Uiso   1.00
Cl326  Cl    0.86591   0.58906   0.06789   0.00000  Uiso   1.00
H327   H     0.87447   0.33618   0.21575   0.00000  Uiso   1.00
H328   H     0.79135   0.66556   0.28469   0.00000  Uiso   1.00
H329   H     0.83201   0.52012   0.09607   0.00000  Uiso   1.00
H330   H     0.89605   0.41595   0.09914   0.00000  Uiso   1.00
H331   H     0.90747   0.41968   0.46235   0.00000  Uiso   1.00
H332   H     0.78350   0.61602   0.46690   0.00000  Uiso   1.00
H333   H     0.77844   0.58973   0.40150   0.00000  Uiso   1.00
H334   H     0.83746   0.48205   0.40433   0.00000  Uiso   1.00
H335   H     0.88114   0.46023   0.42624   0.00000  Uiso   1.00
I336   I     0.80700   0.64412   0.03627   0.00000  Uiso   1.00
I337   I     0.70383   0.53682   0.18820   0.00000  Uiso   1.00
O338   O     0.83333   0.50000   0.25000   0.00000  Uiso   1.00
O339   O     0.82360   0.45726   0.16625   0.00000  Uiso   1.00
O340   O     0.79354   0.53979   0.33749   0.00000  Uiso   1.00
O341   O     0.87755   0.50826   0.15877   0.00000  Uiso   1.00
O342   O     0.83865   0.49468   0.33749   0.00000  Uiso   1.00
O343   O     0.84515   0.41434   0.27820   0.00000  Uiso   1.00
O344   O     0.81247   0.59469   0.26767   0.00000  Uiso   1.00
O345   O     0.74119   0.46584   0.23607   0.00000  Uiso   1.00
O346   O     0.93452   0.52512   0.21805   0.00000  Uiso   1.00
O347   O     0.73656   0.52293   0.27820   0.00000  Uiso   1.00
O348   O     0.92106   0.48610   0.26767   0.00000  Uiso   1.00
O349   O     0.80467   0.40236   0.23607   0.00000  Uiso   1.00
O350   O     0.87104   0.58860   0.21805   0.00000  Uiso   1.00
Zn351  Zn    0.85910   0.47423   0.28277   0.00000  Uiso   1.00
Zn352  Zn    0.80125   0.45711   0.22257   0.00000  Uiso   1.00
Zn353  Zn    0.87833   0.52997   0.21188   0.00000  Uiso   1.00
Zn354  Zn    0.79465   0.53868   0.28277   0.00000  Uiso   1.00
C355   C     0.05282   0.82680   0.25865   0.00000  Uiso   1.00
C356   C     0.20853   0.80324   0.45739   0.00000  Uiso   1.00
C357   C     0.22476   0.77966   0.47826   0.00000  Uiso   1.00
C358   C     0.28104   0.84005   0.24133   0.00000  Uiso   1.00
C359   C     0.21811   0.78875   0.01896   0.00000  Uiso   1.00
C360   C     0.19801   0.82492   0.03819   0.00000  Uiso   1.00
C361   C     0.22998   0.76185   0.04115   0.00000  Uiso   1.00
C362   C     0.22010   0.76976   0.08214   0.00000  Uiso   1.00
C363   C     0.18594   0.83013   0.07974   0.00000  Uiso   1.00
C364   C     0.32684   0.84123   0.23731   0.00000  Uiso   1.00
C365   C     0.00772   0.82440   0.26328   0.00000  Uiso   1.00
C366   C     0.12630   0.90504   0.41662   0.00000  Uiso   1.00
C367   C     0.18096   0.98887   0.23805   0.00000  Uiso   1.00
C368   C     0.15188   0.67877   0.26230   0.00000  Uiso   1.00
C369   C     0.15604   0.72279   0.25895   0.00000  Uiso   1.00
C370   C     0.17690   0.94434   0.24133   0.00000  Uiso   1.00
C371   C     0.18805   0.81220   0.14400   0.00000  Uiso   1.00
C372   C     0.14593   0.85469   0.35621   0.00000  Uiso   1.00
C373   C     0.14291   0.86790   0.39818   0.00000  Uiso   1.00
C374   C     0.19780   0.80353   0.10130   0.00000  Uiso   1.00
C375   C     0.12989   0.92033   0.45422   0.00000  Uiso   1.00
C376   C     0.16121   0.84524   0.41855   0.00000  Uiso   1.00
C377   C     0.16685   0.86076   0.45597   0.00000  Uiso   1.00
C378   C     0.15090   0.89919   0.47405   0.00000  Uiso   1.00
C379   C     0.18718   0.83857   0.47597   0.00000  Uiso   1.00
C380   C     0.18717   0.85264   0.01555   0.00000  Uiso   1.00
C381   C     0.17761   0.89411   0.03036   0.00000  Uiso   1.00
C382   C     0.15788   0.91648   0.01057   0.00000  Uiso   1.00
Cl383  Cl    0.25653   0.71743   0.01916   0.00000  Uiso   1.00
Cl384  Cl    0.30876   0.80235   0.30663   0.00000  Uiso   1.00
Cl385  Cl    0.19924   0.92239   0.06789   0.00000  Uiso   1.00
H386   H     0.20781   0.66952   0.21575   0.00000  Uiso   1.00
H387   H     0.12468   0.99889   0.28469   0.00000  Uiso   1.00
H388   H     0.16535   0.85345   0.09607   0.00000  Uiso   1.00
H389   H     0.22938   0.74929   0.09914   0.00000  Uiso   1.00
H390   H     0.24080   0.75302   0.46235   0.00000  Uiso   1.00
H391   H     0.11684   0.94936   0.46690   0.00000  Uiso   1.00
H392   H     0.11177   0.92306   0.40150   0.00000  Uiso   1.00
H393   H     0.17080   0.81538   0.40433   0.00000  Uiso   1.00
H394   H     0.21448   0.79356   0.42624   0.00000  Uiso   1.00
I395   I     0.14033   0.97745   0.03627   0.00000  Uiso   1.00
I396   I     0.03717   0.87015   0.18820   0.00000  Uiso   1.00
O397   O     0.16667   0.83333   0.25000   0.00000  Uiso   1.00
O398   O     0.15693   0.79060   0.16625   0.00000  Uiso   1.00
O399   O     0.12687   0.87313   0.33749   0.00000  Uiso   1.00
O400   O     0.21088   0.84159   0.15877   0.00000  Uiso   1.00
O401   O     0.17198   0.82802   0.33749   0.00000  Uiso   1.00
O402   O     0.17849   0.74768   0.27820   0.00000  Uiso   1.00
O403   O     0.14581   0.92803   0.26767   0.00000  Uiso   1.00
O404   O     0.07452   0.79917   0.23607   0.00000  Uiso   1.00
O405   O     0.26785   0.85845   0.21805   0.00000  Uiso   1.00
O406   O     0.06990   0.85627   0.27820   0.00000  Uiso   1.00
O407   O     0.25440   0.81944   0.26767   0.00000  Uiso   1.00
O408   O     0.13800   0.73570   0.23607   0.00000  Uiso   1.00
O409   O     0.20437   0.92193   0.21805   0.00000  Uiso   1.00
Zn410  Zn    0.19244   0.80756   0.28277   0.00000  Uiso   1.00
Zn411  Zn    0.13459   0.79044   0.22257   0.00000  Uiso   1.00
Zn412  Zn    0.21166   0.86331   0.21188   0.00000  Uiso   1.00
Zn413  Zn    0.12798   0.87202   0.28277   0.00000  Uiso   1.00
C414   C     0.38615   0.82680   0.25865   0.00000  Uiso   1.00
C415   C     0.54187   0.80324   0.45739   0.00000  Uiso   1.00
C416   C     0.55810   0.77966   0.47826   0.00000  Uiso   1.00
C417   C     0.61437   0.84005   0.24133   0.00000  Uiso   1.00
C418   C     0.55144   0.78875   0.01896   0.00000  Uiso   1.00
C419   C     0.53134   0.82492   0.03819   0.00000  Uiso   1.00
C420   C     0.56331   0.76185   0.04115   0.00000  Uiso   1.00
C421   C     0.55343   0.76976   0.08214   0.00000  Uiso   1.00
C422   C     0.51927   0.83013   0.07974   0.00000  Uiso   1.00
C423   C     0.66017   0.84123   0.23731   0.00000  Uiso   1.00
C424   C     0.34105   0.82440   0.26328   0.00000  Uiso   1.00
C425   C     0.45964   0.90504   0.41662   0.00000  Uiso   1.00
C426   C     0.51429   0.98887   0.23805   0.00000  Uiso   1.00
C427   C     0.48522   0.67877   0.26230   0.00000  Uiso   1.00
C428   C     0.48938   0.72279   0.25895   0.00000  Uiso   1.00
C429   C     0.51023   0.94434   0.24133   0.00000  Uiso   1.00
C430   C     0.52139   0.81220   0.14400   0.00000  Uiso   1.00
C431   C     0.47927   0.85469   0.35621   0.00000  Uiso   1.00
C432   C     0.47624   0.86790   0.39818   0.00000  Uiso   1.00
C433   C     0.53114   0.80353   0.10130   0.00000  Uiso   1.00
C434   C     0.46322   0.92033   0.45422   0.00000  Uiso   1.00
C435   C     0.49454   0.84524   0.41855   0.00000  Uiso   1.00
C436   C     0.50018   0.86076   0.45597   0.00000  Uiso   1.00
C437   C     0.48423   0.89919   0.47405   0.00000  Uiso   1.00
C438   C     0.52051   0.83857   0.47597   0.00000  Uiso   1.00
C439   C     0.52050   0.85264   0.01555   0.00000  Uiso   1.00
C440   C     0.51094   0.89411   0.03036   0.00000  Uiso   1.00
C441   C     0.49122   0.91648   0.01057   0.00000  Uiso   1.00
Cl442  Cl    0.58987   0.71743   0.01916   0.00000  Uiso   1.00
Cl443  Cl    0.64209   0.80235   0.30663   0.00000  Uiso   1.00
Cl444  Cl    0.53258   0.92239   0.06789   0.00000  Uiso   1.00
H445   H     0.54114   0.66952   0.21575   0.00000  Uiso   1.00
H446   H     0.45802   0.99889   0.28469   0.00000  Uiso   1.00
H447   H     0.49868   0.85345   0.09607   0.00000  Uiso   1.00
H448   H     0.56272   0.74929   0.09914   0.00000  Uiso   1.00
H449   H     0.57413   0.75302   0.46235   0.00000  Uiso   1.00
H450   H     0.45017   0.94936   0.46690   0.00000  Uiso   1.00
H451   H     0.44510   0.92306   0.40150   0.00000  Uiso   1.00
H452   H     0.50413   0.81538   0.40433   0.00000  Uiso   1.00
H453   H     0.54781   0.79356   0.42624   0.00000  Uiso   1.00
I454   I     0.47366   0.97745   0.03627   0.00000  Uiso   1.00
I455   I     0.37050   0.87015   0.18820   0.00000  Uiso   1.00
O456   O     0.50000   0.83333   0.25000   0.00000  Uiso   1.00
O457   O     0.49027   0.79060   0.16625   0.00000  Uiso   1.00
O458   O     0.46020   0.87313   0.33749   0.00000  Uiso   1.00
O459   O     0.54421   0.84159   0.15877   0.00000  Uiso   1.00
O460   O     0.50532   0.82802   0.33749   0.00000  Uiso   1.00
O461   O     0.51182   0.74768   0.27820   0.00000  Uiso   1.00
O462   O     0.47914   0.92803   0.26767   0.00000  Uiso   1.00
O463   O     0.40785   0.79917   0.23607   0.00000  Uiso   1.00
O464   O     0.60119   0.85845   0.21805   0.00000  Uiso   1.00
O465   O     0.40323   0.85627   0.27820   0.00000  Uiso   1.00
O466   O     0.58773   0.81944   0.26767   0.00000  Uiso   1.00
O467   O     0.47133   0.73570   0.23607   0.00000  Uiso   1.00
O468   O     0.53771   0.92193   0.21805   0.00000  Uiso   1.00
Zn469  Zn    0.52577   0.80756   0.28277   0.00000  Uiso   1.00
Zn470  Zn    0.46792   0.79044   0.22257   0.00000  Uiso   1.00
Zn471  Zn    0.54500   0.86331   0.21188   0.00000  Uiso   1.00
Zn472  Zn    0.46131   0.87202   0.28277   0.00000  Uiso   1.00
C473   C     0.71948   0.82680   0.25865   0.00000  Uiso   1.00
C474   C     0.87520   0.80324   0.45739   0.00000  Uiso   1.00
C475   C     0.89143   0.77966   0.47826   0.00000  Uiso   1.00
C476   C     0.94770   0.84005   0.24133   0.00000  Uiso   1.00
C477   C     0.88478   0.78875   0.01896   0.00000  Uiso   1.00
C478   C     0.86467   0.82492   0.03819   0.00000  Uiso   1.00
C479   C     0.89664   0.76185   0.04115   0.00000  Uiso   1.00
C480   C     0.88676   0.76976   0.08214   0.00000  Uiso   1.00
C481   C     0.85260   0.83013   0.07974   0.00000  Uiso   1.00
C482   C     0.99351   0.84123   0.23731   0.00000  Uiso   1.00
C483   C     0.67438   0.82440   0.26328   0.00000  Uiso   1.00
C484   C     0.79297   0.90504   0.41662   0.00000  Uiso   1.00
C485   C     0.84763   0.98887   0.23805   0.00000  Uiso   1.00
C486   C     0.81855   0.67877   0.26230   0.00000  Uiso   1.00
C487   C     0.82271   0.72279   0.25895   0.00000  Uiso   1.00
C488   C     0.84357   0.94434   0.24133   0.00000  Uiso   1.00
C489   C     0.85472   0.81220   0.14400   0.00000  Uiso   1.00
C490   C     0.81260   0.85469   0.35621   0.00000  Uiso   1.00
C491   C     0.80957   0.86790   0.39818   0.00000  Uiso   1.00
C492   C     0.86447   0.80353   0.10130   0.00000  Uiso   1.00
C493   C     0.79655   0.92033   0.45422   0.00000  Uiso   1.00
C494   C     0.82788   0.84524   0.41855   0.00000  Uiso   1.00
C495   C     0.83352   0.86076   0.45597   0.00000  Uiso   1.00
C496   C     0.81757   0.89919   0.47405   0.00000  Uiso   1.00
C497   C     0.85385   0.83857   0.47597   0.00000  Uiso   1.00
C498   C     0.85383   0.85264   0.01555   0.00000  Uiso   1.00
C499   C     0.84428   0.89411   0.03036   0.00000  Uiso   1.00
C500   C     0.82455   0.91648   0.01057   0.00000  Uiso   1.00
Cl501  Cl    0.92320   0.71743   0.01916   0.00000  Uiso   1.00
Cl502  Cl    0.97543   0.80235   0.30663   0.00000  Uiso   1.00
Cl503  Cl    0.86591   0.92239   0.06789   0.00000  Uiso   1.00
H504   H     0.87447   0.66952   0.21575   0.00000  Uiso   1.00
H505   H     0.79135   0.99889   0.28469   0.00000  Uiso   1.00
H506   H     0.83201   0.85345   0.09607   0.00000  Uiso   1.00
H507   H     0.89605   0.74929   0.09914   0.00000  Uiso   1.00
H508   H     0.90747   0.75302   0.46235   0.00000  Uiso   1.00
H509   H     0.78350   0.94936   0.46690   0.00000  Uiso   1.00
H510   H     0.77844   0.92306   0.40150   0.00000  Uiso   1.00
H511   H     0.83746   0.81538   0.40433   0.00000  Uiso   1.00
H512   H     0.88114   0.79356   0.42624   0.00000  Uiso   1.00
I513   I     0.80700   0.97745   0.03627   0.00000  Uiso   1.00
I514   I     0.70383   0.87015   0.18820   0.00000  Uiso   1.00
O515   O     0.83333   0.83333   0.25000   0.00000  Uiso   1.00
O516   O     0.82360   0.79060   0.16625   0.00000  Uiso   1.00
O517   O     0.79354   0.87313   0.33749   0.00000  Uiso   1.00
O518   O     0.87755   0.84159   0.15877   0.00000  Uiso   1.00
O519   O     0.83865   0.82802   0.33749   0.00000  Uiso   1.00
O520   O     0.84515   0.74768   0.27820   0.00000  Uiso   1.00
O521   O     0.81247   0.92803   0.26767   0.00000  Uiso   1.00
O522   O     0.74119   0.79917   0.23607   0.00000  Uiso   1.00
O523   O     0.93452   0.85845   0.21805   0.00000  Uiso   1.00
O524   O     0.73656   0.85627   0.27820   0.00000  Uiso   1.00
O525   O     0.92106   0.81944   0.26767   0.00000  Uiso   1.00
O526   O     0.80467   0.73570   0.23607   0.00000  Uiso   1.00
O527   O     0.87104   0.92193   0.21805   0.00000  Uiso   1.00
Zn528  Zn    0.85910   0.80756   0.28277   0.00000  Uiso   1.00
Zn529  Zn    0.80125   0.79044   0.22257   0.00000  Uiso   1.00
Zn530  Zn    0.87833   0.86331   0.21188   0.00000  Uiso   1.00
Zn531  Zn    0.79465   0.87202   0.28277   0.00000  Uiso   1.00
C532   C     0.05282   0.16013   0.75865   0.00000  Uiso   1.00
C533   C     0.20853   0.13657   0.95739   0.00000  Uiso   1.00
C534   C     0.22476   0.11299   0.97826   0.00000  Uiso   1.00
C535   C     0.28104   0.17338   0.74133   0.00000  Uiso   1.00
C536   C     0.21811   0.12208   0.51896   0.00000  Uiso   1.00
C537   C     0.19801   0.15825   0.53819   0.00000  Uiso   1.00
C538   C     0.22998   0.09518   0.54115   0.00000  Uiso   1.00
C539   C     0.22010   0.10309   0.58214   0.00000  Uiso   1.00
C540   C     0.18594   0.16346   0.57974   0.00000  Uiso   1.00
C541   C     0.32684   0.17457   0.73731   0.00000  Uiso   1.00
C542   C     0.00772   0.15773   0.76328   0.00000  Uiso   1.00
C543   C     0.12630   0.23837   0.91662   0.00000  Uiso   1.00
C544   C     0.18096   0.32220   0.73805   0.00000  Uiso   1.00
C545   C     0.15188   0.01210   0.76230   0.00000  Uiso   1.00
C546   C     0.15604   0.05612   0.75895   0.00000  Uiso   1.00
C547   C     0.17690   0.27767   0.74133   0.00000  Uiso   1.00
C548   C     0.18805   0.14553   0.64400   0.00000  Uiso   1.00
C549   C     0.14593   0.18802   0.85621   0.00000  Uiso   1.00
C550   C     0.14291   0.20124   0.89818   0.00000  Uiso   1.00
C551   C     0.19780   0.13686   0.60130   0.00000  Uiso   1.00
C552   C     0.12989   0.25366   0.95422   0.00000  Uiso   1.00
C553   C     0.16121   0.17858   0.91855   0.00000  Uiso   1.00
C554   C     0.16685   0.19409   0.95597   0.00000  Uiso   1.00
C555   C     0.15090   0.23252   0.97405   0.00000  Uiso   1.00
C556   C     0.18718   0.17190   0.97597   0.00000  Uiso   1.00
C557   C     0.18717   0.18597   0.51555   0.00000  Uiso   1.00
C558   C     0.17761   0.22744   0.53036   0.00000  Uiso   1.00
C559   C     0.15788   0.24981   0.51057   0.00000  Uiso   1.00
Cl560  Cl    0.25653   0.05076   0.51916   0.00000  Uiso   1.00
Cl561  Cl    0.30876   0.13568   0.80663   0.00000  Uiso   1.00
Cl562  Cl    0.19924   0.25572   0.56789   0.00000  Uiso   1.00
H563   H     0.20781   0.00285   0.71575   0.00000  Uiso   1.00
H564   H     0.12468   0.33222   0.78469   0.00000  Uiso   1.00
H565   H     0.16535   0.18679   0.59607   0.00000  Uiso   1.00
H566   H     0.22938   0.08262   0.59914   0.00000  Uiso   1.00
H567   H     0.24080   0.08635   0.96235   0.00000  Uiso   1.00
H568   H     0.11684   0.28269   0.96690   0.00000  Uiso   1.00
H569   H     0.11177   0.25639   0.90150   0.00000  Uiso   1.00
H570   H     0.17080   0.14871   0.90433   0.00000  Uiso   1.00
H571   H     0.21448   0.12689   0.92624   0.00000  Uiso   1.00
I572   I     0.14033   0.31079   0.53627   0.00000  Uiso   1.00
I573   I     0.03717   0.20349   0.68820   0.00000  Uiso   1.00
O574   O     0.16667   0.16667   0.75000   0.00000  Uiso   1.00
O575   O     0.15693   0.12393   0.66625   0.00000  Uiso   1.00
O576   O     0.12687   0.20646   0.83749   0.00000  Uiso   1.00
O577   O     0.21088   0.17493   0.65877   0.00000  Uiso   1.00
O578   O     0.17198   0.16135   0.83749   0.00000  Uiso   1.00
O579   O     0.17849   0.08101   0.77820   0.00000  Uiso   1.00
O580   O     0.14581   0.26136   0.76767   0.00000  Uiso   1.00
O581   O     0.07452   0.13251   0.73607   0.00000  Uiso   1.00
O582   O     0.26785   0.19179   0.71805   0.00000  Uiso   1.00
O583   O     0.06990   0.18960   0.77820   0.00000  Uiso   1.00
O584   O     0.25440   0.15277   0.76767   0.00000  Uiso   1.00
O585   O     0.13800   0.06903   0.73607   0.00000  Uiso   1.00
O586   O     0.20437   0.25527   0.71805   0.00000  Uiso   1.00
Zn587  Zn    0.19244   0.14090   0.78277   0.00000  Uiso   1.00
Zn588  Zn    0.13459   0.12378   0.72257   0.00000  Uiso   1.00
Zn589  Zn    0.21166   0.19664   0.71188   0.00000  Uiso   1.00
Zn590  Zn    0.12798   0.20535   0.78277   0.00000  Uiso   1.00
C591   C     0.38615   0.16013   0.75865   0.00000  Uiso   1.00
C592   C     0.54187   0.13657   0.95739   0.00000  Uiso   1.00
C593   C     0.55810   0.11299   0.97826   0.00000  Uiso   1.00
C594   C     0.61437   0.17338   0.74133   0.00000  Uiso   1.00
C595   C     0.55144   0.12208   0.51896   0.00000  Uiso   1.00
C596   C     0.53134   0.15825   0.53819   0.00000  Uiso   1.00
C597   C     0.56331   0.09518   0.54115   0.00000  Uiso   1.00
C598   C     0.55343   0.10309   0.58214   0.00000  Uiso   1.00
C599   C     0.51927   0.16346   0.57974   0.00000  Uiso   1.00
C600   C     0.66017   0.17457   0.73731   0.00000  Uiso   1.00
C601   C     0.34105   0.15773   0.76328   0.00000  Uiso   1.00
C602   C     0.45964   0.23837   0.91662   0.00000  Uiso   1.00
C603   C     0.51429   0.32220   0.73805   0.00000  Uiso   1.00
C604   C     0.48522   0.01210   0.76230   0.00000  Uiso   1.00
C605   C     0.48938   0.05612   0.75895   0.00000  Uiso   1.00
C606   C     0.51023   0.27767   0.74133   0.00000  Uiso   1.00
C607   C     0.52139   0.14553   0.64400   0.00000  Uiso   1.00
C608   C     0.47927   0.18802   0.85621   0.00000  Uiso   1.00
C609   C     0.47624   0.20124   0.89818   0.00000  Uiso   1.00
C610   C     0.53114   0.13686   0.60130   0.00000  Uiso   1.00
C611   C     0.46322   0.25366   0.95422   0.00000  Uiso   1.00
C612   C     0.49454   0.17858   0.91855   0.00000  Uiso   1.00
C613   C     0.50018   0.19409   0.95597   0.00000  Uiso   1.00
C614   C     0.48423   0.23252   0.97405   0.00000  Uiso   1.00
C615   C     0.52051   0.17190   0.97597   0.00000  Uiso   1.00
C616   C     0.52050   0.18597   0.51555   0.00000  Uiso   1.00
C617   C     0.51094   0.22744   0.53036   0.00000  Uiso   1.00
C618   C     0.49122   0.24981   0.51057   0.00000  Uiso   1.00
Cl619  Cl    0.58987   0.05076   0.51916   0.00000  Uiso   1.00
Cl620  Cl    0.64209   0.13568   0.80663   0.00000  Uiso   1.00
Cl621  Cl    0.53258   0.25572   0.56789   0.00000  Uiso   1.00
H622   H     0.54114   0.00285   0.71575   0.00000  Uiso   1.00
H623   H     0.45802   0.33222   0.78469   0.00000  Uiso   1.00
H624   H     0.49868   0.18679   0.59607   0.00000  Uiso   1.00
H625   H     0.56272   0.08262   0.59914   0.00000  Uiso   1.00
H626   H     0.57413   0.08635   0.96235   0.00000  Uiso   1.00
H627   H     0.45017   0.28269   0.96690   0.00000  Uiso   1.00
H628   H     0.44510   0.25639   0.90150   0.00000  Uiso   1.00
H629   H     0.50413   0.14871   0.90433   0.00000  Uiso   1.00
H630   H     0.54781   0.12689   0.92624   0.00000  Uiso   1.00
I631   I     0.47366   0.31079   0.53627   0.00000  Uiso   1.00
I632   I     0.37050   0.20349   0.68820   0.00000  Uiso   1.00
O633   O     0.50000   0.16667   0.75000   0.00000  Uiso   1.00
O634   O     0.49027   0.12393   0.66625   0.00000  Uiso   1.00
O635   O     0.46020   0.20646   0.83749   0.00000  Uiso   1.00
O636   O     0.54421   0.17493   0.65877   0.00000  Uiso   1.00
O637   O     0.50532   0.16135   0.83749   0.00000  Uiso   1.00
O638   O     0.51182   0.08101   0.77820   0.00000  Uiso   1.00
O639   O     0.47914   0.26136   0.76767   0.00000  Uiso   1.00
O640   O     0.40785   0.13251   0.73607   0.00000  Uiso   1.00
O641   O     0.60119   0.19179   0.71805   0.00000  Uiso   1.00
O642   O     0.40323   0.18960   0.77820   0.00000  Uiso   1.00
O643   O     0.58773   0.15277   0.76767   0.00000  Uiso   1.00
O644   O     0.47133   0.06903   0.73607   0.00000  Uiso   1.00
O645   O     0.53771   0.25527   0.71805   0.00000  Uiso   1.00
Zn646  Zn    0.52577   0.14090   0.78277   0.00000  Uiso   1.00
Zn647  Zn    0.46792   0.12378   0.72257   0.00000  Uiso   1.00
Zn648  Zn    0.54500   0.19664   0.71188   0.00000  Uiso   1.00
Zn649  Zn    0.46131   0.20535   0.78277   0.00000  Uiso   1.00
C650   C     0.71948   0.16013   0.75865   0.00000  Uiso   1.00
C651   C     0.87520   0.13657   0.95739   0.00000  Uiso   1.00
C652   C     0.89143   0.11299   0.97826   0.00000  Uiso   1.00
C653   C     0.94770   0.17338   0.74133   0.00000  Uiso   1.00
C654   C     0.88478   0.12208   0.51896   0.00000  Uiso   1.00
C655   C     0.86467   0.15825   0.53819   0.00000  Uiso   1.00
C656   C     0.89664   0.09518   0.54115   0.00000  Uiso   1.00
C657   C     0.88676   0.10309   0.58214   0.00000  Uiso   1.00
C658   C     0.85260   0.16346   0.57974   0.00000  Uiso   1.00
C659   C     0.99351   0.17457   0.73731   0.00000  Uiso   1.00
C660   C     0.67438   0.15773   0.76328   0.00000  Uiso   1.00
C661   C     0.79297   0.23837   0.91662   0.00000  Uiso   1.00
C662   C     0.84763   0.32220   0.73805   0.00000  Uiso   1.00
C663   C     0.81855   0.01210   0.76230   0.00000  Uiso   1.00
C664   C     0.82271   0.05612   0.75895   0.00000  Uiso   1.00
C665   C     0.84357   0.27767   0.74133   0.00000  Uiso   1.00
C666   C     0.85472   0.14553   0.64400   0.00000  Uiso   1.00
C667   C     0.81260   0.18802   0.85621   0.00000  Uiso   1.00
C668   C     0.80957   0.20124   0.89818   0.00000  Uiso   1.00
C669   C     0.86447   0.13686   0.60130   0.00000  Uiso   1.00
C670   C     0.79655   0.25366   0.95422   0.00000  Uiso   1.00
C671   C     0.82788   0.17858   0.91855   0.00000  Uiso   1.00
C672   C     0.83352   0.19409   0.95597   0.00000  Uiso   1.00
C673   C     0.81757   0.23252   0.97405   0.00000  Uiso   1.00
C674   C     0.85385   0.17190   0.97597   0.00000  Uiso   1.00
C675   C     0.85383   0.18597   0.51555   0.00000  Uiso   1.00
C676   C     0.84428   0.22744   0.53036   0.00000  Uiso   1.00
C677   C     0.82455   0.24981   0.51057   0.00000  Uiso   1.00
Cl678  Cl    0.92320   0.05076   0.51916   0.00000  Uiso   1.00
Cl679  Cl    0.97543   0.13568   0.80663   0.00000  Uiso   1.00
Cl680  Cl    0.86591   0.25572   0.56789   0.00000  Uiso   1.00
H681   H     0.87447   0.00285   0.71575   0.00000  Uiso   1.00
H682   H     0.79135   0.33222   0.78469   0.00000  Uiso   1.00
H683   H     0.83201   0.18679   0.59607   0.00000  Uiso   1.00
H684   H     0.89605   0.08262   0.59914   0.00000  Uiso   1.00
H685   H     0.90747   0.08635   0.96235   0.00000  Uiso   1.00
H686   H     0.78350   0.28269   0.96690   0.00000  Uiso   1.00
H687   H     0.77844   0.25639   0.90150   0.00000  Uiso   1.00
H688   H     0.83746   0.14871   0.90433   0.00000  Uiso   1.00
H689   H     0.88114   0.12689   0.92624   0.00000  Uiso   1.00
I690   I     0.80700   0.31079   0.53627   0.00000  Uiso   1.00
I691   I     0.70383   0.20349   0.68820   0.00000  Uiso   1.00
O692   O     0.83333   0.16667   0.75000   0.00000  Uiso   1.00
O693   O     0.82360   0.12393   0.66625   0.00000  Uiso   1.00
O694   O     0.79354   0.20646   0.83749   0.00000  Uiso   1.00
O695   O     0.87755   0.17493   0.65877   0.00000  Uiso   1.00
O696   O     0.83865   0.16135   0.83749   0.00000  Uiso   1.00
O697   O     0.84515   0.08101   0.77820   0.00000  Uiso   1.00
O698   O     0.81247   0.26136   0.76767   0.00000  Uiso   1.00
O699   O     0.74119   0.13251   0.73607   0.00000  Uiso   1.00
O700   O     0.93452   0.19179   0.71805   0.00000  Uiso   1.00
O701   O     0.73656   0.18960   0.77820   0.00000  Uiso   1.00
O702   O     0.92106   0.15277   0.76767   0.00000  Uiso   1.00
O703   O     0.80467   0.06903   0.73607   0.00000  Uiso   1.00
O704   O     0.87104   0.25527   0.71805   0.00000  Uiso   1.00
Zn705  Zn    0.85910   0.14090   0.78277   0.00000  Uiso   1.00
Zn706  Zn    0.80125   0.12378   0.72257   0.00000  Uiso   1.00
Zn707  Zn    0.87833   0.19664   0.71188   0.00000  Uiso   1.00
Zn708  Zn    0.79465   0.20535   0.78277   0.00000  Uiso   1.00
C709   C     0.05282   0.49346   0.75865   0.00000  Uiso   1.00
C710   C     0.20853   0.46990   0.95739   0.00000  Uiso   1.00
C711   C     0.22476   0.44632   0.97826   0.00000  Uiso   1.00
C712   C     0.28104   0.50672   0.74133   0.00000  Uiso   1.00
C713   C     0.21811   0.45542   0.51896   0.00000  Uiso   1.00
C714   C     0.19801   0.49159   0.53819   0.00000  Uiso   1.00
C715   C     0.22998   0.42851   0.54115   0.00000  Uiso   1.00
C716   C     0.22010   0.43642   0.58214   0.00000  Uiso   1.00
C717   C     0.18594   0.49679   0.57974   0.00000  Uiso   1.00
C718   C     0.32684   0.50790   0.73731   0.00000  Uiso   1.00
C719   C     0.00772   0.49106   0.76328   0.00000  Uiso   1.00
C720   C     0.12630   0.57171   0.91662   0.00000  Uiso   1.00
C721   C     0.18096   0.65554   0.73805   0.00000  Uiso   1.00
C722   C     0.15188   0.34543   0.76230   0.00000  Uiso   1.00
C723   C     0.15604   0.38945   0.75895   0.00000  Uiso   1.00
C724   C     0.17690   0.61101   0.74133   0.00000  Uiso   1.00
C725   C     0.18805   0.47886   0.64400   0.00000  Uiso   1.00
C726   C     0.14593   0.52135   0.85621   0.00000  Uiso   1.00
C727   C     0.14291   0.53457   0.89818   0.00000  Uiso   1.00
C728   C     0.19780   0.47020   0.60130   0.00000  Uiso   1.00
C729   C     0.12989   0.58699   0.95422   0.00000  Uiso   1.00
C730   C     0.16121   0.51191   0.91855   0.00000  Uiso   1.00
C731   C     0.16685   0.52742   0.95597   0.00000  Uiso   1.00
C732   C     0.15090   0.56585   0.97405   0.00000  Uiso   1.00
C733   C     0.18718   0.50523   0.97597   0.00000  Uiso   1.00
C734   C     0.18717   0.51930   0.51555   0.00000  Uiso   1.00
C735   C     0.17761   0.56077   0.53036   0.00000  Uiso   1.00
C736   C     0.15788   0.58315   0.51057   0.00000  Uiso   1.00
Cl737  Cl    0.25653   0.38410   0.51916   0.00000  Uiso   1.00
Cl738  Cl    0.30876   0.46902   0.80663   0.00000  Uiso   1.00
Cl739  Cl    0.19924   0.58906   0.56789   0.00000  Uiso   1.00
H740   H     0.20781   0.33618   0.71575   0.00000  Uiso   1.00
H741   H     0.12468   0.66556   0.78469   0.00000  Uiso   1.00
H742   H     0.16535   0.52012   0.59607   0.00000  Uiso   1.00
H743   H     0.22938   0.41595   0.59914   0.00000  Uiso   1.00
H744   H     0.24080   0.41968   0.96235   0.00000  Uiso   1.00
H745   H     0.11684   0.61602   0.96690   0.00000  Uiso   1.00
H746   H     0.11177   0.58973   0.90150   0.00000  Uiso   1.00
H747   H     0.17080   0.48205   0.90433   0.00000  Uiso   1.00
H748   H     0.21448   0.46023   0.92624   0.00000  Uiso   1.00
I749   I     0.14033   0.64412   0.53627   0.00000  Uiso   1.00
I750   I     0.03717   0.53682   0.68820   0.00000  Uiso   1.00
O751   O     0.16667   0.50000   0.75000   0.00000  Uiso   1.00
O752   O     0.15693   0.45726   0.66625   0.00000  Uiso   1.00
O753   O     0.12687   0.53979   0.83749   0.00000  Uiso   1.00
O754   O     0.21088   0.50826   0.65877   0.00000  Uiso   1.00
O755   O     0.17198   0.49468   0.83749   0.00000  Uiso   1.00
O756   O     0.17849   0.41434   0.77820   0.00000  Uiso   1.00
O757   O     0.14581   0.59469   0.76767   0.00000  Uiso   1.00
O758   O     0.07452   0.46584   0.73607   0.00000  Uiso   1.00
O759   O     0.26785   0.52512   0.71805   0.00000  Uiso   1.00
O760   O     0.06990   0.52293   0.77820   0.00000  Uiso   1.00
O761   O     0.25440   0.48610   0.76767   0.00000  Uiso   1.00
O762   O     0.13800   0.40236   0.73607   0.00000  Uiso   1.00
O763   O     0.20437   0.58860   0.71805   0.00000  Uiso   1.00
Zn764  Zn    0.19244   0.47423   0.78277   0.00000  Uiso   1.00
Zn765  Zn    0.13459   0.45711   0.72257   0.00000  Uiso   1.00
Zn766  Zn    0.21166   0.52997   0.71188   0.00000  Uiso   1.00
Zn767  Zn    0.12798   0.53868   0.78277   0.00000  Uiso   1.00
C768   C     0.38615   0.49346   0.75865   0.00000  Uiso   1.00
C769   C     0.54187   0.46990   0.95739   0.00000  Uiso   1.00
C770   C     0.55810   0.44632   0.97826   0.00000  Uiso   1.00
C771   C     0.61437   0.50672   0.74133   0.00000  Uiso   1.00
C772   C     0.55144   0.45542   0.51896   0.00000  Uiso   1.00
C773   C     0.53134   0.49159   0.53819   0.00000  Uiso   1.00
C774   C     0.56331   0.42851   0.54115   0.00000  Uiso   1.00
C775   C     0.55343   0.43642   0.58214   0.00000  Uiso   1.00
C776   C     0.51927   0.49679   0.57974   0.00000  Uiso   1.00
C777   C     0.66017   0.50790   0.73731   0.00000  Uiso   1.00
C778   C     0.34105   0.49106   0.76328   0.00000  Uiso   1.00
C779   C     0.45964   0.57171   0.91662   0.00000  Uiso   1.00
C780   C     0.51429   0.65554   0.73805   0.00000  Uiso   1.00
C781   C     0.48522   0.34543   0.76230   0.00000  Uiso   1.00
C782   C     0.48938   0.38945   0.75895   0.00000  Uiso   1.00
C783   C     0.51023   0.61101   0.74133   0.00000  Uiso   1.00
C784   C     0.52139   0.47886   0.64400   0.00000  Uiso   1.00
C785   C     0.47927   0.52135   0.85621   0.00000  Uiso   1.00
C786   C     0.47624   0.53457   0.89818   0.00000  Uiso   1.00
C787   C     0.53114   0.47020   0.60130   0.00000  Uiso   1.00
C788   C     0.46322   0.58699   0.95422   0.00000  Uiso   1.00
C789   C     0.49454   0.51191   0.91855   0.00000  Uiso   1.00
C790   C     0.50018   0.52742   0.95597   0.00000  Uiso   1.00
C791   C     0.48423   0.56585   0.97405   0.00000  Uiso   1.00
C792   C     0.52051   0.50523   0.97597   0.00000  Uiso   1.00
C793   C     0.52050   0.51930   0.51555   0.00000  Uiso   1.00
C794   C     0.51094   0.56077   0.53036   0.00000  Uiso   1.00
C795   C     0.49122   0.58315   0.51057   0.00000  Uiso   1.00
Cl796  Cl    0.58987   0.38410   0.51916   0.00000  Uiso   1.00
Cl797  Cl    0.64209   0.46902   0.80663   0.00000  Uiso   1.00
Cl798  Cl    0.53258   0.58906   0.56789   0.00000  Uiso   1.00
H799   H     0.54114   0.33618   0.71575   0.00000  Uiso   1.00
H800   H     0.45802   0.66556   0.78469   0.00000  Uiso   1.00
H801   H     0.49868   0.52012   0.59607   0.00000  Uiso   1.00
H802   H     0.56272   0.41595   0.59914   0.00000  Uiso   1.00
H803   H     0.57413   0.41968   0.96235   0.00000  Uiso   1.00
H804   H     0.45017   0.61602   0.96690   0.00000  Uiso   1.00
H805   H     0.44510   0.58973   0.90150   0.00000  Uiso   1.00
H806   H     0.50413   0.48205   0.90433   0.00000  Uiso   1.00
H807   H     0.54781   0.46023   0.92624   0.00000  Uiso   1.00
I808   I     0.47366   0.64412   0.53627   0.00000  Uiso   1.00
I809   I     0.37050   0.53682   0.68820   0.00000  Uiso   1.00
O810   O     0.50000   0.50000   0.75000   0.00000  Uiso   1.00
O811   O     0.49027   0.45726   0.66625   0.00000  Uiso   1.00
O812   O     0.46020   0.53979   0.83749   0.00000  Uiso   1.00
O813   O     0.54421   0.50826   0.65877   0.00000  Uiso   1.00
O814   O     0.50532   0.49468   0.83749   0.00000  Uiso   1.00
O815   O     0.51182   0.41434   0.77820   0.00000  Uiso   1.00
O816   O     0.47914   0.59469   0.76767   0.00000  Uiso   1.00
O817   O     0.40785   0.46584   0.73607   0.00000  Uiso   1.00
O818   O     0.60119   0.52512   0.71805   0.00000  Uiso   1.00
O819   O     0.40323   0.52293   0.77820   0.00000  Uiso   1.00
O820   O     0.58773   0.48610   0.76767   0.00000  Uiso   1.00
O821   O     0.47133   0.40236   0.73607   0.00000  Uiso   1.00
O822   O     0.53771   0.58860   0.71805   0.00000  Uiso   1.00
Zn823  Zn    0.52577   0.47423   0.78277   0.00000  Uiso   1.00
Zn824  Zn    0.46792   0.45711   0.72257   0.00000  Uiso   1.00
Zn825  Zn    0.54500   0.52997   0.71188   0.00000  Uiso   1.00
Zn826  Zn    0.46131   0.53868   0.78277   0.00000  Uiso   1.00
C827   C     0.71948   0.49346   0.75865   0.00000  Uiso   1.00
C828   C     0.87520   0.46990   0.95739   0.00000  Uiso   1.00
C829   C     0.89143   0.44632   0.97826   0.00000  Uiso   1.00
C830   C     0.94770   0.50672   0.74133   0.00000  Uiso   1.00
C831   C     0.88478   0.45542   0.51896   0.00000  Uiso   1.00
C832   C     0.86467   0.49159   0.53819   0.00000  Uiso   1.00
C833   C     0.89664   0.42851   0.54115   0.00000  Uiso   1.00
C834   C     0.88676   0.43642   0.58214   0.00000  Uiso   1.00
C835   C     0.85260   0.49679   0.57974   0.00000  Uiso   1.00
C836   C     0.99351   0.50790   0.73731   0.00000  Uiso   1.00
C837   C     0.67438   0.49106   0.76328   0.00000  Uiso   1.00
C838   C     0.79297   0.57171   0.91662   0.00000  Uiso   1.00
C839   C     0.84763   0.65554   0.73805   0.00000  Uiso   1.00
C840   C     0.81855   0.34543   0.76230   0.00000  Uiso   1.00
C841   C     0.82271   0.38945   0.75895   0.00000  Uiso   1.00
C842   C     0.84357   0.61101   0.74133   0.00000  Uiso   1.00
C843   C     0.85472   0.47886   0.64400   0.00000  Uiso   1.00
C844   C     0.81260   0.52135   0.85621   0.00000  Uiso   1.00
C845   C     0.80957   0.53457   0.89818   0.00000  Uiso   1.00
C846   C     0.86447   0.47020   0.60130   0.00000  Uiso   1.00
C847   C     0.79655   0.58699   0.95422   0.00000  Uiso   1.00
C848   C     0.82788   0.51191   0.91855   0.00000  Uiso   1.00
C849   C     0.83352   0.52742   0.95597   0.00000  Uiso   1.00
C850   C     0.81757   0.56585   0.97405   0.00000  Uiso   1.00
C851   C     0.85385   0.50523   0.97597   0.00000  Uiso   1.00
C852   C     0.85383   0.51930   0.51555   0.00000  Uiso   1.00
C853   C     0.84428   0.56077   0.53036   0.00000  Uiso   1.00
C854   C     0.82455   0.58315   0.51057   0.00000  Uiso   1.00
Cl855  Cl    0.92320   0.38410   0.51916   0.00000  Uiso   1.00
Cl856  Cl    0.97543   0.46902   0.80663   0.00000  Uiso   1.00
Cl857  Cl    0.86591   0.58906   0.56789   0.00000  Uiso   1.00
H858   H     0.87447   0.33618   0.71575   0.00000  Uiso   1.00
H859   H     0.79135   0.66556   0.78469   0.00000  Uiso   1.00
H860   H     0.83201   0.52012   0.59607   0.00000  Uiso   1.00
H861   H     0.89605   0.41595   0.59914   0.00000  Uiso   1.00
H862   H     0.90747   0.41968   0.96235   0.00000  Uiso   1.00
H863   H     0.78350   0.61602   0.96690   0.00000  Uiso   1.00
H864   H     0.77844   0.58973   0.90150   0.00000  Uiso   1.00
H865   H     0.83746   0.48205   0.90433   0.00000  Uiso   1.00
H866   H     0.88114   0.46023   0.92624   0.00000  Uiso   1.00
I867   I     0.80700   0.64412   0.53627   0.00000  Uiso   1.00
I868   I     0.70383   0.53682   0.68820   0.00000  Uiso   1.00
O869   O     0.83333   0.50000   0.75000   0.00000  Uiso   1.00
O870   O     0.82360   0.45726   0.66625   0.00000  Uiso   1.00
O871   O     0.79354   0.53979   0.83749   0.00000  Uiso   1.00
O872   O     0.87755   0.50826   0.65877   0.00000  Uiso   1.00
O873   O     0.83865   0.49468   0.83749   0.00000  Uiso   1.00
O874   O     0.84515   0.41434   0.77820   0.00000  Uiso   1.00
O875   O     0.81247   0.59469   0.76767   0.00000  Uiso   1.00
O876   O     0.74119   0.46584   0.73607   0.00000  Uiso   1.00
O877   O     0.93452   0.52512   0.71805   0.00000  Uiso   1.00
O878   O     0.73656   0.52293   0.77820   0.00000  Uiso   1.00
O879   O     0.92106   0.48610   0.76767   0.00000  Uiso   1.00
O880   O     0.80467   0.40236   0.73607   0.00000  Uiso   1.00
O881   O     0.87104   0.58860   0.71805   0.00000  Uiso   1.00
Zn882  Zn    0.85910   0.47423   0.78277   0.00000  Uiso   1.00
Zn883  Zn    0.80125   0.45711   0.72257   0.00000  Uiso   1.00
Zn884  Zn    0.87833   0.52997   0.71188   0.00000  Uiso   1.00
Zn885  Zn    0.79465   0.53868   0.78277   0.00000  Uiso   1.00
C886   C     0.05282   0.82680   0.75865   0.00000  Uiso   1.00
C887   C     0.20853   0.80324   0.95739   0.00000  Uiso   1.00
C888   C     0.22476   0.77966   0.97826   0.00000  Uiso   1.00
C889   C     0.28104   0.84005   0.74133   0.00000  Uiso   1.00
C890   C     0.21811   0.78875   0.51896   0.00000  Uiso   1.00
C891   C     0.19801   0.82492   0.53819   0.00000  Uiso   1.00
C892   C     0.22998   0.76185   0.54115   0.00000  Uiso   1.00
C893   C     0.22010   0.76976   0.58214   0.00000  Uiso   1.00
C894   C     0.18594   0.83013   0.57974   0.00000  Uiso   1.00
C895   C     0.32684   0.84123   0.73731   0.00000  Uiso   1.00
C896   C     0.00772   0.82440   0.76328   0.00000  Uiso   1.00
C897   C     0.12630   0.90504   0.91662   0.00000  Uiso   1.00
C898   C     0.18096   0.98887   0.73805   0.00000  Uiso   1.00
C899   C     0.15188   0.67877   0.76230   0.00000  Uiso   1.00
C900   C     0.15604   0.72279   0.75895   0.00000  Uiso   1.00
C901   C     0.17690   0.94434   0.74133   0.00000  Uiso   1.00
C902   C     0.18805   0.81220   0.64400   0.00000  Uiso   1.00
C903   C     0.14593   0.85469   0.85621   0.00000  Uiso   1.00
C904   C     0.14291   0.86790   0.89818   0.00000  Uiso   1.00
C905   C     0.19780   0.80353   0.60130   0.00000  Uiso   1.00
C906   C     0.12989   0.92033   0.95422   0.00000  Uiso   1.00
C907   C     0.16121   0.84524   0.91855   0.00000  Uiso   1.00
C908   C     0.16685   0.86076   0.95597   0.00000  Uiso   1.00
C909   C     0.15090   0.89919   0.97405   0.00000  Uiso   1.00
C910   C     0.18718   0.83857   0.97597   0.00000  Uiso   1.00
C911   C     0.18717   0.85264   0.51555   0.00000  Uiso   1.00
C912   C     0.17761   0.89411   0.53036   0.00000  Uiso   1.00
C913   C     0.15788   0.91648   0.51057   0.00000  Uiso   1.00
Cl914  Cl    0.25653   0.71743   0.51916   0.00000  Uiso   1.00
Cl915  Cl    0.30876   0.80235   0.80663   0.00000  Uiso   1.00
Cl916  Cl    0.19924   0.92239   0.56789   0.00000  Uiso   1.00
H917   H     0.20781   0.66952   0.71575   0.00000  Uiso   1.00
H918   H     0.12468   0.99889   0.78469   0.00000  Uiso   1.00
H919   H     0.16535   0.85345   0.59607   0.00000  Uiso   1.00
H920   H     0.22938   0.74929   0.59914   0.00000  Uiso   1.00
H921   H     0.24080   0.75302   0.96235   0.00000  Uiso   1.00
H922   H     0.11684   0.94936   0.96690   0.00000  Uiso   1.00
H923   H     0.11177   0.92306   0.90150   0.00000  Uiso   1.00
H924   H     0.17080   0.81538   0.90433   0.00000  Uiso   1.00
H925   H     0.21448   0.79356   0.92624   0.00000  Uiso   1.00
I926   I     0.14033   0.97745   0.53627   0.00000  Uiso   1.00
I927   I     0.03717   0.87015   0.68820   0.00000  Uiso   1.00
O928   O     0.16667   0.83333   0.75000   0.00000  Uiso   1.00
O929   O     0.15693   0.79060   0.66625   0.00000  Uiso   1.00
O930   O     0.12687   0.87313   0.83749   0.00000  Uiso   1.00
O931   O     0.21088   0.84159   0.65877   0.00000  Uiso   1.00
O932   O     0.17198   0.82802   0.83749   0.00000  Uiso   1.00
O933   O     0.17849   0.74768   0.77820   0.00000  Uiso   1.00
O934   O     0.14581   0.92803   0.76767   0.00000  Uiso   1.00
O935   O     0.07452   0.79917   0.73607   0.00000  Uiso   1.00
O936   O     0.26785   0.85845   0.71805   0.00000  Uiso   1.00
O937   O     0.06990   0.85627   0.77820   0.00000  Uiso   1.00
O938   O     0.25440   0.81944   0.76767   0.00000  Uiso   1.00
O939   O     0.13800   0.73570   0.73607   0.00000  Uiso   1.00
O940   O     0.20437   0.92193   0.71805   0.00000  Uiso   1.00
Zn941  Zn    0.19244   0.80756   0.78277   0.00000  Uiso   1.00
Zn942  Zn    0.13459   0.79044   0.72257   0.00000  Uiso   1.00
Zn943  Zn    0.21166   0.86331   0.71188   0.00000  Uiso   1.00
Zn944  Zn    0.12798   0.87202   0.78277   0.00000  Uiso   1.00
C945   C     0.38615   0.82680   0.75865   0.00000  Uiso   1.00
C946   C     0.54187   0.80324   0.95739   0.00000  Uiso   1.00
C947   C     0.55810   0.77966   0.97826   0.00000  Uiso   1.00
C948   C     0.61437   0.84005   0.74133   0.00000  Uiso   1.00
C949   C     0.55144   0.78875   0.51896   0.00000  Uiso   1.00
C950   C     0.53134   0.82492   0.53819   0.00000  Uiso   1.00
C951   C     0.56331   0.76185   0.54115   0.00000  Uiso   1.00
C952   C     0.55343   0.76976   0.58214   0.00000  Uiso   1.00
C953   C     0.51927   0.83013   0.57974   0.00000  Uiso   1.00
C954   C     0.66017   0.84123   0.73731   0.00000  Uiso   1.00
C955   C     0.34105   0.82440   0.76328   0.00000  Uiso   1.00
C956   C     0.45964   0.90504   0.91662   0.00000  Uiso   1.00
C957   C     0.51429   0.98887   0.73805   0.00000  Uiso   1.00
C958   C     0.48522   0.67877   0.76230   0.00000  Uiso   1.00
C959   C     0.48938   0.72279   0.75895   0.00000  Uiso   1.00
C960   C     0.51023   0.94434   0.74133   0.00000  Uiso   1.00
C961   C     0.52139   0.81220   0.64400   0.00000  Uiso   1.00
C962   C     0.47927   0.85469   0.85621   0.00000  Uiso   1.00
C963   C     0.47624   0.86790   0.89818   0.00000  Uiso   1.00
C964   C     0.53114   0.80353   0.60130   0.00000  Uiso   1.00
C965   C     0.46322   0.92033   0.95422   0.00000  Uiso   1.00
C966   C     0.49454   0.84524   0.91855   0.00000  Uiso   1.00
C967   C     0.50018   0.86076   0.95597   0.00000  Uiso   1.00
C968   C     0.48423   0.89919   0.97405   0.00000  Uiso   1.00
C969   C     0.52051   0.83857   0.97597   0.00000  Uiso   1.00
C970   C     0.52050   0.85264   0.51555   0.00000  Uiso   1.00
C971   C     0.51094   0.89411   0.53036   0.00000  Uiso   1.00
C972   C     0.49122   0.91648   0.51057   0.00000  Uiso   1.00
Cl973  Cl    0.58987   0.71743   0.51916   0.00000  Uiso   1.00
Cl974  Cl    0.64209   0.80235   0.80663   0.00000  Uiso   1.00
Cl975  Cl    0.53258   0.92239   0.56789   0.00000  Uiso   1.00
H976   H     0.54114   0.66952   0.71575   0.00000  Uiso   1.00
H977   H     0.45802   0.99889   0.78469   0.00000  Uiso   1.00
H978   H     0.49868   0.85345   0.59607   0.00000  Uiso   1.00
H979   H     0.56272   0.74929   0.59914   0.00000  Uiso   1.00
H980   H     0.57413   0.75302   0.96235   0.00000  Uiso   1.00
H981   H     0.45017   0.94936   0.96690   0.00000  Uiso   1.00
H982   H     0.44510   0.92306   0.90150   0.00000  Uiso   1.00
H983   H     0.50413   0.81538   0.90433   0.00000  Uiso   1.00
H984   H     0.54781   0.79356   0.92624   0.00000  Uiso   1.00
I985   I     0.47366   0.97745   0.53627   0.00000  Uiso   1.00
I986   I     0.37050   0.87015   0.68820   0.00000  Uiso   1.00
O987   O     0.50000   0.83333   0.75000   0.00000  Uiso   1.00
O988   O     0.49027   0.79060   0.66625   0.00000  Uiso   1.00
O989   O     0.46020   0.87313   0.83749   0.00000  Uiso   1.00
O990   O     0.54421   0.84159   0.65877   0.00000  Uiso   1.00
O991   O     0.50532   0.82802   0.83749   0.00000  Uiso   1.00
O992   O     0.51182   0.74768   0.77820   0.00000  Uiso   1.00
O993   O     0.47914   0.92803   0.76767   0.00000  Uiso   1.00
O994   O     0.40785   0.79917   0.73607   0.00000  Uiso   1.00
O995   O     0.60119   0.85845   0.71805   0.00000  Uiso   1.00
O996   O     0.40323   0.85627   0.77820   0.00000  Uiso   1.00
O997   O     0.58773   0.81944   0.76767   0.00000  Uiso   1.00
O998   O     0.47133   0.73570   0.73607   0.00000  Uiso   1.00
O999   O     0.53771   0.92193   0.71805   0.00000  Uiso   1.00
Zn1000 Zn    0.52577   0.80756   0.78277   0.00000  Uiso   1.00
Zn1001 Zn    0.46792   0.79044   0.72257   0.00000  Uiso   1.00
Zn1002 Zn    0.54500   0.86331   0.71188   0.00000  Uiso   1.00
Zn1003 Zn    0.46131   0.87202   0.78277   0.00000  Uiso   1.00
C1004  C     0.71948   0.82680   0.75865   0.00000  Uiso   1.00
C1005  C     0.87520   0.80324   0.95739   0.00000  Uiso   1.00
C1006  C     0.89143   0.77966   0.97826   0.00000  Uiso   1.00
C1007  C     0.94770   0.84005   0.74133   0.00000  Uiso   1.00
C1008  C     0.88478   0.78875   0.51896   0.00000  Uiso   1.00
C1009  C     0.86467   0.82492   0.53819   0.00000  Uiso   1.00
C1010  C     0.89664   0.76185   0.54115   0.00000  Uiso   1.00
C1011  C     0.88676   0.76976   0.58214   0.00000  Uiso   1.00
C1012  C     0.85260   0.83013   0.57974   0.00000  Uiso   1.00
C1013  C     0.99351   0.84123   0.73731   0.00000  Uiso   1.00
C1014  C     0.67438   0.82440   0.76328   0.00000  Uiso   1.00
C1015  C     0.79297   0.90504   0.91662   0.00000  Uiso   1.00
C1016  C     0.84763   0.98887   0.73805   0.00000  Uiso   1.00
C1017  C     0.81855   0.67877   0.76230   0.00000  Uiso   1.00
C1018  C     0.82271   0.72279   0.75895   0.00000  Uiso   1.00
C1019  C     0.84357   0.94434   0.74133   0.00000  Uiso   1.00
C1020  C     0.85472   0.81220   0.64400   0.00000  Uiso   1.00
C1021  C     0.81260   0.85469   0.85621   0.00000  Uiso   1.00
C1022  C     0.80957   0.86790   0.89818   0.00000  Uiso   1.00
C1023  C     0.86447   0.80353   0.60130   0.00000  Uiso   1.00
C1024  C     0.79655   0.92033   0.95422   0.00000  Uiso   1.00
C1025  C     0.82788   0.84524   0.91855   0.00000  Uiso   1.00
C1026  C     0.83352   0.86076   0.95597   0.00000  Uiso   1.00
C1027  C     0.81757   0.89919   0.97405   0.00000  Uiso   1.00
C1028  C     0.85385   0.83857   0.97597   0.00000  Uiso   1.00
C1029  C     0.85383   0.85264   0.51555   0.00000  Uiso   1.00
C1030  C     0.84428   0.89411   0.53036   0.00000  Uiso   1.00
C1031  C     0.82455   0.91648   0.51057   0.00000  Uiso   1.00
Cl1032 Cl    0.92320   0.71743   0.51916   0.00000  Uiso   1.00
Cl1033 Cl    0.97543   0.80235   0.80663   0.00000  Uiso   1.00
Cl1034 Cl    0.86591   0.92239   0.56789   0.00000  Uiso   1.00
H1035  H     0.87447   0.66952   0.71575   0.00000  Uiso   1.00
H1036  H     0.79135   0.99889   0.78469   0.00000  Uiso   1.00
H1037  H     0.83201   0.85345   0.59607   0.00000  Uiso   1.00
H1038  H     0.89605   0.74929   0.59914   0.00000  Uiso   1.00
H1039  H     0.90747   0.75302   0.96235   0.00000  Uiso   1.00
H1040  H     0.78350   0.94936   0.96690   0.00000  Uiso   1.00
H1041  H     0.77844   0.92306   0.90150   0.00000  Uiso   1.00
H1042  H     0.83746   0.81538   0.90433   0.00000  Uiso   1.00
H1043  H     0.88114   0.79356   0.92624   0.00000  Uiso   1.00
I1044  I     0.80700   0.97745   0.53627   0.00000  Uiso   1.00
I1045  I     0.70383   0.87015   0.68820   0.00000  Uiso   1.00
O1046  O     0.83333   0.83333   0.75000   0.00000  Uiso   1.00
O1047  O     0.82360   0.79060   0.66625   0.00000  Uiso   1.00
O1048  O     0.79354   0.87313   0.83749   0.00000  Uiso   1.00
O1049  O     0.87755   0.84159   0.65877   0.00000  Uiso   1.00
O1050  O     0.83865   0.82802   0.83749   0.00000  Uiso   1.00
O1051  O     0.84515   0.74768   0.77820   0.00000  Uiso   1.00
O1052  O     0.81247   0.92803   0.76767   0.00000  Uiso   1.00
O1053  O     0.74119   0.79917   0.73607   0.00000  Uiso   1.00
O1054  O     0.93452   0.85845   0.71805   0.00000  Uiso   1.00
O1055  O     0.73656   0.85627   0.77820   0.00000  Uiso   1.00
O1056  O     0.92106   0.81944   0.76767   0.00000  Uiso   1.00
O1057  O     0.80467   0.73570   0.73607   0.00000  Uiso   1.00
O1058  O     0.87104   0.92193   0.71805   0.00000  Uiso   1.00
Zn1059 Zn    0.85910   0.80756   0.78277   0.00000  Uiso   1.00
Zn1060 Zn    0.80125   0.79044   0.72257   0.00000  Uiso   1.00
Zn1061 Zn    0.87833   0.86331   0.71188   0.00000  Uiso   1.00
Zn1062 Zn    0.79465   0.87202   0.78277   0.00000  Uiso   1.00
loop_
_geom_bond_atom_site_label_1
_geom_bond_atom_site_label_2
_geom_bond_distance
_geom_bond_site_symmetry_2
_ccdc_geom_bond_type
C1     O50     1.270   .     A
C1     O52     1.265   .     A
C1     C11     1.428   .     S
C2     C3      1.386   .     A
C2     C25     1.415   .     A
C2     H40     1.077   .     S
C3     H36     1.082   .     S
C3     C536    1.395   .     S
C4     O53     1.270   .     A
C4     O51     1.283   .     A
C4     C10     1.459   .     S
C5     C6      1.423   .     A
C5     C7      1.415   .     A
C5     C534    1.395   1_554 S
C6     C9      1.407   .     A
C6     C26     1.428   .     A
C7     Cl29    1.764   .     S
C7     C8      1.393   .     A
C8     C20     1.393   .     A
C8     H35     1.084   .     S
C9     C20     1.391   .     A
C9     H34     1.080   .     S
C10    C70     1.352   .     S
C10    I101    2.140   .     S
C11    C128    1.352   1_455 S
C11    Cl148   1.771   1_455 S
C12    C19     1.396   .     A
C12    H38     1.083   .     S
C12    C21     1.393   .     A
C13    C16     1.451   .     S
C13    C191    1.332   .     S
C13    H209    1.088   .     S
C14    C15     1.435   .     S
C14    C367    1.332   1_545 S
C14    H387    1.086   1_545 S
C15    O54     1.276   .     A
C15    O48     1.277   .     A
C16    O55     1.272   .     A
C16    O49     1.272   .     A
C17    C20     1.454   .     S
C17    O44     1.277   .     A
C17    O46     1.276   .     A
C18    O47     1.284   .     A
C18    O45     1.284   .     A
C18    C19     1.474   .     S
C19    C22     1.397   .     A
C21    C24     1.411   .     A
C21    H37     1.079   .     S
C22    H39     1.076   .     S
C22    C23     1.411   .     A
C23    C24     1.422   .     A
C23    C25     1.422   .     A
C24    C559    1.411   .     S
C25    C557    1.419   .     S
C26    C27     1.423   .     A
C26    C556    1.419   1_554 S
C27    C28     1.407   .     A
C27    Cl31    1.775   .     S
C28    I41     2.150   .     S
C28    C555    1.411   1_554 S
Cl30   C70     1.771   .     S
H32    C367    1.088   1_545 S
H33    C191    1.086   .     S
I42    C128    2.140   1_455 S
O43    Zn59    1.936   .     S
O43    Zn56    1.952   .     S
O43    Zn57    1.947   .     S
O43    Zn58    1.932   .     S
O44    Zn57    1.922   .     S
O45    Zn59    1.930   .     S
O46    Zn58    1.929   .     S
O47    Zn56    1.922   .     S
O48    Zn56    1.928   .     S
O49    Zn59    1.927   .     S
O50    Zn57    1.937   .     S
O51    Zn58    1.945   .     S
O52    Zn59    1.943   .     S
O53    Zn56    1.935   .     S
O54    Zn57    1.931   .     S
O55    Zn58    1.929   .     S
C60    O109    1.270   .     A
C60    O111    1.265   .     A
C60    C70     1.428   .     S
C61    C62     1.386   .     A
C61    C84     1.415   .     A
C61    H99     1.077   .     S
C62    H95     1.082   .     S
C62    C595    1.395   .     S
C63    O112    1.270   .     A
C63    O110    1.283   .     A
C63    C69     1.459   .     S
C64    C65     1.423   .     A
C64    C66     1.415   .     A
C64    C593    1.395   1_554 S
C65    C68     1.407   .     A
C65    C85     1.428   .     A
C66    Cl88    1.764   .     S
C66    C67     1.393   .     A
C67    C79     1.393   .     A
C67    H94     1.084   .     S
C68    C79     1.391   .     A
C68    H93     1.080   .     S
C69    C129    1.352   .     S
C69    I160    2.140   .     S
C71    C78     1.396   .     A
C71    H97     1.083   .     S
C71    C80     1.393   .     A
C72    C75     1.451   .     S
C72    C250    1.332   .     S
C72    H268    1.088   .     S
C73    C74     1.435   .     S
C73    C426    1.332   1_545 S
C73    H446    1.086   1_545 S
C74    O113    1.276   .     A
C74    O107    1.277   .     A
C75    O114    1.272   .     A
C75    O108    1.272   .     A
C76    C79     1.454   .     S
C76    O103    1.277   .     A
C76    O105    1.276   .     A
C77    O106    1.284   .     A
C77    O104    1.284   .     A
C77    C78     1.474   .     S
C78    C81     1.397   .     A
C80    C83     1.411   .     A
C80    H96     1.079   .     S
C81    H98     1.076   .     S
C81    C82     1.411   .     A
C82    C83     1.422   .     A
C82    C84     1.422   .     A
C83    C618    1.411   .     S
C84    C616    1.419   .     S
C85    C86     1.423   .     A
C85    C615    1.419   1_554 S
C86    C87     1.407   .     A
C86    Cl90    1.775   .     S
C87    I100    2.150   .     S
C87    C614    1.411   1_554 S
Cl89   C129    1.771   .     S
H91    C426    1.088   1_545 S
H92    C250    1.086   .     S
O102   Zn118   1.936   .     S
O102   Zn115   1.952   .     S
O102   Zn116   1.947   .     S
O102   Zn117   1.932   .     S
O103   Zn116   1.922   .     S
O104   Zn118   1.930   .     S
O105   Zn117   1.929   .     S
O106   Zn115   1.922   .     S
O107   Zn115   1.928   .     S
O108   Zn118   1.927   .     S
O109   Zn116   1.937   .     S
O110   Zn117   1.945   .     S
O111   Zn118   1.943   .     S
O112   Zn115   1.935   .     S
O113   Zn116   1.931   .     S
O114   Zn117   1.929   .     S
C119   O168    1.270   .     A
C119   O170    1.265   .     A
C119   C129    1.428   .     S
C120   C121    1.386   .     A
C120   C143    1.415   .     A
C120   H158    1.077   .     S
C121   H154    1.082   .     S
C121   C654    1.395   .     S
C122   O171    1.270   .     A
C122   O169    1.283   .     A
C122   C128    1.459   .     S
C123   C124    1.423   .     A
C123   C125    1.415   .     A
C123   C652    1.395   1_554 S
C124   C127    1.407   .     A
C124   C144    1.428   .     A
C125   Cl147   1.764   .     S
C125   C126    1.393   .     A
C126   C138    1.393   .     A
C126   H153    1.084   .     S
C127   C138    1.391   .     A
C127   H152    1.080   .     S
C128   C11     1.352   1_655 S
C128   I42     2.140   1_655 S
C130   C137    1.396   .     A
C130   H156    1.083   .     S
C130   C139    1.393   .     A
C131   C134    1.451   .     S
C131   C309    1.332   .     S
C131   H327    1.088   .     S
C132   C133    1.435   .     S
C132   C485    1.332   1_545 S
C132   H505    1.086   1_545 S
C133   O172    1.276   .     A
C133   O166    1.277   .     A
C134   O173    1.272   .     A
C134   O167    1.272   .     A
C135   C138    1.454   .     S
C135   O162    1.277   .     A
C135   O164    1.276   .     A
C136   O165    1.284   .     A
C136   O163    1.284   .     A
C136   C137    1.474   .     S
C137   C140    1.397   .     A
C139   C142    1.411   .     A
C139   H155    1.079   .     S
C140   H157    1.076   .     S
C140   C141    1.411   .     A
C141   C142    1.422   .     A
C141   C143    1.422   .     A
C142   C677    1.411   .     S
C143   C675    1.419   .     S
C144   C145    1.423   .     A
C144   C674    1.419   1_554 S
C145   C146    1.407   .     A
C145   Cl149   1.775   .     S
C146   I159    2.150   .     S
C146   C673    1.411   1_554 S
Cl148  C11     1.771   1_655 S
H150   C485    1.088   1_545 S
H151   C309    1.086   .     S
O161   Zn177   1.936   .     S
O161   Zn174   1.952   .     S
O161   Zn175   1.947   .     S
O161   Zn176   1.932   .     S
O162   Zn175   1.922   .     S
O163   Zn177   1.930   .     S
O164   Zn176   1.929   .     S
O165   Zn174   1.922   .     S
O166   Zn174   1.928   .     S
O167   Zn177   1.927   .     S
O168   Zn175   1.937   .     S
O169   Zn176   1.945   .     S
O170   Zn177   1.943   .     S
O171   Zn174   1.935   .     S
O172   Zn175   1.931   .     S
O173   Zn176   1.929   .     S
C178   O227    1.270   .     A
C178   O229    1.265   .     A
C178   C188    1.428   .     S
C179   C180    1.386   .     A
C179   C202    1.415   .     A
C179   H217    1.077   .     S
C180   H213    1.082   .     S
C180   C713    1.395   .     S
C181   O230    1.270   .     A
C181   O228    1.283   .     A
C181   C187    1.459   .     S
C182   C183    1.423   .     A
C182   C184    1.415   .     A
C182   C711    1.395   1_554 S
C183   C186    1.407   .     A
C183   C203    1.428   .     A
C184   Cl206   1.764   .     S
C184   C185    1.393   .     A
C185   C197    1.393   .     A
C185   H212    1.084   .     S
C186   C197    1.391   .     A
C186   H211    1.080   .     S
C187   C247    1.352   .     S
C187   I278    2.140   .     S
C188   C305    1.352   1_455 S
C188   Cl325   1.771   1_455 S
C189   C196    1.396   .     A
C189   H215    1.083   .     S
C189   C198    1.393   .     A
C190   C193    1.451   .     S
C190   C368    1.332   .     S
C190   H386    1.088   .     S
C191   C192    1.435   .     S
C192   O231    1.276   .     A
C192   O225    1.277   .     A
C193   O232    1.272   .     A
C193   O226    1.272   .     A
C194   C197    1.454   .     S
C194   O221    1.277   .     A
C194   O223    1.276   .     A
C195   O224    1.284   .     A
C195   O222    1.284   .     A
C195   C196    1.474   .     S
C196   C199    1.397   .     A
C198   C201    1.411   .     A
C198   H214    1.079   .     S
C199   H216    1.076   .     S
C199   C200    1.411   .     A
C200   C201    1.422   .     A
C200   C202    1.422   .     A
C201   C736    1.411   .     S
C202   C734    1.419   .     S
C203   C204    1.423   .     A
C203   C733    1.419   1_554 S
C204   C205    1.407   .     A
C204   Cl208   1.775   .     S
C205   I218    2.150   .     S
C205   C732    1.411   1_554 S
Cl207  C247    1.771   .     S
H210   C368    1.086   .     S
I219   C305    2.140   1_455 S
O220   Zn236   1.936   .     S
O220   Zn233   1.952   .     S
O220   Zn234   1.947   .     S
O220   Zn235   1.932   .     S
O221   Zn234   1.922   .     S
O222   Zn236   1.930   .     S
O223   Zn235   1.929   .     S
O224   Zn233   1.922   .     S
O225   Zn233   1.928   .     S
O226   Zn236   1.927   .     S
O227   Zn234   1.937   .     S
O228   Zn235   1.945   .     S
O229   Zn236   1.943   .     S
O230   Zn233   1.935   .     S
O231   Zn234   1.931   .     S
O232   Zn235   1.929   .     S
C237   O286    1.270   .     A
C237   O288    1.265   .     A
C237   C247    1.428   .     S
C238   C239    1.386   .     A
C238   C261    1.415   .     A
C238   H276    1.077   .     S
C239   H272    1.082   .     S
C239   C772    1.395   .     S
C240   O289    1.270   .     A
C240   O287    1.283   .     A
C240   C246    1.459   .     S
C241   C242    1.423   .     A
C241   C243    1.415   .     A
C241   C770    1.395   1_554 S
C242   C245    1.407   .     A
C242   C262    1.428   .     A
C243   Cl265   1.764   .     S
C243   C244    1.393   .     A
C244   C256    1.393   .     A
C244   H271    1.084   .     S
C245   C256    1.391   .     A
C245   H270    1.080   .     S
C246   C306    1.352   .     S
C246   I337    2.140   .     S
C248   C255    1.396   .     A
C248   H274    1.083   .     S
C248   C257    1.393   .     A
C249   C252    1.451   .     S
C249   C427    1.332   .     S
C249   H445    1.088   .     S
C250   C251    1.435   .     S
C251   O290    1.276   .     A
C251   O284    1.277   .     A
C252   O291    1.272   .     A
C252   O285    1.272   .     A
C253   C256    1.454   .     S
C253   O280    1.277   .     A
C253   O282    1.276   .     A
C254   O283    1.284   .     A
C254   O281    1.284   .     A
C254   C255    1.474   .     S
C255   C258    1.397   .     A
C257   C260    1.411   .     A
C257   H273    1.079   .     S
C258   H275    1.076   .     S
C258   C259    1.411   .     A
C259   C260    1.422   .     A
C259   C261    1.422   .     A
C260   C795    1.411   .     S
C261   C793    1.419   .     S
C262   C263    1.423   .     A
C262   C792    1.419   1_554 S
C263   C264    1.407   .     A
C263   Cl267   1.775   .     S
C264   I277    2.150   .     S
C264   C791    1.411   1_554 S
Cl266  C306    1.771   .     S
H269   C427    1.086   .     S
O279   Zn295   1.936   .     S
O279   Zn292   1.952   .     S
O279   Zn293   1.947   .     S
O279   Zn294   1.932   .     S
O280   Zn293   1.922   .     S
O281   Zn295   1.930   .     S
O282   Zn294   1.929   .     S
O283   Zn292   1.922   .     S
O284   Zn292   1.928   .     S
O285   Zn295   1.927   .     S
O286   Zn293   1.937   .     S
O287   Zn294   1.945   .     S
O288   Zn295   1.943   .     S
O289   Zn292   1.935   .     S
O290   Zn293   1.931   .     S
O291   Zn294   1.929   .     S
C296   O345    1.270   .     A
C296   O347    1.265   .     A
C296   C306    1.428   .     S
C297   C298    1.386   .     A
C297   C320    1.415   .     A
C297   H335    1.077   .     S
C298   H331    1.082   .     S
C298   C831    1.395   .     S
C299   O348    1.270   .     A
C299   O346    1.283   .     A
C299   C305    1.459   .     S
C300   C301    1.423   .     A
C300   C302    1.415   .     A
C300   C829    1.395   1_554 S
C301   C304    1.407   .     A
C301   C321    1.428   .     A
C302   Cl324   1.764   .     S
C302   C303    1.393   .     A
C303   C315    1.393   .     A
C303   H330    1.084   .     S
C304   C315    1.391   .     A
C304   H329    1.080   .     S
C305   C188    1.352   1_655 S
C305   I219    2.140   1_655 S
C307   C314    1.396   .     A
C307   H333    1.083   .     S
C307   C316    1.393   .     A
C308   C311    1.451   .     S
C308   C486    1.332   .     S
C308   H504    1.088   .     S
C309   C310    1.435   .     S
C310   O349    1.276   .     A
C310   O343    1.277   .     A
C311   O350    1.272   .     A
C311   O344    1.272   .     A
C312   C315    1.454   .     S
C312   O339    1.277   .     A
C312   O341    1.276   .     A
C313   O342    1.284   .     A
C313   O340    1.284   .     A
C313   C314    1.474   .     S
C314   C317    1.397   .     A
C316   C319    1.411   .     A
C316   H332    1.079   .     S
C317   H334    1.076   .     S
C317   C318    1.411   .     A
C318   C319    1.422   .     A
C318   C320    1.422   .     A
C319   C854    1.411   .     S
C320   C852    1.419   .     S
C321   C322    1.423   .     A
C321   C851    1.419   1_554 S
C322   C323    1.407   .     A
C322   Cl326   1.775   .     S
C323   I336    2.150   .     S
C323   C850    1.411   1_554 S
Cl325  C188    1.771   1_655 S
H328   C486    1.086   .     S
O338   Zn354   1.936   .     S
O338   Zn351   1.952   .     S
O338   Zn352   1.947   .     S
O338   Zn353   1.932   .     S
O339   Zn352   1.922   .     S
O340   Zn354   1.930   .     S
O341   Zn353   1.929   .     S
O342   Zn351   1.922   .     S
O343   Zn351   1.928   .     S
O344   Zn354   1.927   .     S
O345   Zn352   1.937   .     S
O346   Zn353   1.945   .     S
O347   Zn354   1.943   .     S
O348   Zn351   1.935   .     S
O349   Zn352   1.931   .     S
O350   Zn353   1.929   .     S
C355   O404    1.270   .     A
C355   O406    1.265   .     A
C355   C365    1.428   .     S
C356   C357    1.386   .     A
C356   C379    1.415   .     A
C356   H394    1.077   .     S
C357   H390    1.082   .     S
C357   C890    1.395   .     S
C358   O407    1.270   .     A
C358   O405    1.283   .     A
C358   C364    1.459   .     S
C359   C360    1.423   .     A
C359   C361    1.415   .     A
C359   C888    1.395   1_554 S
C360   C363    1.407   .     A
C360   C380    1.428   .     A
C361   Cl383   1.764   .     S
C361   C362    1.393   .     A
C362   C374    1.393   .     A
C362   H389    1.084   .     S
C363   C374    1.391   .     A
C363   H388    1.080   .     S
C364   C424    1.352   .     S
C364   I455    2.140   .     S
C365   C482    1.352   1_455 S
C365   Cl502   1.771   1_455 S
C366   C373    1.396   .     A
C366   H392    1.083   .     S
C366   C375    1.393   .     A
C367   C370    1.451   .     S
C367   C14     1.332   1_565 S
C367   H32     1.088   1_565 S
C368   C369    1.435   .     S
C369   O408    1.276   .     A
C369   O402    1.277   .     A
C370   O409    1.272   .     A
C370   O403    1.272   .     A
C371   C374    1.454   .     S
C371   O398    1.277   .     A
C371   O400    1.276   .     A
C372   O401    1.284   .     A
C372   O399    1.284   .     A
C372   C373    1.474   .     S
C373   C376    1.397   .     A
C375   C378    1.411   .     A
C375   H391    1.079   .     S
C376   H393    1.076   .     S
C376   C377    1.411   .     A
C377   C378    1.422   .     A
C377   C379    1.422   .     A
C378   C913    1.411   .     S
C379   C911    1.419   .     S
C380   C381    1.423   .     A
C380   C910    1.419   1_554 S
C381   C382    1.407   .     A
C381   Cl385   1.775   .     S
C382   I395    2.150   .     S
C382   C909    1.411   1_554 S
Cl384  C424    1.771   .     S
H387   C14     1.086   1_565 S
I396   C482    2.140   1_455 S
O397   Zn413   1.936   .     S
O397   Zn410   1.952   .     S
O397   Zn411   1.947   .     S
O397   Zn412   1.932   .     S
O398   Zn411   1.922   .     S
O399   Zn413   1.930   .     S
O400   Zn412   1.929   .     S
O401   Zn410   1.922   .     S
O402   Zn410   1.928   .     S
O403   Zn413   1.927   .     S
O404   Zn411   1.937   .     S
O405   Zn412   1.945   .     S
O406   Zn413   1.943   .     S
O407   Zn410   1.935   .     S
O408   Zn411   1.931   .     S
O409   Zn412   1.929   .     S
C414   O463    1.270   .     A
C414   O465    1.265   .     A
C414   C424    1.428   .     S
C415   C416    1.386   .     A
C415   C438    1.415   .     A
C415   H453    1.077   .     S
C416   H449    1.082   .     S
C416   C949    1.395   .     S
C417   O466    1.270   .     A
C417   O464    1.283   .     A
C417   C423    1.459   .     S
C418   C419    1.423   .     A
C418   C420    1.415   .     A
C418   C947    1.395   1_554 S
C419   C422    1.407   .     A
C419   C439    1.428   .     A
C420   Cl442   1.764   .     S
C420   C421    1.393   .     A
C421   C433    1.393   .     A
C421   H448    1.084   .     S
C422   C433    1.391   .     A
C422   H447    1.080   .     S
C423   C483    1.352   .     S
C423   I514    2.140   .     S
C425   C432    1.396   .     A
C425   H451    1.083   .     S
C425   C434    1.393   .     A
C426   C429    1.451   .     S
C426   C73     1.332   1_565 S
C426   H91     1.088   1_565 S
C427   C428    1.435   .     S
C428   O467    1.276   .     A
C428   O461    1.277   .     A
C429   O468    1.272   .     A
C429   O462    1.272   .     A
C430   C433    1.454   .     S
C430   O457    1.277   .     A
C430   O459    1.276   .     A
C431   O460    1.284   .     A
C431   O458    1.284   .     A
C431   C432    1.474   .     S
C432   C435    1.397   .     A
C434   C437    1.411   .     A
C434   H450    1.079   .     S
C435   H452    1.076   .     S
C435   C436    1.411   .     A
C436   C437    1.422   .     A
C436   C438    1.422   .     A
C437   C972    1.411   .     S
C438   C970    1.419   .     S
C439   C440    1.423   .     A
C439   C969    1.419   1_554 S
C440   C441    1.407   .     A
C440   Cl444   1.775   .     S
C441   I454    2.150   .     S
C441   C968    1.411   1_554 S
Cl443  C483    1.771   .     S
H446   C73     1.086   1_565 S
O456   Zn472   1.936   .     S
O456   Zn469   1.952   .     S
O456   Zn470   1.947   .     S
O456   Zn471   1.932   .     S
O457   Zn470   1.922   .     S
O458   Zn472   1.930   .     S
O459   Zn471   1.929   .     S
O460   Zn469   1.922   .     S
O461   Zn469   1.928   .     S
O462   Zn472   1.927   .     S
O463   Zn470   1.937   .     S
O464   Zn471   1.945   .     S
O465   Zn472   1.943   .     S
O466   Zn469   1.935   .     S
O467   Zn470   1.931   .     S
O468   Zn471   1.929   .     S
C473   O522    1.270   .     A
C473   O524    1.265   .     A
C473   C483    1.428   .     S
C474   C475    1.386   .     A
C474   C497    1.415   .     A
C474   H512    1.077   .     S
C475   H508    1.082   .     S
C475   C1008   1.395   .     S
C476   O525    1.270   .     A
C476   O523    1.283   .     A
C476   C482    1.459   .     S
C477   C478    1.423   .     A
C477   C479    1.415   .     A
C477   C1006   1.395   1_554 S
C478   C481    1.407   .     A
C478   C498    1.428   .     A
C479   Cl501   1.764   .     S
C479   C480    1.393   .     A
C480   C492    1.393   .     A
C480   H507    1.084   .     S
C481   C492    1.391   .     A
C481   H506    1.080   .     S
C482   C365    1.352   1_655 S
C482   I396    2.140   1_655 S
C484   C491    1.396   .     A
C484   H510    1.083   .     S
C484   C493    1.393   .     A
C485   C488    1.451   .     S
C485   C132    1.332   1_565 S
C485   H150    1.088   1_565 S
C486   C487    1.435   .     S
C487   O526    1.276   .     A
C487   O520    1.277   .     A
C488   O527    1.272   .     A
C488   O521    1.272   .     A
C489   C492    1.454   .     S
C489   O516    1.277   .     A
C489   O518    1.276   .     A
C490   O519    1.284   .     A
C490   O517    1.284   .     A
C490   C491    1.474   .     S
C491   C494    1.397   .     A
C493   C496    1.411   .     A
C493   H509    1.079   .     S
C494   H511    1.076   .     S
C494   C495    1.411   .     A
C495   C496    1.422   .     A
C495   C497    1.422   .     A
C496   C1031   1.411   .     S
C497   C1029   1.419   .     S
C498   C499    1.423   .     A
C498   C1028   1.419   1_554 S
C499   C500    1.407   .     A
C499   Cl503   1.775   .     S
C500   I513    2.150   .     S
C500   C1027   1.411   1_554 S
Cl502  C365    1.771   1_655 S
H505   C132    1.086   1_565 S
O515   Zn531   1.936   .     S
O515   Zn528   1.952   .     S
O515   Zn529   1.947   .     S
O515   Zn530   1.932   .     S
O516   Zn529   1.922   .     S
O517   Zn531   1.930   .     S
O518   Zn530   1.929   .     S
O519   Zn528   1.922   .     S
O520   Zn528   1.928   .     S
O521   Zn531   1.927   .     S
O522   Zn529   1.937   .     S
O523   Zn530   1.945   .     S
O524   Zn531   1.943   .     S
O525   Zn528   1.935   .     S
O526   Zn529   1.931   .     S
O527   Zn530   1.929   .     S
C532   O581    1.270   .     A
C532   O583    1.265   .     A
C532   C542    1.428   .     S
C533   C534    1.386   .     A
C533   C556    1.415   .     A
C533   H571    1.077   .     S
C534   H567    1.082   .     S
C534   C5      1.395   1_556 S
C535   O584    1.270   .     A
C535   O582    1.283   .     A
C535   C541    1.459   .     S
C536   C537    1.423   .     A
C536   C538    1.415   .     A
C537   C540    1.407   .     A
C537   C557    1.428   .     A
C538   Cl560   1.764   .     S
C538   C539    1.393   .     A
C539   C551    1.393   .     A
C539   H566    1.084   .     S
C540   C551    1.391   .     A
C540   H565    1.080   .     S
C541   C601    1.352   .     S
C541   I632    2.140   .     S
C542   C659    1.352   1_455 S
C542   Cl679   1.771   1_455 S
C543   C550    1.396   .     A
C543   H569    1.083   .     S
C543   C552    1.393   .     A
C544   C547    1.451   .     S
C544   C722    1.332   .     S
C544   H740    1.088   .     S
C545   C546    1.435   .     S
C545   C898    1.332   1_545 S
C545   H918    1.086   1_545 S
C546   O585    1.276   .     A
C546   O579    1.277   .     A
C547   O586    1.272   .     A
C547   O580    1.272   .     A
C548   C551    1.454   .     S
C548   O575    1.277   .     A
C548   O577    1.276   .     A
C549   O578    1.284   .     A
C549   O576    1.284   .     A
C549   C550    1.474   .     S
C550   C553    1.397   .     A
C552   C555    1.411   .     A
C552   H568    1.079   .     S
C553   H570    1.076   .     S
C553   C554    1.411   .     A
C554   C555    1.422   .     A
C554   C556    1.422   .     A
C555   C28     1.411   1_556 S
C556   C26     1.419   1_556 S
C557   C558    1.423   .     A
C558   C559    1.407   .     A
C558   Cl562   1.775   .     S
C559   I572    2.150   .     S
Cl561  C601    1.771   .     S
H563   C898    1.088   1_545 S
H564   C722    1.086   .     S
I573   C659    2.140   1_455 S
O574   Zn590   1.936   .     S
O574   Zn587   1.952   .     S
O574   Zn588   1.947   .     S
O574   Zn589   1.932   .     S
O575   Zn588   1.922   .     S
O576   Zn590   1.930   .     S
O577   Zn589   1.929   .     S
O578   Zn587   1.922   .     S
O579   Zn587   1.928   .     S
O580   Zn590   1.927   .     S
O581   Zn588   1.937   .     S
O582   Zn589   1.945   .     S
O583   Zn590   1.943   .     S
O584   Zn587   1.935   .     S
O585   Zn588   1.931   .     S
O586   Zn589   1.929   .     S
C591   O640    1.270   .     A
C591   O642    1.265   .     A
C591   C601    1.428   .     S
C592   C593    1.386   .     A
C592   C615    1.415   .     A
C592   H630    1.077   .     S
C593   H626    1.082   .     S
C593   C64     1.395   1_556 S
C594   O643    1.270   .     A
C594   O641    1.283   .     A
C594   C600    1.459   .     S
C595   C596    1.423   .     A
C595   C597    1.415   .     A
C596   C599    1.407   .     A
C596   C616    1.428   .     A
C597   Cl619   1.764   .     S
C597   C598    1.393   .     A
C598   C610    1.393   .     A
C598   H625    1.084   .     S
C599   C610    1.391   .     A
C599   H624    1.080   .     S
C600   C660    1.352   .     S
C600   I691    2.140   .     S
C602   C609    1.396   .     A
C602   H628    1.083   .     S
C602   C611    1.393   .     A
C603   C606    1.451   .     S
C603   C781    1.332   .     S
C603   H799    1.088   .     S
C604   C605    1.435   .     S
C604   C957    1.332   1_545 S
C604   H977    1.086   1_545 S
C605   O644    1.276   .     A
C605   O638    1.277   .     A
C606   O645    1.272   .     A
C606   O639    1.272   .     A
C607   C610    1.454   .     S
C607   O634    1.277   .     A
C607   O636    1.276   .     A
C608   O637    1.284   .     A
C608   O635    1.284   .     A
C608   C609    1.474   .     S
C609   C612    1.397   .     A
C611   C614    1.411   .     A
C611   H627    1.079   .     S
C612   H629    1.076   .     S
C612   C613    1.411   .     A
C613   C614    1.422   .     A
C613   C615    1.422   .     A
C614   C87     1.411   1_556 S
C615   C85     1.419   1_556 S
C616   C617    1.423   .     A
C617   C618    1.407   .     A
C617   Cl621   1.775   .     S
C618   I631    2.150   .     S
Cl620  C660    1.771   .     S
H622   C957    1.088   1_545 S
H623   C781    1.086   .     S
O633   Zn649   1.936   .     S
O633   Zn646   1.952   .     S
O633   Zn647   1.947   .     S
O633   Zn648   1.932   .     S
O634   Zn647   1.922   .     S
O635   Zn649   1.930   .     S
O636   Zn648   1.929   .     S
O637   Zn646   1.922   .     S
O638   Zn646   1.928   .     S
O639   Zn649   1.927   .     S
O640   Zn647   1.937   .     S
O641   Zn648   1.945   .     S
O642   Zn649   1.943   .     S
O643   Zn646   1.935   .     S
O644   Zn647   1.931   .     S
O645   Zn648   1.929   .     S
C650   O699    1.270   .     A
C650   O701    1.265   .     A
C650   C660    1.428   .     S
C651   C652    1.386   .     A
C651   C674    1.415   .     A
C651   H689    1.077   .     S
C652   H685    1.082   .     S
C652   C123    1.395   1_556 S
C653   O702    1.270   .     A
C653   O700    1.283   .     A
C653   C659    1.459   .     S
C654   C655    1.423   .     A
C654   C656    1.415   .     A
C655   C658    1.407   .     A
C655   C675    1.428   .     A
C656   Cl678   1.764   .     S
C656   C657    1.393   .     A
C657   C669    1.393   .     A
C657   H684    1.084   .     S
C658   C669    1.391   .     A
C658   H683    1.080   .     S
C659   C542    1.352   1_655 S
C659   I573    2.140   1_655 S
C661   C668    1.396   .     A
C661   H687    1.083   .     S
C661   C670    1.393   .     A
C662   C665    1.451   .     S
C662   C840    1.332   .     S
C662   H858    1.088   .     S
C663   C664    1.435   .     S
C663   C1016   1.332   1_545 S
C663   H1036   1.086   1_545 S
C664   O703    1.276   .     A
C664   O697    1.277   .     A
C665   O704    1.272   .     A
C665   O698    1.272   .     A
C666   C669    1.454   .     S
C666   O693    1.277   .     A
C666   O695    1.276   .     A
C667   O696    1.284   .     A
C667   O694    1.284   .     A
C667   C668    1.474   .     S
C668   C671    1.397   .     A
C670   C673    1.411   .     A
C670   H686    1.079   .     S
C671   H688    1.076   .     S
C671   C672    1.411   .     A
C672   C673    1.422   .     A
C672   C674    1.422   .     A
C673   C146    1.411   1_556 S
C674   C144    1.419   1_556 S
C675   C676    1.423   .     A
C676   C677    1.407   .     A
C676   Cl680   1.775   .     S
C677   I690    2.150   .     S
Cl679  C542    1.771   1_655 S
H681   C1016   1.088   1_545 S
H682   C840    1.086   .     S
O692   Zn708   1.936   .     S
O692   Zn705   1.952   .     S
O692   Zn706   1.947   .     S
O692   Zn707   1.932   .     S
O693   Zn706   1.922   .     S
O694   Zn708   1.930   .     S
O695   Zn707   1.929   .     S
O696   Zn705   1.922   .     S
O697   Zn705   1.928   .     S
O698   Zn708   1.927   .     S
O699   Zn706   1.937   .     S
O700   Zn707   1.945   .     S
O701   Zn708   1.943   .     S
O702   Zn705   1.935   .     S
O703   Zn706   1.931   .     S
O704   Zn707   1.929   .     S
C709   O758    1.270   .     A
C709   O760    1.265   .     A
C709   C719    1.428   .     S
C710   C711    1.386   .     A
C710   C733    1.415   .     A
C710   H748    1.077   .     S
C711   H744    1.082   .     S
C711   C182    1.395   1_556 S
C712   O761    1.270   .     A
C712   O759    1.283   .     A
C712   C718    1.459   .     S
C713   C714    1.423   .     A
C713   C715    1.415   .     A
C714   C717    1.407   .     A
C714   C734    1.428   .     A
C715   Cl737   1.764   .     S
C715   C716    1.393   .     A
C716   C728    1.393   .     A
C716   H743    1.084   .     S
C717   C728    1.391   .     A
C717   H742    1.080   .     S
C718   C778    1.352   .     S
C718   I809    2.140   .     S
C719   C836    1.352   1_455 S
C719   Cl856   1.771   1_455 S
C720   C727    1.396   .     A
C720   H746    1.083   .     S
C720   C729    1.393   .     A
C721   C724    1.451   .     S
C721   C899    1.332   .     S
C721   H917    1.088   .     S
C722   C723    1.435   .     S
C723   O762    1.276   .     A
C723   O756    1.277   .     A
C724   O763    1.272   .     A
C724   O757    1.272   .     A
C725   C728    1.454   .     S
C725   O752    1.277   .     A
C725   O754    1.276   .     A
C726   O755    1.284   .     A
C726   O753    1.284   .     A
C726   C727    1.474   .     S
C727   C730    1.397   .     A
C729   C732    1.411   .     A
C729   H745    1.079   .     S
C730   H747    1.076   .     S
C730   C731    1.411   .     A
C731   C732    1.422   .     A
C731   C733    1.422   .     A
C732   C205    1.411   1_556 S
C733   C203    1.419   1_556 S
C734   C735    1.423   .     A
C735   C736    1.407   .     A
C735   Cl739   1.775   .     S
C736   I749    2.150   .     S
Cl738  C778    1.771   .     S
H741   C899    1.086   .     S
I750   C836    2.140   1_455 S
O751   Zn767   1.936   .     S
O751   Zn764   1.952   .     S
O751   Zn765   1.947   .     S
O751   Zn766   1.932   .     S
O752   Zn765   1.922   .     S
O753   Zn767   1.930   .     S
O754   Zn766   1.929   .     S
O755   Zn764   1.922   .     S
O756   Zn764   1.928   .     S
O757   Zn767   1.927   .     S
O758   Zn765   1.937   .     S
O759   Zn766   1.945   .     S
O760   Zn767   1.943   .     S
O761   Zn764   1.935   .     S
O762   Zn765   1.931   .     S
O763   Zn766   1.929   .     S
C768   O817    1.270   .     A
C768   O819    1.265   .     A
C768   C778    1.428   .     S
C769   C770    1.386   .     A
C769   C792    1.415   .     A
C769   H807    1.077   .     S
C770   H803    1.082   .     S
C770   C241    1.395   1_556 S
C771   O820    1.270   .     A
C771   O818    1.283   .     A
C771   C777    1.459   .     S
C772   C773    1.423   .     A
C772   C774    1.415   .     A
C773   C776    1.407   .     A
C773   C793    1.428   .     A
C774   Cl796   1.764   .     S
C774   C775    1.393   .     A
C775   C787    1.393   .     A
C775   H802    1.084   .     S
C776   C787    1.391   .     A
C776   H801    1.080   .     S
C777   C837    1.352   .     S
C777   I868    2.140   .     S
C779   C786    1.396   .     A
C779   H805    1.083   .     S
C779   C788    1.393   .     A
C780   C783    1.451   .     S
C780   C958    1.332   .     S
C780   H976    1.088   .     S
C781   C782    1.435   .     S
C782   O821    1.276   .     A
C782   O815    1.277   .     A
C783   O822    1.272   .     A
C783   O816    1.272   .     A
C784   C787    1.454   .     S
C784   O811    1.277   .     A
C784   O813    1.276   .     A
C785   O814    1.284   .     A
C785   O812    1.284   .     A
C785   C786    1.474   .     S
C786   C789    1.397   .     A
C788   C791    1.411   .     A
C788   H804    1.079   .     S
C789   H806    1.076   .     S
C789   C790    1.411   .     A
C790   C791    1.422   .     A
C790   C792    1.422   .     A
C791   C264    1.411   1_556 S
C792   C262    1.419   1_556 S
C793   C794    1.423   .     A
C794   C795    1.407   .     A
C794   Cl798   1.775   .     S
C795   I808    2.150   .     S
Cl797  C837    1.771   .     S
H800   C958    1.086   .     S
O810   Zn826   1.936   .     S
O810   Zn823   1.952   .     S
O810   Zn824   1.947   .     S
O810   Zn825   1.932   .     S
O811   Zn824   1.922   .     S
O812   Zn826   1.930   .     S
O813   Zn825   1.929   .     S
O814   Zn823   1.922   .     S
O815   Zn823   1.928   .     S
O816   Zn826   1.927   .     S
O817   Zn824   1.937   .     S
O818   Zn825   1.945   .     S
O819   Zn826   1.943   .     S
O820   Zn823   1.935   .     S
O821   Zn824   1.931   .     S
O822   Zn825   1.929   .     S
C827   O876    1.270   .     A
C827   O878    1.265   .     A
C827   C837    1.428   .     S
C828   C829    1.386   .     A
C828   C851    1.415   .     A
C828   H866    1.077   .     S
C829   H862    1.082   .     S
C829   C300    1.395   1_556 S
C830   O879    1.270   .     A
C830   O877    1.283   .     A
C830   C836    1.459   .     S
C831   C832    1.423   .     A
C831   C833    1.415   .     A
C832   C835    1.407   .     A
C832   C852    1.428   .     A
C833   Cl855   1.764   .     S
C833   C834    1.393   .     A
C834   C846    1.393   .     A
C834   H861    1.084   .     S
C835   C846    1.391   .     A
C835   H860    1.080   .     S
C836   C719    1.352   1_655 S
C836   I750    2.140   1_655 S
C838   C845    1.396   .     A
C838   H864    1.083   .     S
C838   C847    1.393   .     A
C839   C842    1.451   .     S
C839   C1017   1.332   .     S
C839   H1035   1.088   .     S
C840   C841    1.435   .     S
C841   O880    1.276   .     A
C841   O874    1.277   .     A
C842   O881    1.272   .     A
C842   O875    1.272   .     A
C843   C846    1.454   .     S
C843   O870    1.277   .     A
C843   O872    1.276   .     A
C844   O873    1.284   .     A
C844   O871    1.284   .     A
C844   C845    1.474   .     S
C845   C848    1.397   .     A
C847   C850    1.411   .     A
C847   H863    1.079   .     S
C848   H865    1.076   .     S
C848   C849    1.411   .     A
C849   C850    1.422   .     A
C849   C851    1.422   .     A
C850   C323    1.411   1_556 S
C851   C321    1.419   1_556 S
C852   C853    1.423   .     A
C853   C854    1.407   .     A
C853   Cl857   1.775   .     S
C854   I867    2.150   .     S
Cl856  C719    1.771   1_655 S
H859   C1017   1.086   .     S
O869   Zn885   1.936   .     S
O869   Zn882   1.952   .     S
O869   Zn883   1.947   .     S
O869   Zn884   1.932   .     S
O870   Zn883   1.922   .     S
O871   Zn885   1.930   .     S
O872   Zn884   1.929   .     S
O873   Zn882   1.922   .     S
O874   Zn882   1.928   .     S
O875   Zn885   1.927   .     S
O876   Zn883   1.937   .     S
O877   Zn884   1.945   .     S
O878   Zn885   1.943   .     S
O879   Zn882   1.935   .     S
O880   Zn883   1.931   .     S
O881   Zn884   1.929   .     S
C886   O935    1.270   .     A
C886   O937    1.265   .     A
C886   C896    1.428   .     S
C887   C888    1.386   .     A
C887   C910    1.415   .     A
C887   H925    1.077   .     S
C888   H921    1.082   .     S
C888   C359    1.395   1_556 S
C889   O938    1.270   .     A
C889   O936    1.283   .     A
C889   C895    1.459   .     S
C890   C891    1.423   .     A
C890   C892    1.415   .     A
C891   C894    1.407   .     A
C891   C911    1.428   .     A
C892   Cl914   1.764   .     S
C892   C893    1.393   .     A
C893   C905    1.393   .     A
C893   H920    1.084   .     S
C894   C905    1.391   .     A
C894   H919    1.080   .     S
C895   C955    1.352   .     S
C895   I986    2.140   .     S
C896   C1013   1.352   1_455 S
C896   Cl1033  1.771   1_455 S
C897   C904    1.396   .     A
C897   H923    1.083   .     S
C897   C906    1.393   .     A
C898   C901    1.451   .     S
C898   C545    1.332   1_565 S
C898   H563    1.088   1_565 S
C899   C900    1.435   .     S
C900   O939    1.276   .     A
C900   O933    1.277   .     A
C901   O940    1.272   .     A
C901   O934    1.272   .     A
C902   C905    1.454   .     S
C902   O929    1.277   .     A
C902   O931    1.276   .     A
C903   O932    1.284   .     A
C903   O930    1.284   .     A
C903   C904    1.474   .     S
C904   C907    1.397   .     A
C906   C909    1.411   .     A
C906   H922    1.079   .     S
C907   H924    1.076   .     S
C907   C908    1.411   .     A
C908   C909    1.422   .     A
C908   C910    1.422   .     A
C909   C382    1.411   1_556 S
C910   C380    1.419   1_556 S
C911   C912    1.423   .     A
C912   C913    1.407   .     A
C912   Cl916   1.775   .     S
C913   I926    2.150   .     S
Cl915  C955    1.771   .     S
H918   C545    1.086   1_565 S
I927   C1013   2.140   1_455 S
O928   Zn944   1.936   .     S
O928   Zn941   1.952   .     S
O928   Zn942   1.947   .     S
O928   Zn943   1.932   .     S
O929   Zn942   1.922   .     S
O930   Zn944   1.930   .     S
O931   Zn943   1.929   .     S
O932   Zn941   1.922   .     S
O933   Zn941   1.928   .     S
O934   Zn944   1.927   .     S
O935   Zn942   1.937   .     S
O936   Zn943   1.945   .     S
O937   Zn944   1.943   .     S
O938   Zn941   1.935   .     S
O939   Zn942   1.931   .     S
O940   Zn943   1.929   .     S
C945   O994    1.270   .     A
C945   O996    1.265   .     A
C945   C955    1.428   .     S
C946   C947    1.386   .     A
C946   C969    1.415   .     A
C946   H984    1.077   .     S
C947   H980    1.082   .     S
C947   C418    1.395   1_556 S
C948   O997    1.270   .     A
C948   O995    1.283   .     A
C948   C954    1.459   .     S
C949   C950    1.423   .     A
C949   C951    1.415   .     A
C950   C953    1.407   .     A
C950   C970    1.428   .     A
C951   Cl973   1.764   .     S
C951   C952    1.393   .     A
C952   C964    1.393   .     A
C952   H979    1.084   .     S
C953   C964    1.391   .     A
C953   H978    1.080   .     S
C954   C1014   1.352   .     S
C954   I1045   2.140   .     S
C956   C963    1.396   .     A
C956   H982    1.083   .     S
C956   C965    1.393   .     A
C957   C960    1.451   .     S
C957   C604    1.332   1_565 S
C957   H622    1.088   1_565 S
C958   C959    1.435   .     S
C959   O998    1.276   .     A
C959   O992    1.277   .     A
C960   O999    1.272   .     A
C960   O993    1.272   .     A
C961   C964    1.454   .     S
C961   O988    1.277   .     A
C961   O990    1.276   .     A
C962   O991    1.284   .     A
C962   O989    1.284   .     A
C962   C963    1.474   .     S
C963   C966    1.397   .     A
C965   C968    1.411   .     A
C965   H981    1.079   .     S
C966   H983    1.076   .     S
C966   C967    1.411   .     A
C967   C968    1.422   .     A
C967   C969    1.422   .     A
C968   C441    1.411   1_556 S
C969   C439    1.419   1_556 S
C970   C971    1.423   .     A
C971   C972    1.407   .     A
C971   Cl975   1.775   .     S
C972   I985    2.150   .     S
Cl974  C1014   1.771   .     S
H977   C604    1.086   1_565 S
O987   Zn1003  1.936   .     S
O987   Zn1000  1.952   .     S
O987   Zn1001  1.947   .     S
O987   Zn1002  1.932   .     S
O988   Zn1001  1.922   .     S
O989   Zn1003  1.930   .     S
O990   Zn1002  1.929   .     S
O991   Zn1000  1.922   .     S
O992   Zn1000  1.928   .     S
O993   Zn1003  1.927   .     S
O994   Zn1001  1.937   .     S
O995   Zn1002  1.945   .     S
O996   Zn1003  1.943   .     S
O997   Zn1000  1.935   .     S
O998   Zn1001  1.931   .     S
O999   Zn1002  1.929   .     S
C1004  O1053   1.270   .     A
C1004  O1055   1.265   .     A
C1004  C1014   1.428   .     S
C1005  C1006   1.386   .     A
C1005  C1028   1.415   .     A
C1005  H1043   1.077   .     S
C1006  H1039   1.082   .     S
C1006  C477    1.395   1_556 S
C1007  O1056   1.270   .     A
C1007  O1054   1.283   .     A
C1007  C1013   1.459   .     S
C1008  C1009   1.423   .     A
C1008  C1010   1.415   .     A
C1009  C1012   1.407   .     A
C1009  C1029   1.428   .     A
C1010  Cl1032  1.764   .     S
C1010  C1011   1.393   .     A
C1011  C1023   1.393   .     A
C1011  H1038   1.084   .     S
C1012  C1023   1.391   .     A
C1012  H1037   1.080   .     S
C1013  C896    1.352   1_655 S
C1013  I927    2.140   1_655 S
C1015  C1022   1.396   .     A
C1015  H1041   1.083   .     S
C1015  C1024   1.393   .     A
C1016  C1019   1.451   .     S
C1016  C663    1.332   1_565 S
C1016  H681    1.088   1_565 S
C1017  C1018   1.435   .     S
C1018  O1057   1.276   .     A
C1018  O1051   1.277   .     A
C1019  O1058   1.272   .     A
C1019  O1052   1.272   .     A
C1020  C1023   1.454   .     S
C1020  O1047   1.277   .     A
C1020  O1049   1.276   .     A
C1021  O1050   1.284   .     A
C1021  O1048   1.284   .     A
C1021  C1022   1.474   .     S
C1022  C1025   1.397   .     A
C1024  C1027   1.411   .     A
C1024  H1040   1.079   .     S
C1025  H1042   1.076   .     S
C1025  C1026   1.411   .     A
C1026  C1027   1.422   .     A
C1026  C1028   1.422   .     A
C1027  C500    1.411   1_556 S
C1028  C498    1.419   1_556 S
C1029  C1030   1.423   .     A
C1030  C1031   1.407   .     A
C1030  Cl1034  1.775   .     S
C1031  I1044   2.150   .     S
Cl1033 C896    1.771   1_655 S
H1036  C663    1.086   1_565 S
O1046  Zn1062  1.936   .     S
O1046  Zn1059  1.952   .     S
O1046  Zn1060  1.947   .     S
O1046  Zn1061  1.932   .     S
O1047  Zn1060  1.922   .     S
O1048  Zn1062  1.930   .     S
O1049  Zn1061  1.929   .     S
O1050  Zn1059  1.922   .     S
O1051  Zn1059  1.928   .     S
O1052  Zn1062  1.927   .     S
O1053  Zn1060  1.937   .     S
O1054  Zn1061  1.945   .     S
O1055  Zn1062  1.943   .     S
O1056  Zn1059  1.935   .     S
O1057  Zn1060  1.931   .     S
O1058  Zn1061  1.929   .     S
