data_str_m1_o10_o18_pcu_sym.198
_audit_creation_date              2020-01-03
_audit_creation_method            'Materials Studio'
_symmetry_space_group_name_H-M    'P1'
_symmetry_Int_Tables_number       1
_symmetry_cell_setting            triclinic
loop_
_symmetry_equiv_pos_as_xyz
  x,y,z
_cell_length_a                    32.5645
_cell_length_b                    32.5287
_cell_length_c                    35.6042
_cell_angle_alpha                 98.0702
_cell_angle_beta                  73.2244
_cell_angle_gamma                 98.5724
loop_
_atom_site_label
_atom_site_type_symbol
_atom_site_fract_x
_atom_site_fract_y
_atom_site_fract_z
_atom_site_U_iso_or_equiv
_atom_site_adp_type
_atom_site_occupancy
Zn1    Zn    0.19244   0.14090   0.28278   0.00000  Uiso   1.00
Zn2    Zn    0.13459   0.12378   0.22258   0.00000  Uiso   1.00
Zn3    Zn    0.21166   0.19664   0.21188   0.00000  Uiso   1.00
Zn4    Zn    0.12798   0.20535   0.28277   0.00000  Uiso   1.00
O5     O     0.16667   0.16667   0.25000   0.00000  Uiso   1.00
O6     O     0.06990   0.18960   0.27820   0.00000  Uiso   1.00
O7     O     0.25440   0.15277   0.26768   0.00000  Uiso   1.00
O8     O     0.13800   0.06903   0.23607   0.00000  Uiso   1.00
O9     O     0.20437   0.25527   0.21806   0.00000  Uiso   1.00
O10    O     0.15693   0.12393   0.16625   0.00000  Uiso   1.00
O11    O     0.12687   0.20646   0.33749   0.00000  Uiso   1.00
O12    O     0.21088   0.17493   0.15877   0.00000  Uiso   1.00
O13    O     0.17198   0.16135   0.33749   0.00000  Uiso   1.00
O14    O     0.17849   0.08101   0.27821   0.00000  Uiso   1.00
O15    O     0.14581   0.26136   0.26767   0.00000  Uiso   1.00
O16    O     0.07452   0.13251   0.23607   0.00000  Uiso   1.00
O17    O     0.26785   0.19179   0.21806   0.00000  Uiso   1.00
C18    C     0.05249   0.15985   0.25876   0.00000  Uiso   1.00
C19    C     0.28106   0.17355   0.24123   0.00000  Uiso   1.00
C20    C     0.15598   0.05608   0.25889   0.00000  Uiso   1.00
C21    C     0.17689   0.27767   0.24134   0.00000  Uiso   1.00
C22    C     0.18801   0.14543   0.14398   0.00000  Uiso   1.00
C23    C     0.14525   0.18742   0.35627   0.00000  Uiso   1.00
C24    C     0.13140   0.19055   0.39965   0.00000  Uiso   1.00
C25    C     0.19676   0.13655   0.10136   0.00000  Uiso   1.00
C26    C     0.07776   0.20487   0.46160   0.00000  Uiso   1.00
C27    C     0.09300   0.20695   0.42100   0.00000  Uiso   1.00
C28    C     0.15446   0.17257   0.41948   0.00000  Uiso   1.00
C29    C     0.13762   0.16648   0.45966   0.00000  Uiso   1.00
C30    C     0.09992   0.18506   0.48108   0.00000  Uiso   1.00
C31    C     0.15873   0.14480   0.47956   0.00000  Uiso   1.00
C32    C     0.14733   0.15023   0.02153   0.00000  Uiso   1.00
C33    C     0.10900   0.16832   0.04188   0.00000  Uiso   1.00
C34    C     0.08519   0.18435   0.02180   0.00000  Uiso   1.00
C35    C     0.19079   0.11809   0.45928   0.00000  Uiso   1.00
C36    C     0.21772   0.10648   0.47914   0.00000  Uiso   1.00
C37    C     0.21098   0.11655   0.01981   0.00000  Uiso   1.00
C38    C     0.17467   0.13753   0.04164   0.00000  Uiso   1.00
C39    C     0.23969   0.10578   0.03929   0.00000  Uiso   1.00
C40    C     0.23268   0.11684   0.07980   0.00000  Uiso   1.00
C41    C     0.16809   0.14674   0.08272   0.00000  Uiso   1.00
H42    H     0.05599   0.19788   0.03848   0.00000  Uiso   1.00
H43    H     0.14179   0.16313   0.10112   0.00000  Uiso   1.00
H44    H     0.25446   0.10864   0.09481   0.00000  Uiso   1.00
H45    H     0.24347   0.08839   0.46232   0.00000  Uiso   1.00
H46    H     0.04845   0.21847   0.47774   0.00000  Uiso   1.00
H47    H     0.07450   0.22091   0.40631   0.00000  Uiso   1.00
H48    H     0.18590   0.16390   0.40307   0.00000  Uiso   1.00
H49    H     0.09591   0.16988   0.07341   0.00000  Uiso   1.00
C50    C     0.32699   0.17624   0.23771   0.00000  Uiso   1.00
H51    H     0.01663   0.19365   0.21509   0.00000  Uiso   1.00
C52    C     0.00713   0.15734   0.26217   0.00000  Uiso   1.00
H53    H     0.31816   0.13982   0.28503   0.00000  Uiso   1.00
C54    C     0.18097   0.32217   0.23810   0.00000  Uiso   1.00
H55    H     0.20803   0.00282   0.21601   0.00000  Uiso   1.00
C56    C     0.15168   0.01205   0.26213   0.00000  Uiso   1.00
H57    H     0.12423   0.33215   0.28429   0.00000  Uiso   1.00
N58    N     0.27582   0.08335   0.01867   0.00000  Uiso   1.00
O59    O     0.31330   0.09549   0.02518   0.00000  Uiso   1.00
O60    O     0.26942   0.04650   0.00026   0.00000  Uiso   1.00
N61    N     0.19286   0.09789   0.42025   0.00000  Uiso   1.00
O62    O     0.15748   0.08231   0.41092   0.00000  Uiso   1.00
O63    O     0.22981   0.08985   0.39593   0.00000  Uiso   1.00
Zn64   Zn    0.52577   0.14090   0.28278   0.00000  Uiso   1.00
Zn65   Zn    0.46792   0.12378   0.22258   0.00000  Uiso   1.00
Zn66   Zn    0.54500   0.19664   0.21188   0.00000  Uiso   1.00
Zn67   Zn    0.46131   0.20535   0.28277   0.00000  Uiso   1.00
O68    O     0.50000   0.16667   0.25000   0.00000  Uiso   1.00
O69    O     0.40323   0.18960   0.27820   0.00000  Uiso   1.00
O70    O     0.58773   0.15277   0.26768   0.00000  Uiso   1.00
O71    O     0.47133   0.06903   0.23607   0.00000  Uiso   1.00
O72    O     0.53771   0.25527   0.21806   0.00000  Uiso   1.00
O73    O     0.49027   0.12393   0.16625   0.00000  Uiso   1.00
O74    O     0.46020   0.20646   0.33749   0.00000  Uiso   1.00
O75    O     0.54421   0.17493   0.15877   0.00000  Uiso   1.00
O76    O     0.50532   0.16135   0.33749   0.00000  Uiso   1.00
O77    O     0.51182   0.08101   0.27821   0.00000  Uiso   1.00
O78    O     0.47914   0.26136   0.26767   0.00000  Uiso   1.00
O79    O     0.40785   0.13251   0.23607   0.00000  Uiso   1.00
O80    O     0.60119   0.19179   0.21806   0.00000  Uiso   1.00
C81    C     0.38582   0.15985   0.25876   0.00000  Uiso   1.00
C82    C     0.61439   0.17355   0.24123   0.00000  Uiso   1.00
C83    C     0.48931   0.05608   0.25889   0.00000  Uiso   1.00
C84    C     0.51022   0.27767   0.24134   0.00000  Uiso   1.00
C85    C     0.52135   0.14543   0.14398   0.00000  Uiso   1.00
C86    C     0.47858   0.18742   0.35627   0.00000  Uiso   1.00
C87    C     0.46473   0.19055   0.39965   0.00000  Uiso   1.00
C88    C     0.53009   0.13655   0.10136   0.00000  Uiso   1.00
C89    C     0.41110   0.20487   0.46160   0.00000  Uiso   1.00
C90    C     0.42633   0.20695   0.42100   0.00000  Uiso   1.00
C91    C     0.48779   0.17257   0.41948   0.00000  Uiso   1.00
C92    C     0.47096   0.16648   0.45966   0.00000  Uiso   1.00
C93    C     0.43325   0.18506   0.48108   0.00000  Uiso   1.00
C94    C     0.49206   0.14480   0.47956   0.00000  Uiso   1.00
C95    C     0.48067   0.15023   0.02153   0.00000  Uiso   1.00
C96    C     0.44233   0.16832   0.04188   0.00000  Uiso   1.00
C97    C     0.41852   0.18435   0.02180   0.00000  Uiso   1.00
C98    C     0.52412   0.11809   0.45928   0.00000  Uiso   1.00
C99    C     0.55106   0.10648   0.47914   0.00000  Uiso   1.00
C100   C     0.54432   0.11655   0.01981   0.00000  Uiso   1.00
C101   C     0.50800   0.13753   0.04164   0.00000  Uiso   1.00
C102   C     0.57303   0.10578   0.03929   0.00000  Uiso   1.00
C103   C     0.56602   0.11684   0.07980   0.00000  Uiso   1.00
C104   C     0.50142   0.14674   0.08272   0.00000  Uiso   1.00
H105   H     0.38933   0.19788   0.03848   0.00000  Uiso   1.00
H106   H     0.47513   0.16313   0.10112   0.00000  Uiso   1.00
H107   H     0.58780   0.10864   0.09481   0.00000  Uiso   1.00
H108   H     0.57681   0.08839   0.46232   0.00000  Uiso   1.00
H109   H     0.38178   0.21847   0.47774   0.00000  Uiso   1.00
H110   H     0.40784   0.22091   0.40631   0.00000  Uiso   1.00
H111   H     0.51924   0.16390   0.40307   0.00000  Uiso   1.00
H112   H     0.42924   0.16988   0.07341   0.00000  Uiso   1.00
C113   C     0.66032   0.17624   0.23771   0.00000  Uiso   1.00
H114   H     0.34996   0.19365   0.21509   0.00000  Uiso   1.00
C115   C     0.34046   0.15734   0.26217   0.00000  Uiso   1.00
H116   H     0.65149   0.13982   0.28503   0.00000  Uiso   1.00
C117   C     0.51430   0.32217   0.23810   0.00000  Uiso   1.00
H118   H     0.54136   0.00282   0.21601   0.00000  Uiso   1.00
C119   C     0.48501   0.01205   0.26213   0.00000  Uiso   1.00
H120   H     0.45756   0.33215   0.28429   0.00000  Uiso   1.00
N121   N     0.60915   0.08335   0.01867   0.00000  Uiso   1.00
O122   O     0.64663   0.09549   0.02518   0.00000  Uiso   1.00
O123   O     0.60275   0.04650   0.00026   0.00000  Uiso   1.00
N124   N     0.52620   0.09789   0.42025   0.00000  Uiso   1.00
O125   O     0.49081   0.08231   0.41092   0.00000  Uiso   1.00
O126   O     0.56314   0.08985   0.39593   0.00000  Uiso   1.00
Zn127  Zn    0.85910   0.14090   0.28278   0.00000  Uiso   1.00
Zn128  Zn    0.80125   0.12378   0.22258   0.00000  Uiso   1.00
Zn129  Zn    0.87833   0.19664   0.21188   0.00000  Uiso   1.00
Zn130  Zn    0.79465   0.20535   0.28277   0.00000  Uiso   1.00
O131   O     0.83333   0.16667   0.25000   0.00000  Uiso   1.00
O132   O     0.73656   0.18960   0.27820   0.00000  Uiso   1.00
O133   O     0.92106   0.15277   0.26768   0.00000  Uiso   1.00
O134   O     0.80467   0.06903   0.23607   0.00000  Uiso   1.00
O135   O     0.87104   0.25527   0.21806   0.00000  Uiso   1.00
O136   O     0.82360   0.12393   0.16625   0.00000  Uiso   1.00
O137   O     0.79354   0.20646   0.33749   0.00000  Uiso   1.00
O138   O     0.87755   0.17493   0.15877   0.00000  Uiso   1.00
O139   O     0.83865   0.16135   0.33749   0.00000  Uiso   1.00
O140   O     0.84515   0.08101   0.27821   0.00000  Uiso   1.00
O141   O     0.81247   0.26136   0.26767   0.00000  Uiso   1.00
O142   O     0.74119   0.13251   0.23607   0.00000  Uiso   1.00
O143   O     0.93452   0.19179   0.21806   0.00000  Uiso   1.00
C144   C     0.71916   0.15985   0.25876   0.00000  Uiso   1.00
C145   C     0.94773   0.17355   0.24123   0.00000  Uiso   1.00
C146   C     0.82264   0.05608   0.25889   0.00000  Uiso   1.00
C147   C     0.84356   0.27767   0.24134   0.00000  Uiso   1.00
C148   C     0.85468   0.14543   0.14398   0.00000  Uiso   1.00
C149   C     0.81192   0.18742   0.35627   0.00000  Uiso   1.00
C150   C     0.79807   0.19055   0.39965   0.00000  Uiso   1.00
C151   C     0.86343   0.13655   0.10136   0.00000  Uiso   1.00
C152   C     0.74443   0.20487   0.46160   0.00000  Uiso   1.00
C153   C     0.75967   0.20695   0.42100   0.00000  Uiso   1.00
C154   C     0.82112   0.17257   0.41948   0.00000  Uiso   1.00
C155   C     0.80429   0.16648   0.45966   0.00000  Uiso   1.00
C156   C     0.76658   0.18506   0.48108   0.00000  Uiso   1.00
C157   C     0.82539   0.14480   0.47956   0.00000  Uiso   1.00
C158   C     0.81400   0.15023   0.02153   0.00000  Uiso   1.00
C159   C     0.77567   0.16832   0.04188   0.00000  Uiso   1.00
C160   C     0.75186   0.18435   0.02180   0.00000  Uiso   1.00
C161   C     0.85746   0.11809   0.45928   0.00000  Uiso   1.00
C162   C     0.88439   0.10648   0.47914   0.00000  Uiso   1.00
C163   C     0.87765   0.11655   0.01981   0.00000  Uiso   1.00
C164   C     0.84134   0.13753   0.04164   0.00000  Uiso   1.00
C165   C     0.90636   0.10578   0.03929   0.00000  Uiso   1.00
C166   C     0.89935   0.11684   0.07980   0.00000  Uiso   1.00
C167   C     0.83476   0.14674   0.08272   0.00000  Uiso   1.00
H168   H     0.72266   0.19788   0.03848   0.00000  Uiso   1.00
H169   H     0.80846   0.16313   0.10112   0.00000  Uiso   1.00
H170   H     0.92113   0.10864   0.09481   0.00000  Uiso   1.00
H171   H     0.91014   0.08839   0.46232   0.00000  Uiso   1.00
H172   H     0.71512   0.21847   0.47774   0.00000  Uiso   1.00
H173   H     0.74117   0.22091   0.40631   0.00000  Uiso   1.00
H174   H     0.85257   0.16390   0.40307   0.00000  Uiso   1.00
H175   H     0.76257   0.16988   0.07341   0.00000  Uiso   1.00
C176   C     0.99366   0.17624   0.23771   0.00000  Uiso   1.00
H177   H     0.68329   0.19365   0.21509   0.00000  Uiso   1.00
C178   C     0.67380   0.15734   0.26217   0.00000  Uiso   1.00
H179   H     0.98483   0.13982   0.28503   0.00000  Uiso   1.00
C180   C     0.84763   0.32217   0.23810   0.00000  Uiso   1.00
H181   H     0.87470   0.00282   0.21601   0.00000  Uiso   1.00
C182   C     0.81834   0.01205   0.26213   0.00000  Uiso   1.00
H183   H     0.79089   0.33215   0.28429   0.00000  Uiso   1.00
N184   N     0.94248   0.08335   0.01867   0.00000  Uiso   1.00
O185   O     0.97997   0.09549   0.02518   0.00000  Uiso   1.00
O186   O     0.93608   0.04650   0.00026   0.00000  Uiso   1.00
N187   N     0.85953   0.09789   0.42025   0.00000  Uiso   1.00
O188   O     0.82415   0.08231   0.41092   0.00000  Uiso   1.00
O189   O     0.89647   0.08985   0.39593   0.00000  Uiso   1.00
Zn190  Zn    0.19244   0.47423   0.28278   0.00000  Uiso   1.00
Zn191  Zn    0.13459   0.45711   0.22258   0.00000  Uiso   1.00
Zn192  Zn    0.21166   0.52997   0.21188   0.00000  Uiso   1.00
Zn193  Zn    0.12798   0.53868   0.28277   0.00000  Uiso   1.00
O194   O     0.16667   0.50000   0.25000   0.00000  Uiso   1.00
O195   O     0.06990   0.52293   0.27820   0.00000  Uiso   1.00
O196   O     0.25440   0.48610   0.26768   0.00000  Uiso   1.00
O197   O     0.13800   0.40236   0.23607   0.00000  Uiso   1.00
O198   O     0.20437   0.58860   0.21806   0.00000  Uiso   1.00
O199   O     0.15693   0.45726   0.16625   0.00000  Uiso   1.00
O200   O     0.12687   0.53979   0.33749   0.00000  Uiso   1.00
O201   O     0.21088   0.50826   0.15877   0.00000  Uiso   1.00
O202   O     0.17198   0.49468   0.33749   0.00000  Uiso   1.00
O203   O     0.17849   0.41434   0.27821   0.00000  Uiso   1.00
O204   O     0.14581   0.59469   0.26767   0.00000  Uiso   1.00
O205   O     0.07452   0.46584   0.23607   0.00000  Uiso   1.00
O206   O     0.26785   0.52512   0.21806   0.00000  Uiso   1.00
C207   C     0.05249   0.49318   0.25876   0.00000  Uiso   1.00
C208   C     0.28106   0.50689   0.24123   0.00000  Uiso   1.00
C209   C     0.15598   0.38941   0.25889   0.00000  Uiso   1.00
C210   C     0.17689   0.61100   0.24134   0.00000  Uiso   1.00
C211   C     0.18801   0.47876   0.14398   0.00000  Uiso   1.00
C212   C     0.14525   0.52075   0.35627   0.00000  Uiso   1.00
C213   C     0.13140   0.52389   0.39965   0.00000  Uiso   1.00
C214   C     0.19676   0.46989   0.10136   0.00000  Uiso   1.00
C215   C     0.07776   0.53821   0.46160   0.00000  Uiso   1.00
C216   C     0.09300   0.54029   0.42100   0.00000  Uiso   1.00
C217   C     0.15446   0.50591   0.41948   0.00000  Uiso   1.00
C218   C     0.13762   0.49982   0.45966   0.00000  Uiso   1.00
C219   C     0.09992   0.51839   0.48108   0.00000  Uiso   1.00
C220   C     0.15873   0.47813   0.47956   0.00000  Uiso   1.00
C221   C     0.14733   0.48356   0.02153   0.00000  Uiso   1.00
C222   C     0.10900   0.50165   0.04188   0.00000  Uiso   1.00
C223   C     0.08519   0.51768   0.02180   0.00000  Uiso   1.00
C224   C     0.19079   0.45143   0.45928   0.00000  Uiso   1.00
C225   C     0.21772   0.43982   0.47914   0.00000  Uiso   1.00
C226   C     0.21098   0.44989   0.01981   0.00000  Uiso   1.00
C227   C     0.17467   0.47086   0.04164   0.00000  Uiso   1.00
C228   C     0.23969   0.43911   0.03929   0.00000  Uiso   1.00
C229   C     0.23268   0.45018   0.07980   0.00000  Uiso   1.00
C230   C     0.16809   0.48007   0.08272   0.00000  Uiso   1.00
H231   H     0.05599   0.53121   0.03848   0.00000  Uiso   1.00
H232   H     0.14179   0.49646   0.10112   0.00000  Uiso   1.00
H233   H     0.25446   0.44197   0.09481   0.00000  Uiso   1.00
H234   H     0.24347   0.42172   0.46232   0.00000  Uiso   1.00
H235   H     0.04845   0.55180   0.47774   0.00000  Uiso   1.00
H236   H     0.07450   0.55424   0.40631   0.00000  Uiso   1.00
H237   H     0.18590   0.49723   0.40307   0.00000  Uiso   1.00
H238   H     0.09591   0.50321   0.07341   0.00000  Uiso   1.00
C239   C     0.32699   0.50957   0.23771   0.00000  Uiso   1.00
H240   H     0.01663   0.52699   0.21509   0.00000  Uiso   1.00
C241   C     0.00713   0.49067   0.26217   0.00000  Uiso   1.00
H242   H     0.31816   0.47316   0.28503   0.00000  Uiso   1.00
C243   C     0.18097   0.65550   0.23810   0.00000  Uiso   1.00
H244   H     0.20803   0.33615   0.21601   0.00000  Uiso   1.00
C245   C     0.15168   0.34538   0.26213   0.00000  Uiso   1.00
H246   H     0.12423   0.66549   0.28429   0.00000  Uiso   1.00
N247   N     0.27582   0.41668   0.01867   0.00000  Uiso   1.00
O248   O     0.31330   0.42882   0.02518   0.00000  Uiso   1.00
O249   O     0.26942   0.37984   0.00026   0.00000  Uiso   1.00
N250   N     0.19286   0.43122   0.42025   0.00000  Uiso   1.00
O251   O     0.15748   0.41564   0.41092   0.00000  Uiso   1.00
O252   O     0.22981   0.42319   0.39593   0.00000  Uiso   1.00
Zn253  Zn    0.52577   0.47423   0.28278   0.00000  Uiso   1.00
Zn254  Zn    0.46792   0.45711   0.22258   0.00000  Uiso   1.00
Zn255  Zn    0.54500   0.52997   0.21188   0.00000  Uiso   1.00
Zn256  Zn    0.46131   0.53868   0.28277   0.00000  Uiso   1.00
O257   O     0.50000   0.50000   0.25000   0.00000  Uiso   1.00
O258   O     0.40323   0.52293   0.27820   0.00000  Uiso   1.00
O259   O     0.58773   0.48610   0.26768   0.00000  Uiso   1.00
O260   O     0.47133   0.40236   0.23607   0.00000  Uiso   1.00
O261   O     0.53771   0.58860   0.21806   0.00000  Uiso   1.00
O262   O     0.49027   0.45726   0.16625   0.00000  Uiso   1.00
O263   O     0.46020   0.53979   0.33749   0.00000  Uiso   1.00
O264   O     0.54421   0.50826   0.15877   0.00000  Uiso   1.00
O265   O     0.50532   0.49468   0.33749   0.00000  Uiso   1.00
O266   O     0.51182   0.41434   0.27821   0.00000  Uiso   1.00
O267   O     0.47914   0.59469   0.26767   0.00000  Uiso   1.00
O268   O     0.40785   0.46584   0.23607   0.00000  Uiso   1.00
O269   O     0.60119   0.52512   0.21806   0.00000  Uiso   1.00
C270   C     0.38582   0.49318   0.25876   0.00000  Uiso   1.00
C271   C     0.61439   0.50689   0.24123   0.00000  Uiso   1.00
C272   C     0.48931   0.38941   0.25889   0.00000  Uiso   1.00
C273   C     0.51022   0.61100   0.24134   0.00000  Uiso   1.00
C274   C     0.52135   0.47876   0.14398   0.00000  Uiso   1.00
C275   C     0.47858   0.52075   0.35627   0.00000  Uiso   1.00
C276   C     0.46473   0.52389   0.39965   0.00000  Uiso   1.00
C277   C     0.53009   0.46989   0.10136   0.00000  Uiso   1.00
C278   C     0.41110   0.53821   0.46160   0.00000  Uiso   1.00
C279   C     0.42633   0.54029   0.42100   0.00000  Uiso   1.00
C280   C     0.48779   0.50591   0.41948   0.00000  Uiso   1.00
C281   C     0.47096   0.49982   0.45966   0.00000  Uiso   1.00
C282   C     0.43325   0.51839   0.48108   0.00000  Uiso   1.00
C283   C     0.49206   0.47813   0.47956   0.00000  Uiso   1.00
C284   C     0.48067   0.48356   0.02153   0.00000  Uiso   1.00
C285   C     0.44233   0.50165   0.04188   0.00000  Uiso   1.00
C286   C     0.41852   0.51768   0.02180   0.00000  Uiso   1.00
C287   C     0.52412   0.45143   0.45928   0.00000  Uiso   1.00
C288   C     0.55106   0.43982   0.47914   0.00000  Uiso   1.00
C289   C     0.54432   0.44989   0.01981   0.00000  Uiso   1.00
C290   C     0.50800   0.47086   0.04164   0.00000  Uiso   1.00
C291   C     0.57303   0.43911   0.03929   0.00000  Uiso   1.00
C292   C     0.56602   0.45018   0.07980   0.00000  Uiso   1.00
C293   C     0.50142   0.48007   0.08272   0.00000  Uiso   1.00
H294   H     0.38933   0.53121   0.03848   0.00000  Uiso   1.00
H295   H     0.47513   0.49646   0.10112   0.00000  Uiso   1.00
H296   H     0.58780   0.44197   0.09481   0.00000  Uiso   1.00
H297   H     0.57681   0.42172   0.46232   0.00000  Uiso   1.00
H298   H     0.38178   0.55180   0.47774   0.00000  Uiso   1.00
H299   H     0.40784   0.55424   0.40631   0.00000  Uiso   1.00
H300   H     0.51924   0.49723   0.40307   0.00000  Uiso   1.00
H301   H     0.42924   0.50321   0.07341   0.00000  Uiso   1.00
C302   C     0.66032   0.50957   0.23771   0.00000  Uiso   1.00
H303   H     0.34996   0.52699   0.21509   0.00000  Uiso   1.00
C304   C     0.34046   0.49067   0.26217   0.00000  Uiso   1.00
H305   H     0.65149   0.47316   0.28503   0.00000  Uiso   1.00
C306   C     0.51430   0.65550   0.23810   0.00000  Uiso   1.00
H307   H     0.54136   0.33615   0.21601   0.00000  Uiso   1.00
C308   C     0.48501   0.34538   0.26213   0.00000  Uiso   1.00
H309   H     0.45756   0.66549   0.28429   0.00000  Uiso   1.00
N310   N     0.60915   0.41668   0.01867   0.00000  Uiso   1.00
O311   O     0.64663   0.42882   0.02518   0.00000  Uiso   1.00
O312   O     0.60275   0.37984   0.00026   0.00000  Uiso   1.00
N313   N     0.52620   0.43122   0.42025   0.00000  Uiso   1.00
O314   O     0.49081   0.41564   0.41092   0.00000  Uiso   1.00
O315   O     0.56314   0.42319   0.39593   0.00000  Uiso   1.00
Zn316  Zn    0.85910   0.47423   0.28278   0.00000  Uiso   1.00
Zn317  Zn    0.80125   0.45711   0.22258   0.00000  Uiso   1.00
Zn318  Zn    0.87833   0.52997   0.21188   0.00000  Uiso   1.00
Zn319  Zn    0.79465   0.53868   0.28277   0.00000  Uiso   1.00
O320   O     0.83333   0.50000   0.25000   0.00000  Uiso   1.00
O321   O     0.73656   0.52293   0.27820   0.00000  Uiso   1.00
O322   O     0.92106   0.48610   0.26768   0.00000  Uiso   1.00
O323   O     0.80467   0.40236   0.23607   0.00000  Uiso   1.00
O324   O     0.87104   0.58860   0.21806   0.00000  Uiso   1.00
O325   O     0.82360   0.45726   0.16625   0.00000  Uiso   1.00
O326   O     0.79354   0.53979   0.33749   0.00000  Uiso   1.00
O327   O     0.87755   0.50826   0.15877   0.00000  Uiso   1.00
O328   O     0.83865   0.49468   0.33749   0.00000  Uiso   1.00
O329   O     0.84515   0.41434   0.27821   0.00000  Uiso   1.00
O330   O     0.81247   0.59469   0.26767   0.00000  Uiso   1.00
O331   O     0.74119   0.46584   0.23607   0.00000  Uiso   1.00
O332   O     0.93452   0.52512   0.21806   0.00000  Uiso   1.00
C333   C     0.71916   0.49318   0.25876   0.00000  Uiso   1.00
C334   C     0.94773   0.50689   0.24123   0.00000  Uiso   1.00
C335   C     0.82264   0.38941   0.25889   0.00000  Uiso   1.00
C336   C     0.84356   0.61100   0.24134   0.00000  Uiso   1.00
C337   C     0.85468   0.47876   0.14398   0.00000  Uiso   1.00
C338   C     0.81192   0.52075   0.35627   0.00000  Uiso   1.00
C339   C     0.79807   0.52389   0.39965   0.00000  Uiso   1.00
C340   C     0.86343   0.46989   0.10136   0.00000  Uiso   1.00
C341   C     0.74443   0.53821   0.46160   0.00000  Uiso   1.00
C342   C     0.75967   0.54029   0.42100   0.00000  Uiso   1.00
C343   C     0.82112   0.50591   0.41948   0.00000  Uiso   1.00
C344   C     0.80429   0.49982   0.45966   0.00000  Uiso   1.00
C345   C     0.76658   0.51839   0.48108   0.00000  Uiso   1.00
C346   C     0.82539   0.47813   0.47956   0.00000  Uiso   1.00
C347   C     0.81400   0.48356   0.02153   0.00000  Uiso   1.00
C348   C     0.77567   0.50165   0.04188   0.00000  Uiso   1.00
C349   C     0.75186   0.51768   0.02180   0.00000  Uiso   1.00
C350   C     0.85746   0.45143   0.45928   0.00000  Uiso   1.00
C351   C     0.88439   0.43982   0.47914   0.00000  Uiso   1.00
C352   C     0.87765   0.44989   0.01981   0.00000  Uiso   1.00
C353   C     0.84134   0.47086   0.04164   0.00000  Uiso   1.00
C354   C     0.90636   0.43911   0.03929   0.00000  Uiso   1.00
C355   C     0.89935   0.45018   0.07980   0.00000  Uiso   1.00
C356   C     0.83476   0.48007   0.08272   0.00000  Uiso   1.00
H357   H     0.72266   0.53121   0.03848   0.00000  Uiso   1.00
H358   H     0.80846   0.49646   0.10112   0.00000  Uiso   1.00
H359   H     0.92113   0.44197   0.09481   0.00000  Uiso   1.00
H360   H     0.91014   0.42172   0.46232   0.00000  Uiso   1.00
H361   H     0.71512   0.55180   0.47774   0.00000  Uiso   1.00
H362   H     0.74117   0.55424   0.40631   0.00000  Uiso   1.00
H363   H     0.85257   0.49723   0.40307   0.00000  Uiso   1.00
H364   H     0.76257   0.50321   0.07341   0.00000  Uiso   1.00
C365   C     0.99366   0.50957   0.23771   0.00000  Uiso   1.00
H366   H     0.68329   0.52699   0.21509   0.00000  Uiso   1.00
C367   C     0.67380   0.49067   0.26217   0.00000  Uiso   1.00
H368   H     0.98483   0.47316   0.28503   0.00000  Uiso   1.00
C369   C     0.84763   0.65550   0.23810   0.00000  Uiso   1.00
H370   H     0.87470   0.33615   0.21601   0.00000  Uiso   1.00
C371   C     0.81834   0.34538   0.26213   0.00000  Uiso   1.00
H372   H     0.79089   0.66549   0.28429   0.00000  Uiso   1.00
N373   N     0.94248   0.41668   0.01867   0.00000  Uiso   1.00
O374   O     0.97997   0.42882   0.02518   0.00000  Uiso   1.00
O375   O     0.93608   0.37984   0.00026   0.00000  Uiso   1.00
N376   N     0.85953   0.43122   0.42025   0.00000  Uiso   1.00
O377   O     0.82415   0.41564   0.41092   0.00000  Uiso   1.00
O378   O     0.89647   0.42319   0.39593   0.00000  Uiso   1.00
Zn379  Zn    0.19244   0.80756   0.28278   0.00000  Uiso   1.00
Zn380  Zn    0.13459   0.79044   0.22258   0.00000  Uiso   1.00
Zn381  Zn    0.21166   0.86331   0.21188   0.00000  Uiso   1.00
Zn382  Zn    0.12798   0.87202   0.28277   0.00000  Uiso   1.00
O383   O     0.16667   0.83333   0.25000   0.00000  Uiso   1.00
O384   O     0.06990   0.85627   0.27820   0.00000  Uiso   1.00
O385   O     0.25440   0.81944   0.26768   0.00000  Uiso   1.00
O386   O     0.13800   0.73570   0.23607   0.00000  Uiso   1.00
O387   O     0.20437   0.92193   0.21806   0.00000  Uiso   1.00
O388   O     0.15693   0.79060   0.16625   0.00000  Uiso   1.00
O389   O     0.12687   0.87313   0.33749   0.00000  Uiso   1.00
O390   O     0.21088   0.84159   0.15877   0.00000  Uiso   1.00
O391   O     0.17198   0.82802   0.33749   0.00000  Uiso   1.00
O392   O     0.17849   0.74768   0.27821   0.00000  Uiso   1.00
O393   O     0.14581   0.92803   0.26767   0.00000  Uiso   1.00
O394   O     0.07452   0.79917   0.23607   0.00000  Uiso   1.00
O395   O     0.26785   0.85845   0.21806   0.00000  Uiso   1.00
C396   C     0.05249   0.82651   0.25876   0.00000  Uiso   1.00
C397   C     0.28106   0.84022   0.24123   0.00000  Uiso   1.00
C398   C     0.15598   0.72274   0.25889   0.00000  Uiso   1.00
C399   C     0.17689   0.94434   0.24134   0.00000  Uiso   1.00
C400   C     0.18801   0.81210   0.14398   0.00000  Uiso   1.00
C401   C     0.14525   0.85408   0.35627   0.00000  Uiso   1.00
C402   C     0.13140   0.85722   0.39965   0.00000  Uiso   1.00
C403   C     0.19676   0.80322   0.10136   0.00000  Uiso   1.00
C404   C     0.07776   0.87154   0.46160   0.00000  Uiso   1.00
C405   C     0.09300   0.87362   0.42100   0.00000  Uiso   1.00
C406   C     0.15446   0.83924   0.41948   0.00000  Uiso   1.00
C407   C     0.13762   0.83315   0.45966   0.00000  Uiso   1.00
C408   C     0.09992   0.85173   0.48108   0.00000  Uiso   1.00
C409   C     0.15873   0.81146   0.47956   0.00000  Uiso   1.00
C410   C     0.14733   0.81690   0.02153   0.00000  Uiso   1.00
C411   C     0.10900   0.83499   0.04188   0.00000  Uiso   1.00
C412   C     0.08519   0.85102   0.02180   0.00000  Uiso   1.00
C413   C     0.19079   0.78476   0.45928   0.00000  Uiso   1.00
C414   C     0.21772   0.77315   0.47914   0.00000  Uiso   1.00
C415   C     0.21098   0.78322   0.01981   0.00000  Uiso   1.00
C416   C     0.17467   0.80420   0.04164   0.00000  Uiso   1.00
C417   C     0.23969   0.77245   0.03929   0.00000  Uiso   1.00
C418   C     0.23268   0.78351   0.07980   0.00000  Uiso   1.00
C419   C     0.16809   0.81341   0.08272   0.00000  Uiso   1.00
H420   H     0.05599   0.86454   0.03848   0.00000  Uiso   1.00
H421   H     0.14179   0.82979   0.10112   0.00000  Uiso   1.00
H422   H     0.25446   0.77531   0.09481   0.00000  Uiso   1.00
H423   H     0.24347   0.75505   0.46232   0.00000  Uiso   1.00
H424   H     0.04845   0.88513   0.47774   0.00000  Uiso   1.00
H425   H     0.07450   0.88758   0.40631   0.00000  Uiso   1.00
H426   H     0.18590   0.83056   0.40307   0.00000  Uiso   1.00
H427   H     0.09591   0.83654   0.07341   0.00000  Uiso   1.00
C428   C     0.32699   0.84290   0.23771   0.00000  Uiso   1.00
H429   H     0.01663   0.86032   0.21509   0.00000  Uiso   1.00
C430   C     0.00713   0.82401   0.26217   0.00000  Uiso   1.00
H431   H     0.31816   0.80649   0.28503   0.00000  Uiso   1.00
C432   C     0.18097   0.98884   0.23810   0.00000  Uiso   1.00
H433   H     0.20803   0.66949   0.21601   0.00000  Uiso   1.00
C434   C     0.15168   0.67872   0.26213   0.00000  Uiso   1.00
H435   H     0.12423   0.99882   0.28429   0.00000  Uiso   1.00
N436   N     0.27582   0.75002   0.01867   0.00000  Uiso   1.00
O437   O     0.31330   0.76215   0.02518   0.00000  Uiso   1.00
O438   O     0.26942   0.71317   0.00026   0.00000  Uiso   1.00
N439   N     0.19286   0.76455   0.42025   0.00000  Uiso   1.00
O440   O     0.15748   0.74898   0.41092   0.00000  Uiso   1.00
O441   O     0.22981   0.75652   0.39593   0.00000  Uiso   1.00
Zn442  Zn    0.52577   0.80756   0.28278   0.00000  Uiso   1.00
Zn443  Zn    0.46792   0.79044   0.22258   0.00000  Uiso   1.00
Zn444  Zn    0.54500   0.86331   0.21188   0.00000  Uiso   1.00
Zn445  Zn    0.46131   0.87202   0.28277   0.00000  Uiso   1.00
O446   O     0.50000   0.83333   0.25000   0.00000  Uiso   1.00
O447   O     0.40323   0.85627   0.27820   0.00000  Uiso   1.00
O448   O     0.58773   0.81944   0.26768   0.00000  Uiso   1.00
O449   O     0.47133   0.73570   0.23607   0.00000  Uiso   1.00
O450   O     0.53771   0.92193   0.21806   0.00000  Uiso   1.00
O451   O     0.49027   0.79060   0.16625   0.00000  Uiso   1.00
O452   O     0.46020   0.87313   0.33749   0.00000  Uiso   1.00
O453   O     0.54421   0.84159   0.15877   0.00000  Uiso   1.00
O454   O     0.50532   0.82802   0.33749   0.00000  Uiso   1.00
O455   O     0.51182   0.74768   0.27821   0.00000  Uiso   1.00
O456   O     0.47914   0.92803   0.26767   0.00000  Uiso   1.00
O457   O     0.40785   0.79917   0.23607   0.00000  Uiso   1.00
O458   O     0.60119   0.85845   0.21806   0.00000  Uiso   1.00
C459   C     0.38582   0.82651   0.25876   0.00000  Uiso   1.00
C460   C     0.61439   0.84022   0.24123   0.00000  Uiso   1.00
C461   C     0.48931   0.72274   0.25889   0.00000  Uiso   1.00
C462   C     0.51022   0.94434   0.24134   0.00000  Uiso   1.00
C463   C     0.52135   0.81210   0.14398   0.00000  Uiso   1.00
C464   C     0.47858   0.85408   0.35627   0.00000  Uiso   1.00
C465   C     0.46473   0.85722   0.39965   0.00000  Uiso   1.00
C466   C     0.53009   0.80322   0.10136   0.00000  Uiso   1.00
C467   C     0.41110   0.87154   0.46160   0.00000  Uiso   1.00
C468   C     0.42633   0.87362   0.42100   0.00000  Uiso   1.00
C469   C     0.48779   0.83924   0.41948   0.00000  Uiso   1.00
C470   C     0.47096   0.83315   0.45966   0.00000  Uiso   1.00
C471   C     0.43325   0.85173   0.48108   0.00000  Uiso   1.00
C472   C     0.49206   0.81146   0.47956   0.00000  Uiso   1.00
C473   C     0.48067   0.81690   0.02153   0.00000  Uiso   1.00
C474   C     0.44233   0.83499   0.04188   0.00000  Uiso   1.00
C475   C     0.41852   0.85102   0.02180   0.00000  Uiso   1.00
C476   C     0.52412   0.78476   0.45928   0.00000  Uiso   1.00
C477   C     0.55106   0.77315   0.47914   0.00000  Uiso   1.00
C478   C     0.54432   0.78322   0.01981   0.00000  Uiso   1.00
C479   C     0.50800   0.80420   0.04164   0.00000  Uiso   1.00
C480   C     0.57303   0.77245   0.03929   0.00000  Uiso   1.00
C481   C     0.56602   0.78351   0.07980   0.00000  Uiso   1.00
C482   C     0.50142   0.81341   0.08272   0.00000  Uiso   1.00
H483   H     0.38933   0.86454   0.03848   0.00000  Uiso   1.00
H484   H     0.47513   0.82979   0.10112   0.00000  Uiso   1.00
H485   H     0.58780   0.77531   0.09481   0.00000  Uiso   1.00
H486   H     0.57681   0.75505   0.46232   0.00000  Uiso   1.00
H487   H     0.38178   0.88513   0.47774   0.00000  Uiso   1.00
H488   H     0.40784   0.88758   0.40631   0.00000  Uiso   1.00
H489   H     0.51924   0.83056   0.40307   0.00000  Uiso   1.00
H490   H     0.42924   0.83654   0.07341   0.00000  Uiso   1.00
C491   C     0.66032   0.84290   0.23771   0.00000  Uiso   1.00
H492   H     0.34996   0.86032   0.21509   0.00000  Uiso   1.00
C493   C     0.34046   0.82401   0.26217   0.00000  Uiso   1.00
H494   H     0.65149   0.80649   0.28503   0.00000  Uiso   1.00
C495   C     0.51430   0.98884   0.23810   0.00000  Uiso   1.00
H496   H     0.54136   0.66949   0.21601   0.00000  Uiso   1.00
C497   C     0.48501   0.67872   0.26213   0.00000  Uiso   1.00
H498   H     0.45756   0.99882   0.28429   0.00000  Uiso   1.00
N499   N     0.60915   0.75002   0.01867   0.00000  Uiso   1.00
O500   O     0.64663   0.76215   0.02518   0.00000  Uiso   1.00
O501   O     0.60275   0.71317   0.00026   0.00000  Uiso   1.00
N502   N     0.52620   0.76455   0.42025   0.00000  Uiso   1.00
O503   O     0.49081   0.74898   0.41092   0.00000  Uiso   1.00
O504   O     0.56314   0.75652   0.39593   0.00000  Uiso   1.00
Zn505  Zn    0.85910   0.80756   0.28278   0.00000  Uiso   1.00
Zn506  Zn    0.80125   0.79044   0.22258   0.00000  Uiso   1.00
Zn507  Zn    0.87833   0.86331   0.21188   0.00000  Uiso   1.00
Zn508  Zn    0.79465   0.87202   0.28277   0.00000  Uiso   1.00
O509   O     0.83333   0.83333   0.25000   0.00000  Uiso   1.00
O510   O     0.73656   0.85627   0.27820   0.00000  Uiso   1.00
O511   O     0.92106   0.81944   0.26768   0.00000  Uiso   1.00
O512   O     0.80467   0.73570   0.23607   0.00000  Uiso   1.00
O513   O     0.87104   0.92193   0.21806   0.00000  Uiso   1.00
O514   O     0.82360   0.79060   0.16625   0.00000  Uiso   1.00
O515   O     0.79354   0.87313   0.33749   0.00000  Uiso   1.00
O516   O     0.87755   0.84159   0.15877   0.00000  Uiso   1.00
O517   O     0.83865   0.82802   0.33749   0.00000  Uiso   1.00
O518   O     0.84515   0.74768   0.27821   0.00000  Uiso   1.00
O519   O     0.81247   0.92803   0.26767   0.00000  Uiso   1.00
O520   O     0.74119   0.79917   0.23607   0.00000  Uiso   1.00
O521   O     0.93452   0.85845   0.21806   0.00000  Uiso   1.00
C522   C     0.71916   0.82651   0.25876   0.00000  Uiso   1.00
C523   C     0.94773   0.84022   0.24123   0.00000  Uiso   1.00
C524   C     0.82264   0.72274   0.25889   0.00000  Uiso   1.00
C525   C     0.84356   0.94434   0.24134   0.00000  Uiso   1.00
C526   C     0.85468   0.81210   0.14398   0.00000  Uiso   1.00
C527   C     0.81192   0.85408   0.35627   0.00000  Uiso   1.00
C528   C     0.79807   0.85722   0.39965   0.00000  Uiso   1.00
C529   C     0.86343   0.80322   0.10136   0.00000  Uiso   1.00
C530   C     0.74443   0.87154   0.46160   0.00000  Uiso   1.00
C531   C     0.75967   0.87362   0.42100   0.00000  Uiso   1.00
C532   C     0.82112   0.83924   0.41948   0.00000  Uiso   1.00
C533   C     0.80429   0.83315   0.45966   0.00000  Uiso   1.00
C534   C     0.76658   0.85173   0.48108   0.00000  Uiso   1.00
C535   C     0.82539   0.81146   0.47956   0.00000  Uiso   1.00
C536   C     0.81400   0.81690   0.02153   0.00000  Uiso   1.00
C537   C     0.77567   0.83499   0.04188   0.00000  Uiso   1.00
C538   C     0.75186   0.85102   0.02180   0.00000  Uiso   1.00
C539   C     0.85746   0.78476   0.45928   0.00000  Uiso   1.00
C540   C     0.88439   0.77315   0.47914   0.00000  Uiso   1.00
C541   C     0.87765   0.78322   0.01981   0.00000  Uiso   1.00
C542   C     0.84134   0.80420   0.04164   0.00000  Uiso   1.00
C543   C     0.90636   0.77245   0.03929   0.00000  Uiso   1.00
C544   C     0.89935   0.78351   0.07980   0.00000  Uiso   1.00
C545   C     0.83476   0.81341   0.08272   0.00000  Uiso   1.00
H546   H     0.72266   0.86454   0.03848   0.00000  Uiso   1.00
H547   H     0.80846   0.82979   0.10112   0.00000  Uiso   1.00
H548   H     0.92113   0.77531   0.09481   0.00000  Uiso   1.00
H549   H     0.91014   0.75505   0.46232   0.00000  Uiso   1.00
H550   H     0.71512   0.88513   0.47774   0.00000  Uiso   1.00
H551   H     0.74117   0.88758   0.40631   0.00000  Uiso   1.00
H552   H     0.85257   0.83056   0.40307   0.00000  Uiso   1.00
H553   H     0.76257   0.83654   0.07341   0.00000  Uiso   1.00
C554   C     0.99366   0.84290   0.23771   0.00000  Uiso   1.00
H555   H     0.68329   0.86032   0.21509   0.00000  Uiso   1.00
C556   C     0.67380   0.82401   0.26217   0.00000  Uiso   1.00
H557   H     0.98483   0.80649   0.28503   0.00000  Uiso   1.00
C558   C     0.84763   0.98884   0.23810   0.00000  Uiso   1.00
H559   H     0.87470   0.66949   0.21601   0.00000  Uiso   1.00
C560   C     0.81834   0.67872   0.26213   0.00000  Uiso   1.00
H561   H     0.79089   0.99882   0.28429   0.00000  Uiso   1.00
N562   N     0.94248   0.75002   0.01867   0.00000  Uiso   1.00
O563   O     0.97997   0.76215   0.02518   0.00000  Uiso   1.00
O564   O     0.93608   0.71317   0.00026   0.00000  Uiso   1.00
N565   N     0.85953   0.76455   0.42025   0.00000  Uiso   1.00
O566   O     0.82415   0.74898   0.41092   0.00000  Uiso   1.00
O567   O     0.89647   0.75652   0.39593   0.00000  Uiso   1.00
Zn568  Zn    0.19244   0.14090   0.78278   0.00000  Uiso   1.00
Zn569  Zn    0.13459   0.12378   0.72258   0.00000  Uiso   1.00
Zn570  Zn    0.21166   0.19664   0.71188   0.00000  Uiso   1.00
Zn571  Zn    0.12798   0.20535   0.78277   0.00000  Uiso   1.00
O572   O     0.16667   0.16667   0.75000   0.00000  Uiso   1.00
O573   O     0.06990   0.18960   0.77820   0.00000  Uiso   1.00
O574   O     0.25440   0.15277   0.76768   0.00000  Uiso   1.00
O575   O     0.13800   0.06903   0.73607   0.00000  Uiso   1.00
O576   O     0.20437   0.25527   0.71806   0.00000  Uiso   1.00
O577   O     0.15693   0.12393   0.66625   0.00000  Uiso   1.00
O578   O     0.12687   0.20646   0.83749   0.00000  Uiso   1.00
O579   O     0.21088   0.17493   0.65877   0.00000  Uiso   1.00
O580   O     0.17198   0.16135   0.83749   0.00000  Uiso   1.00
O581   O     0.17849   0.08101   0.77821   0.00000  Uiso   1.00
O582   O     0.14581   0.26136   0.76767   0.00000  Uiso   1.00
O583   O     0.07452   0.13251   0.73607   0.00000  Uiso   1.00
O584   O     0.26785   0.19179   0.71806   0.00000  Uiso   1.00
C585   C     0.05249   0.15985   0.75876   0.00000  Uiso   1.00
C586   C     0.28106   0.17355   0.74123   0.00000  Uiso   1.00
C587   C     0.15598   0.05608   0.75889   0.00000  Uiso   1.00
C588   C     0.17689   0.27767   0.74134   0.00000  Uiso   1.00
C589   C     0.18801   0.14543   0.64398   0.00000  Uiso   1.00
C590   C     0.14525   0.18742   0.85627   0.00000  Uiso   1.00
C591   C     0.13140   0.19055   0.89965   0.00000  Uiso   1.00
C592   C     0.19676   0.13655   0.60136   0.00000  Uiso   1.00
C593   C     0.07776   0.20487   0.96160   0.00000  Uiso   1.00
C594   C     0.09300   0.20695   0.92100   0.00000  Uiso   1.00
C595   C     0.15446   0.17257   0.91948   0.00000  Uiso   1.00
C596   C     0.13762   0.16648   0.95966   0.00000  Uiso   1.00
C597   C     0.09992   0.18506   0.98108   0.00000  Uiso   1.00
C598   C     0.15873   0.14480   0.97956   0.00000  Uiso   1.00
C599   C     0.14733   0.15023   0.52153   0.00000  Uiso   1.00
C600   C     0.10900   0.16832   0.54188   0.00000  Uiso   1.00
C601   C     0.08519   0.18435   0.52180   0.00000  Uiso   1.00
C602   C     0.19079   0.11809   0.95928   0.00000  Uiso   1.00
C603   C     0.21772   0.10648   0.97914   0.00000  Uiso   1.00
C604   C     0.21098   0.11655   0.51981   0.00000  Uiso   1.00
C605   C     0.17467   0.13753   0.54164   0.00000  Uiso   1.00
C606   C     0.23969   0.10578   0.53929   0.00000  Uiso   1.00
C607   C     0.23268   0.11684   0.57980   0.00000  Uiso   1.00
C608   C     0.16809   0.14674   0.58272   0.00000  Uiso   1.00
H609   H     0.05599   0.19788   0.53848   0.00000  Uiso   1.00
H610   H     0.14179   0.16313   0.60112   0.00000  Uiso   1.00
H611   H     0.25446   0.10864   0.59481   0.00000  Uiso   1.00
H612   H     0.24347   0.08839   0.96232   0.00000  Uiso   1.00
H613   H     0.04845   0.21847   0.97774   0.00000  Uiso   1.00
H614   H     0.07450   0.22091   0.90631   0.00000  Uiso   1.00
H615   H     0.18590   0.16390   0.90307   0.00000  Uiso   1.00
H616   H     0.09591   0.16988   0.57341   0.00000  Uiso   1.00
C617   C     0.32699   0.17624   0.73771   0.00000  Uiso   1.00
H618   H     0.01663   0.19365   0.71509   0.00000  Uiso   1.00
C619   C     0.00713   0.15734   0.76217   0.00000  Uiso   1.00
H620   H     0.31816   0.13982   0.78503   0.00000  Uiso   1.00
C621   C     0.18097   0.32217   0.73810   0.00000  Uiso   1.00
H622   H     0.20803   0.00282   0.71601   0.00000  Uiso   1.00
C623   C     0.15168   0.01205   0.76213   0.00000  Uiso   1.00
H624   H     0.12423   0.33215   0.78429   0.00000  Uiso   1.00
N625   N     0.27582   0.08335   0.51867   0.00000  Uiso   1.00
O626   O     0.31330   0.09549   0.52518   0.00000  Uiso   1.00
O627   O     0.26942   0.04650   0.50026   0.00000  Uiso   1.00
N628   N     0.19286   0.09789   0.92025   0.00000  Uiso   1.00
O629   O     0.15748   0.08231   0.91092   0.00000  Uiso   1.00
O630   O     0.22981   0.08985   0.89593   0.00000  Uiso   1.00
Zn631  Zn    0.52577   0.14090   0.78278   0.00000  Uiso   1.00
Zn632  Zn    0.46792   0.12378   0.72258   0.00000  Uiso   1.00
Zn633  Zn    0.54500   0.19664   0.71188   0.00000  Uiso   1.00
Zn634  Zn    0.46131   0.20535   0.78277   0.00000  Uiso   1.00
O635   O     0.50000   0.16667   0.75000   0.00000  Uiso   1.00
O636   O     0.40323   0.18960   0.77820   0.00000  Uiso   1.00
O637   O     0.58773   0.15277   0.76768   0.00000  Uiso   1.00
O638   O     0.47133   0.06903   0.73607   0.00000  Uiso   1.00
O639   O     0.53771   0.25527   0.71806   0.00000  Uiso   1.00
O640   O     0.49027   0.12393   0.66625   0.00000  Uiso   1.00
O641   O     0.46020   0.20646   0.83749   0.00000  Uiso   1.00
O642   O     0.54421   0.17493   0.65877   0.00000  Uiso   1.00
O643   O     0.50532   0.16135   0.83749   0.00000  Uiso   1.00
O644   O     0.51182   0.08101   0.77821   0.00000  Uiso   1.00
O645   O     0.47914   0.26136   0.76767   0.00000  Uiso   1.00
O646   O     0.40785   0.13251   0.73607   0.00000  Uiso   1.00
O647   O     0.60119   0.19179   0.71806   0.00000  Uiso   1.00
C648   C     0.38582   0.15985   0.75876   0.00000  Uiso   1.00
C649   C     0.61439   0.17355   0.74123   0.00000  Uiso   1.00
C650   C     0.48931   0.05608   0.75889   0.00000  Uiso   1.00
C651   C     0.51022   0.27767   0.74134   0.00000  Uiso   1.00
C652   C     0.52135   0.14543   0.64398   0.00000  Uiso   1.00
C653   C     0.47858   0.18742   0.85627   0.00000  Uiso   1.00
C654   C     0.46473   0.19055   0.89965   0.00000  Uiso   1.00
C655   C     0.53009   0.13655   0.60136   0.00000  Uiso   1.00
C656   C     0.41110   0.20487   0.96160   0.00000  Uiso   1.00
C657   C     0.42633   0.20695   0.92100   0.00000  Uiso   1.00
C658   C     0.48779   0.17257   0.91948   0.00000  Uiso   1.00
C659   C     0.47096   0.16648   0.95966   0.00000  Uiso   1.00
C660   C     0.43325   0.18506   0.98108   0.00000  Uiso   1.00
C661   C     0.49206   0.14480   0.97956   0.00000  Uiso   1.00
C662   C     0.48067   0.15023   0.52153   0.00000  Uiso   1.00
C663   C     0.44233   0.16832   0.54188   0.00000  Uiso   1.00
C664   C     0.41852   0.18435   0.52180   0.00000  Uiso   1.00
C665   C     0.52412   0.11809   0.95928   0.00000  Uiso   1.00
C666   C     0.55106   0.10648   0.97914   0.00000  Uiso   1.00
C667   C     0.54432   0.11655   0.51981   0.00000  Uiso   1.00
C668   C     0.50800   0.13753   0.54164   0.00000  Uiso   1.00
C669   C     0.57303   0.10578   0.53929   0.00000  Uiso   1.00
C670   C     0.56602   0.11684   0.57980   0.00000  Uiso   1.00
C671   C     0.50142   0.14674   0.58272   0.00000  Uiso   1.00
H672   H     0.38933   0.19788   0.53848   0.00000  Uiso   1.00
H673   H     0.47513   0.16313   0.60112   0.00000  Uiso   1.00
H674   H     0.58780   0.10864   0.59481   0.00000  Uiso   1.00
H675   H     0.57681   0.08839   0.96232   0.00000  Uiso   1.00
H676   H     0.38178   0.21847   0.97774   0.00000  Uiso   1.00
H677   H     0.40784   0.22091   0.90631   0.00000  Uiso   1.00
H678   H     0.51924   0.16390   0.90307   0.00000  Uiso   1.00
H679   H     0.42924   0.16988   0.57341   0.00000  Uiso   1.00
C680   C     0.66032   0.17624   0.73771   0.00000  Uiso   1.00
H681   H     0.34996   0.19365   0.71509   0.00000  Uiso   1.00
C682   C     0.34046   0.15734   0.76217   0.00000  Uiso   1.00
H683   H     0.65149   0.13982   0.78503   0.00000  Uiso   1.00
C684   C     0.51430   0.32217   0.73810   0.00000  Uiso   1.00
H685   H     0.54136   0.00282   0.71601   0.00000  Uiso   1.00
C686   C     0.48501   0.01205   0.76213   0.00000  Uiso   1.00
H687   H     0.45756   0.33215   0.78429   0.00000  Uiso   1.00
N688   N     0.60915   0.08335   0.51867   0.00000  Uiso   1.00
O689   O     0.64663   0.09549   0.52518   0.00000  Uiso   1.00
O690   O     0.60275   0.04650   0.50026   0.00000  Uiso   1.00
N691   N     0.52620   0.09789   0.92025   0.00000  Uiso   1.00
O692   O     0.49081   0.08231   0.91092   0.00000  Uiso   1.00
O693   O     0.56314   0.08985   0.89593   0.00000  Uiso   1.00
Zn694  Zn    0.85910   0.14090   0.78278   0.00000  Uiso   1.00
Zn695  Zn    0.80125   0.12378   0.72258   0.00000  Uiso   1.00
Zn696  Zn    0.87833   0.19664   0.71188   0.00000  Uiso   1.00
Zn697  Zn    0.79465   0.20535   0.78277   0.00000  Uiso   1.00
O698   O     0.83333   0.16667   0.75000   0.00000  Uiso   1.00
O699   O     0.73656   0.18960   0.77820   0.00000  Uiso   1.00
O700   O     0.92106   0.15277   0.76768   0.00000  Uiso   1.00
O701   O     0.80467   0.06903   0.73607   0.00000  Uiso   1.00
O702   O     0.87104   0.25527   0.71806   0.00000  Uiso   1.00
O703   O     0.82360   0.12393   0.66625   0.00000  Uiso   1.00
O704   O     0.79354   0.20646   0.83749   0.00000  Uiso   1.00
O705   O     0.87755   0.17493   0.65877   0.00000  Uiso   1.00
O706   O     0.83865   0.16135   0.83749   0.00000  Uiso   1.00
O707   O     0.84515   0.08101   0.77821   0.00000  Uiso   1.00
O708   O     0.81247   0.26136   0.76767   0.00000  Uiso   1.00
O709   O     0.74119   0.13251   0.73607   0.00000  Uiso   1.00
O710   O     0.93452   0.19179   0.71806   0.00000  Uiso   1.00
C711   C     0.71916   0.15985   0.75876   0.00000  Uiso   1.00
C712   C     0.94773   0.17355   0.74123   0.00000  Uiso   1.00
C713   C     0.82264   0.05608   0.75889   0.00000  Uiso   1.00
C714   C     0.84356   0.27767   0.74134   0.00000  Uiso   1.00
C715   C     0.85468   0.14543   0.64398   0.00000  Uiso   1.00
C716   C     0.81192   0.18742   0.85627   0.00000  Uiso   1.00
C717   C     0.79807   0.19055   0.89965   0.00000  Uiso   1.00
C718   C     0.86343   0.13655   0.60136   0.00000  Uiso   1.00
C719   C     0.74443   0.20487   0.96160   0.00000  Uiso   1.00
C720   C     0.75967   0.20695   0.92100   0.00000  Uiso   1.00
C721   C     0.82112   0.17257   0.91948   0.00000  Uiso   1.00
C722   C     0.80429   0.16648   0.95966   0.00000  Uiso   1.00
C723   C     0.76658   0.18506   0.98108   0.00000  Uiso   1.00
C724   C     0.82539   0.14480   0.97956   0.00000  Uiso   1.00
C725   C     0.81400   0.15023   0.52153   0.00000  Uiso   1.00
C726   C     0.77567   0.16832   0.54188   0.00000  Uiso   1.00
C727   C     0.75186   0.18435   0.52180   0.00000  Uiso   1.00
C728   C     0.85746   0.11809   0.95928   0.00000  Uiso   1.00
C729   C     0.88439   0.10648   0.97914   0.00000  Uiso   1.00
C730   C     0.87765   0.11655   0.51981   0.00000  Uiso   1.00
C731   C     0.84134   0.13753   0.54164   0.00000  Uiso   1.00
C732   C     0.90636   0.10578   0.53929   0.00000  Uiso   1.00
C733   C     0.89935   0.11684   0.57980   0.00000  Uiso   1.00
C734   C     0.83476   0.14674   0.58272   0.00000  Uiso   1.00
H735   H     0.72266   0.19788   0.53848   0.00000  Uiso   1.00
H736   H     0.80846   0.16313   0.60112   0.00000  Uiso   1.00
H737   H     0.92113   0.10864   0.59481   0.00000  Uiso   1.00
H738   H     0.91014   0.08839   0.96232   0.00000  Uiso   1.00
H739   H     0.71512   0.21847   0.97774   0.00000  Uiso   1.00
H740   H     0.74117   0.22091   0.90631   0.00000  Uiso   1.00
H741   H     0.85257   0.16390   0.90307   0.00000  Uiso   1.00
H742   H     0.76257   0.16988   0.57341   0.00000  Uiso   1.00
C743   C     0.99366   0.17624   0.73771   0.00000  Uiso   1.00
H744   H     0.68329   0.19365   0.71509   0.00000  Uiso   1.00
C745   C     0.67380   0.15734   0.76217   0.00000  Uiso   1.00
H746   H     0.98483   0.13982   0.78503   0.00000  Uiso   1.00
C747   C     0.84763   0.32217   0.73810   0.00000  Uiso   1.00
H748   H     0.87470   0.00282   0.71601   0.00000  Uiso   1.00
C749   C     0.81834   0.01205   0.76213   0.00000  Uiso   1.00
H750   H     0.79089   0.33215   0.78429   0.00000  Uiso   1.00
N751   N     0.94248   0.08335   0.51867   0.00000  Uiso   1.00
O752   O     0.97997   0.09549   0.52518   0.00000  Uiso   1.00
O753   O     0.93608   0.04650   0.50026   0.00000  Uiso   1.00
N754   N     0.85953   0.09789   0.92025   0.00000  Uiso   1.00
O755   O     0.82415   0.08231   0.91092   0.00000  Uiso   1.00
O756   O     0.89647   0.08985   0.89593   0.00000  Uiso   1.00
Zn757  Zn    0.19244   0.47423   0.78278   0.00000  Uiso   1.00
Zn758  Zn    0.13459   0.45711   0.72258   0.00000  Uiso   1.00
Zn759  Zn    0.21166   0.52997   0.71188   0.00000  Uiso   1.00
Zn760  Zn    0.12798   0.53868   0.78277   0.00000  Uiso   1.00
O761   O     0.16667   0.50000   0.75000   0.00000  Uiso   1.00
O762   O     0.06990   0.52293   0.77820   0.00000  Uiso   1.00
O763   O     0.25440   0.48610   0.76768   0.00000  Uiso   1.00
O764   O     0.13800   0.40236   0.73607   0.00000  Uiso   1.00
O765   O     0.20437   0.58860   0.71806   0.00000  Uiso   1.00
O766   O     0.15693   0.45726   0.66625   0.00000  Uiso   1.00
O767   O     0.12687   0.53979   0.83749   0.00000  Uiso   1.00
O768   O     0.21088   0.50826   0.65877   0.00000  Uiso   1.00
O769   O     0.17198   0.49468   0.83749   0.00000  Uiso   1.00
O770   O     0.17849   0.41434   0.77821   0.00000  Uiso   1.00
O771   O     0.14581   0.59469   0.76767   0.00000  Uiso   1.00
O772   O     0.07452   0.46584   0.73607   0.00000  Uiso   1.00
O773   O     0.26785   0.52512   0.71806   0.00000  Uiso   1.00
C774   C     0.05249   0.49318   0.75876   0.00000  Uiso   1.00
C775   C     0.28106   0.50689   0.74123   0.00000  Uiso   1.00
C776   C     0.15598   0.38941   0.75889   0.00000  Uiso   1.00
C777   C     0.17689   0.61100   0.74134   0.00000  Uiso   1.00
C778   C     0.18801   0.47876   0.64398   0.00000  Uiso   1.00
C779   C     0.14525   0.52075   0.85627   0.00000  Uiso   1.00
C780   C     0.13140   0.52389   0.89965   0.00000  Uiso   1.00
C781   C     0.19676   0.46989   0.60136   0.00000  Uiso   1.00
C782   C     0.07776   0.53821   0.96160   0.00000  Uiso   1.00
C783   C     0.09300   0.54029   0.92100   0.00000  Uiso   1.00
C784   C     0.15446   0.50591   0.91948   0.00000  Uiso   1.00
C785   C     0.13762   0.49982   0.95966   0.00000  Uiso   1.00
C786   C     0.09992   0.51839   0.98108   0.00000  Uiso   1.00
C787   C     0.15873   0.47813   0.97956   0.00000  Uiso   1.00
C788   C     0.14733   0.48356   0.52153   0.00000  Uiso   1.00
C789   C     0.10900   0.50165   0.54188   0.00000  Uiso   1.00
C790   C     0.08519   0.51768   0.52180   0.00000  Uiso   1.00
C791   C     0.19079   0.45143   0.95928   0.00000  Uiso   1.00
C792   C     0.21772   0.43982   0.97914   0.00000  Uiso   1.00
C793   C     0.21098   0.44989   0.51981   0.00000  Uiso   1.00
C794   C     0.17467   0.47086   0.54164   0.00000  Uiso   1.00
C795   C     0.23969   0.43911   0.53929   0.00000  Uiso   1.00
C796   C     0.23268   0.45018   0.57980   0.00000  Uiso   1.00
C797   C     0.16809   0.48007   0.58272   0.00000  Uiso   1.00
H798   H     0.05599   0.53121   0.53848   0.00000  Uiso   1.00
H799   H     0.14179   0.49646   0.60112   0.00000  Uiso   1.00
H800   H     0.25446   0.44197   0.59481   0.00000  Uiso   1.00
H801   H     0.24347   0.42172   0.96232   0.00000  Uiso   1.00
H802   H     0.04845   0.55180   0.97774   0.00000  Uiso   1.00
H803   H     0.07450   0.55424   0.90631   0.00000  Uiso   1.00
H804   H     0.18590   0.49723   0.90307   0.00000  Uiso   1.00
H805   H     0.09591   0.50321   0.57341   0.00000  Uiso   1.00
C806   C     0.32699   0.50957   0.73771   0.00000  Uiso   1.00
H807   H     0.01663   0.52699   0.71509   0.00000  Uiso   1.00
C808   C     0.00713   0.49067   0.76217   0.00000  Uiso   1.00
H809   H     0.31816   0.47316   0.78503   0.00000  Uiso   1.00
C810   C     0.18097   0.65550   0.73810   0.00000  Uiso   1.00
H811   H     0.20803   0.33615   0.71601   0.00000  Uiso   1.00
C812   C     0.15168   0.34538   0.76213   0.00000  Uiso   1.00
H813   H     0.12423   0.66549   0.78429   0.00000  Uiso   1.00
N814   N     0.27582   0.41668   0.51867   0.00000  Uiso   1.00
O815   O     0.31330   0.42882   0.52518   0.00000  Uiso   1.00
O816   O     0.26942   0.37984   0.50026   0.00000  Uiso   1.00
N817   N     0.19286   0.43122   0.92025   0.00000  Uiso   1.00
O818   O     0.15748   0.41564   0.91092   0.00000  Uiso   1.00
O819   O     0.22981   0.42319   0.89593   0.00000  Uiso   1.00
Zn820  Zn    0.52577   0.47423   0.78278   0.00000  Uiso   1.00
Zn821  Zn    0.46792   0.45711   0.72258   0.00000  Uiso   1.00
Zn822  Zn    0.54500   0.52997   0.71188   0.00000  Uiso   1.00
Zn823  Zn    0.46131   0.53868   0.78277   0.00000  Uiso   1.00
O824   O     0.50000   0.50000   0.75000   0.00000  Uiso   1.00
O825   O     0.40323   0.52293   0.77820   0.00000  Uiso   1.00
O826   O     0.58773   0.48610   0.76768   0.00000  Uiso   1.00
O827   O     0.47133   0.40236   0.73607   0.00000  Uiso   1.00
O828   O     0.53771   0.58860   0.71806   0.00000  Uiso   1.00
O829   O     0.49027   0.45726   0.66625   0.00000  Uiso   1.00
O830   O     0.46020   0.53979   0.83749   0.00000  Uiso   1.00
O831   O     0.54421   0.50826   0.65877   0.00000  Uiso   1.00
O832   O     0.50532   0.49468   0.83749   0.00000  Uiso   1.00
O833   O     0.51182   0.41434   0.77821   0.00000  Uiso   1.00
O834   O     0.47914   0.59469   0.76767   0.00000  Uiso   1.00
O835   O     0.40785   0.46584   0.73607   0.00000  Uiso   1.00
O836   O     0.60119   0.52512   0.71806   0.00000  Uiso   1.00
C837   C     0.38582   0.49318   0.75876   0.00000  Uiso   1.00
C838   C     0.61439   0.50689   0.74123   0.00000  Uiso   1.00
C839   C     0.48931   0.38941   0.75889   0.00000  Uiso   1.00
C840   C     0.51022   0.61100   0.74134   0.00000  Uiso   1.00
C841   C     0.52135   0.47876   0.64398   0.00000  Uiso   1.00
C842   C     0.47858   0.52075   0.85627   0.00000  Uiso   1.00
C843   C     0.46473   0.52389   0.89965   0.00000  Uiso   1.00
C844   C     0.53009   0.46989   0.60136   0.00000  Uiso   1.00
C845   C     0.41110   0.53821   0.96160   0.00000  Uiso   1.00
C846   C     0.42633   0.54029   0.92100   0.00000  Uiso   1.00
C847   C     0.48779   0.50591   0.91948   0.00000  Uiso   1.00
C848   C     0.47096   0.49982   0.95966   0.00000  Uiso   1.00
C849   C     0.43325   0.51839   0.98108   0.00000  Uiso   1.00
C850   C     0.49206   0.47813   0.97956   0.00000  Uiso   1.00
C851   C     0.48067   0.48356   0.52153   0.00000  Uiso   1.00
C852   C     0.44233   0.50165   0.54188   0.00000  Uiso   1.00
C853   C     0.41852   0.51768   0.52180   0.00000  Uiso   1.00
C854   C     0.52412   0.45143   0.95928   0.00000  Uiso   1.00
C855   C     0.55106   0.43982   0.97914   0.00000  Uiso   1.00
C856   C     0.54432   0.44989   0.51981   0.00000  Uiso   1.00
C857   C     0.50800   0.47086   0.54164   0.00000  Uiso   1.00
C858   C     0.57303   0.43911   0.53929   0.00000  Uiso   1.00
C859   C     0.56602   0.45018   0.57980   0.00000  Uiso   1.00
C860   C     0.50142   0.48007   0.58272   0.00000  Uiso   1.00
H861   H     0.38933   0.53121   0.53848   0.00000  Uiso   1.00
H862   H     0.47513   0.49646   0.60112   0.00000  Uiso   1.00
H863   H     0.58780   0.44197   0.59481   0.00000  Uiso   1.00
H864   H     0.57681   0.42172   0.96232   0.00000  Uiso   1.00
H865   H     0.38178   0.55180   0.97774   0.00000  Uiso   1.00
H866   H     0.40784   0.55424   0.90631   0.00000  Uiso   1.00
H867   H     0.51924   0.49723   0.90307   0.00000  Uiso   1.00
H868   H     0.42924   0.50321   0.57341   0.00000  Uiso   1.00
C869   C     0.66032   0.50957   0.73771   0.00000  Uiso   1.00
H870   H     0.34996   0.52699   0.71509   0.00000  Uiso   1.00
C871   C     0.34046   0.49067   0.76217   0.00000  Uiso   1.00
H872   H     0.65149   0.47316   0.78503   0.00000  Uiso   1.00
C873   C     0.51430   0.65550   0.73810   0.00000  Uiso   1.00
H874   H     0.54136   0.33615   0.71601   0.00000  Uiso   1.00
C875   C     0.48501   0.34538   0.76213   0.00000  Uiso   1.00
H876   H     0.45756   0.66549   0.78429   0.00000  Uiso   1.00
N877   N     0.60915   0.41668   0.51867   0.00000  Uiso   1.00
O878   O     0.64663   0.42882   0.52518   0.00000  Uiso   1.00
O879   O     0.60275   0.37984   0.50026   0.00000  Uiso   1.00
N880   N     0.52620   0.43122   0.92025   0.00000  Uiso   1.00
O881   O     0.49081   0.41564   0.91092   0.00000  Uiso   1.00
O882   O     0.56314   0.42319   0.89593   0.00000  Uiso   1.00
Zn883  Zn    0.85910   0.47423   0.78278   0.00000  Uiso   1.00
Zn884  Zn    0.80125   0.45711   0.72258   0.00000  Uiso   1.00
Zn885  Zn    0.87833   0.52997   0.71188   0.00000  Uiso   1.00
Zn886  Zn    0.79465   0.53868   0.78277   0.00000  Uiso   1.00
O887   O     0.83333   0.50000   0.75000   0.00000  Uiso   1.00
O888   O     0.73656   0.52293   0.77820   0.00000  Uiso   1.00
O889   O     0.92106   0.48610   0.76768   0.00000  Uiso   1.00
O890   O     0.80467   0.40236   0.73607   0.00000  Uiso   1.00
O891   O     0.87104   0.58860   0.71806   0.00000  Uiso   1.00
O892   O     0.82360   0.45726   0.66625   0.00000  Uiso   1.00
O893   O     0.79354   0.53979   0.83749   0.00000  Uiso   1.00
O894   O     0.87755   0.50826   0.65877   0.00000  Uiso   1.00
O895   O     0.83865   0.49468   0.83749   0.00000  Uiso   1.00
O896   O     0.84515   0.41434   0.77821   0.00000  Uiso   1.00
O897   O     0.81247   0.59469   0.76767   0.00000  Uiso   1.00
O898   O     0.74119   0.46584   0.73607   0.00000  Uiso   1.00
O899   O     0.93452   0.52512   0.71806   0.00000  Uiso   1.00
C900   C     0.71916   0.49318   0.75876   0.00000  Uiso   1.00
C901   C     0.94773   0.50689   0.74123   0.00000  Uiso   1.00
C902   C     0.82264   0.38941   0.75889   0.00000  Uiso   1.00
C903   C     0.84356   0.61100   0.74134   0.00000  Uiso   1.00
C904   C     0.85468   0.47876   0.64398   0.00000  Uiso   1.00
C905   C     0.81192   0.52075   0.85627   0.00000  Uiso   1.00
C906   C     0.79807   0.52389   0.89965   0.00000  Uiso   1.00
C907   C     0.86343   0.46989   0.60136   0.00000  Uiso   1.00
C908   C     0.74443   0.53821   0.96160   0.00000  Uiso   1.00
C909   C     0.75967   0.54029   0.92100   0.00000  Uiso   1.00
C910   C     0.82112   0.50591   0.91948   0.00000  Uiso   1.00
C911   C     0.80429   0.49982   0.95966   0.00000  Uiso   1.00
C912   C     0.76658   0.51839   0.98108   0.00000  Uiso   1.00
C913   C     0.82539   0.47813   0.97956   0.00000  Uiso   1.00
C914   C     0.81400   0.48356   0.52153   0.00000  Uiso   1.00
C915   C     0.77567   0.50165   0.54188   0.00000  Uiso   1.00
C916   C     0.75186   0.51768   0.52180   0.00000  Uiso   1.00
C917   C     0.85746   0.45143   0.95928   0.00000  Uiso   1.00
C918   C     0.88439   0.43982   0.97914   0.00000  Uiso   1.00
C919   C     0.87765   0.44989   0.51981   0.00000  Uiso   1.00
C920   C     0.84134   0.47086   0.54164   0.00000  Uiso   1.00
C921   C     0.90636   0.43911   0.53929   0.00000  Uiso   1.00
C922   C     0.89935   0.45018   0.57980   0.00000  Uiso   1.00
C923   C     0.83476   0.48007   0.58272   0.00000  Uiso   1.00
H924   H     0.72266   0.53121   0.53848   0.00000  Uiso   1.00
H925   H     0.80846   0.49646   0.60112   0.00000  Uiso   1.00
H926   H     0.92113   0.44197   0.59481   0.00000  Uiso   1.00
H927   H     0.91014   0.42172   0.96232   0.00000  Uiso   1.00
H928   H     0.71512   0.55180   0.97774   0.00000  Uiso   1.00
H929   H     0.74117   0.55424   0.90631   0.00000  Uiso   1.00
H930   H     0.85257   0.49723   0.90307   0.00000  Uiso   1.00
H931   H     0.76257   0.50321   0.57341   0.00000  Uiso   1.00
C932   C     0.99366   0.50957   0.73771   0.00000  Uiso   1.00
H933   H     0.68329   0.52699   0.71509   0.00000  Uiso   1.00
C934   C     0.67380   0.49067   0.76217   0.00000  Uiso   1.00
H935   H     0.98483   0.47316   0.78503   0.00000  Uiso   1.00
C936   C     0.84763   0.65550   0.73810   0.00000  Uiso   1.00
H937   H     0.87470   0.33615   0.71601   0.00000  Uiso   1.00
C938   C     0.81834   0.34538   0.76213   0.00000  Uiso   1.00
H939   H     0.79089   0.66549   0.78429   0.00000  Uiso   1.00
N940   N     0.94248   0.41668   0.51867   0.00000  Uiso   1.00
O941   O     0.97997   0.42882   0.52518   0.00000  Uiso   1.00
O942   O     0.93608   0.37984   0.50026   0.00000  Uiso   1.00
N943   N     0.85953   0.43122   0.92025   0.00000  Uiso   1.00
O944   O     0.82415   0.41564   0.91092   0.00000  Uiso   1.00
O945   O     0.89647   0.42319   0.89593   0.00000  Uiso   1.00
Zn946  Zn    0.19244   0.80756   0.78278   0.00000  Uiso   1.00
Zn947  Zn    0.13459   0.79044   0.72258   0.00000  Uiso   1.00
Zn948  Zn    0.21166   0.86331   0.71188   0.00000  Uiso   1.00
Zn949  Zn    0.12798   0.87202   0.78277   0.00000  Uiso   1.00
O950   O     0.16667   0.83333   0.75000   0.00000  Uiso   1.00
O951   O     0.06990   0.85627   0.77820   0.00000  Uiso   1.00
O952   O     0.25440   0.81944   0.76768   0.00000  Uiso   1.00
O953   O     0.13800   0.73570   0.73607   0.00000  Uiso   1.00
O954   O     0.20437   0.92193   0.71806   0.00000  Uiso   1.00
O955   O     0.15693   0.79060   0.66625   0.00000  Uiso   1.00
O956   O     0.12687   0.87313   0.83749   0.00000  Uiso   1.00
O957   O     0.21088   0.84159   0.65877   0.00000  Uiso   1.00
O958   O     0.17198   0.82802   0.83749   0.00000  Uiso   1.00
O959   O     0.17849   0.74768   0.77821   0.00000  Uiso   1.00
O960   O     0.14581   0.92803   0.76767   0.00000  Uiso   1.00
O961   O     0.07452   0.79917   0.73607   0.00000  Uiso   1.00
O962   O     0.26785   0.85845   0.71806   0.00000  Uiso   1.00
C963   C     0.05249   0.82651   0.75876   0.00000  Uiso   1.00
C964   C     0.28106   0.84022   0.74123   0.00000  Uiso   1.00
C965   C     0.15598   0.72274   0.75889   0.00000  Uiso   1.00
C966   C     0.17689   0.94434   0.74134   0.00000  Uiso   1.00
C967   C     0.18801   0.81210   0.64398   0.00000  Uiso   1.00
C968   C     0.14525   0.85408   0.85627   0.00000  Uiso   1.00
C969   C     0.13140   0.85722   0.89965   0.00000  Uiso   1.00
C970   C     0.19676   0.80322   0.60136   0.00000  Uiso   1.00
C971   C     0.07776   0.87154   0.96160   0.00000  Uiso   1.00
C972   C     0.09300   0.87362   0.92100   0.00000  Uiso   1.00
C973   C     0.15446   0.83924   0.91948   0.00000  Uiso   1.00
C974   C     0.13762   0.83315   0.95966   0.00000  Uiso   1.00
C975   C     0.09992   0.85173   0.98108   0.00000  Uiso   1.00
C976   C     0.15873   0.81146   0.97956   0.00000  Uiso   1.00
C977   C     0.14733   0.81690   0.52153   0.00000  Uiso   1.00
C978   C     0.10900   0.83499   0.54188   0.00000  Uiso   1.00
C979   C     0.08519   0.85102   0.52180   0.00000  Uiso   1.00
C980   C     0.19079   0.78476   0.95928   0.00000  Uiso   1.00
C981   C     0.21772   0.77315   0.97914   0.00000  Uiso   1.00
C982   C     0.21098   0.78322   0.51981   0.00000  Uiso   1.00
C983   C     0.17467   0.80420   0.54164   0.00000  Uiso   1.00
C984   C     0.23969   0.77245   0.53929   0.00000  Uiso   1.00
C985   C     0.23268   0.78351   0.57980   0.00000  Uiso   1.00
C986   C     0.16809   0.81341   0.58272   0.00000  Uiso   1.00
H987   H     0.05599   0.86454   0.53848   0.00000  Uiso   1.00
H988   H     0.14179   0.82979   0.60112   0.00000  Uiso   1.00
H989   H     0.25446   0.77531   0.59481   0.00000  Uiso   1.00
H990   H     0.24347   0.75505   0.96232   0.00000  Uiso   1.00
H991   H     0.04845   0.88513   0.97774   0.00000  Uiso   1.00
H992   H     0.07450   0.88758   0.90631   0.00000  Uiso   1.00
H993   H     0.18590   0.83056   0.90307   0.00000  Uiso   1.00
H994   H     0.09591   0.83654   0.57341   0.00000  Uiso   1.00
C995   C     0.32699   0.84290   0.73771   0.00000  Uiso   1.00
H996   H     0.01663   0.86032   0.71509   0.00000  Uiso   1.00
C997   C     0.00713   0.82401   0.76217   0.00000  Uiso   1.00
H998   H     0.31816   0.80649   0.78503   0.00000  Uiso   1.00
C999   C     0.18097   0.98884   0.73810   0.00000  Uiso   1.00
H1000  H     0.20803   0.66949   0.71601   0.00000  Uiso   1.00
C1001  C     0.15168   0.67872   0.76213   0.00000  Uiso   1.00
H1002  H     0.12423   0.99882   0.78429   0.00000  Uiso   1.00
N1003  N     0.27582   0.75002   0.51867   0.00000  Uiso   1.00
O1004  O     0.31330   0.76215   0.52518   0.00000  Uiso   1.00
O1005  O     0.26942   0.71317   0.50026   0.00000  Uiso   1.00
N1006  N     0.19286   0.76455   0.92025   0.00000  Uiso   1.00
O1007  O     0.15748   0.74898   0.91092   0.00000  Uiso   1.00
O1008  O     0.22981   0.75652   0.89593   0.00000  Uiso   1.00
Zn1009 Zn    0.52577   0.80756   0.78278   0.00000  Uiso   1.00
Zn1010 Zn    0.46792   0.79044   0.72258   0.00000  Uiso   1.00
Zn1011 Zn    0.54500   0.86331   0.71188   0.00000  Uiso   1.00
Zn1012 Zn    0.46131   0.87202   0.78277   0.00000  Uiso   1.00
O1013  O     0.50000   0.83333   0.75000   0.00000  Uiso   1.00
O1014  O     0.40323   0.85627   0.77820   0.00000  Uiso   1.00
O1015  O     0.58773   0.81944   0.76768   0.00000  Uiso   1.00
O1016  O     0.47133   0.73570   0.73607   0.00000  Uiso   1.00
O1017  O     0.53771   0.92193   0.71806   0.00000  Uiso   1.00
O1018  O     0.49027   0.79060   0.66625   0.00000  Uiso   1.00
O1019  O     0.46020   0.87313   0.83749   0.00000  Uiso   1.00
O1020  O     0.54421   0.84159   0.65877   0.00000  Uiso   1.00
O1021  O     0.50532   0.82802   0.83749   0.00000  Uiso   1.00
O1022  O     0.51182   0.74768   0.77821   0.00000  Uiso   1.00
O1023  O     0.47914   0.92803   0.76767   0.00000  Uiso   1.00
O1024  O     0.40785   0.79917   0.73607   0.00000  Uiso   1.00
O1025  O     0.60119   0.85845   0.71806   0.00000  Uiso   1.00
C1026  C     0.38582   0.82651   0.75876   0.00000  Uiso   1.00
C1027  C     0.61439   0.84022   0.74123   0.00000  Uiso   1.00
C1028  C     0.48931   0.72274   0.75889   0.00000  Uiso   1.00
C1029  C     0.51022   0.94434   0.74134   0.00000  Uiso   1.00
C1030  C     0.52135   0.81210   0.64398   0.00000  Uiso   1.00
C1031  C     0.47858   0.85408   0.85627   0.00000  Uiso   1.00
C1032  C     0.46473   0.85722   0.89965   0.00000  Uiso   1.00
C1033  C     0.53009   0.80322   0.60136   0.00000  Uiso   1.00
C1034  C     0.41110   0.87154   0.96160   0.00000  Uiso   1.00
C1035  C     0.42633   0.87362   0.92100   0.00000  Uiso   1.00
C1036  C     0.48779   0.83924   0.91948   0.00000  Uiso   1.00
C1037  C     0.47096   0.83315   0.95966   0.00000  Uiso   1.00
C1038  C     0.43325   0.85173   0.98108   0.00000  Uiso   1.00
C1039  C     0.49206   0.81146   0.97956   0.00000  Uiso   1.00
C1040  C     0.48067   0.81690   0.52153   0.00000  Uiso   1.00
C1041  C     0.44233   0.83499   0.54188   0.00000  Uiso   1.00
C1042  C     0.41852   0.85102   0.52180   0.00000  Uiso   1.00
C1043  C     0.52412   0.78476   0.95928   0.00000  Uiso   1.00
C1044  C     0.55106   0.77315   0.97914   0.00000  Uiso   1.00
C1045  C     0.54432   0.78322   0.51981   0.00000  Uiso   1.00
C1046  C     0.50800   0.80420   0.54164   0.00000  Uiso   1.00
C1047  C     0.57303   0.77245   0.53929   0.00000  Uiso   1.00
C1048  C     0.56602   0.78351   0.57980   0.00000  Uiso   1.00
C1049  C     0.50142   0.81341   0.58272   0.00000  Uiso   1.00
H1050  H     0.38933   0.86454   0.53848   0.00000  Uiso   1.00
H1051  H     0.47513   0.82979   0.60112   0.00000  Uiso   1.00
H1052  H     0.58780   0.77531   0.59481   0.00000  Uiso   1.00
H1053  H     0.57681   0.75505   0.96232   0.00000  Uiso   1.00
H1054  H     0.38178   0.88513   0.97774   0.00000  Uiso   1.00
H1055  H     0.40784   0.88758   0.90631   0.00000  Uiso   1.00
H1056  H     0.51924   0.83056   0.90307   0.00000  Uiso   1.00
H1057  H     0.42924   0.83654   0.57341   0.00000  Uiso   1.00
C1058  C     0.66032   0.84290   0.73771   0.00000  Uiso   1.00
H1059  H     0.34996   0.86032   0.71509   0.00000  Uiso   1.00
C1060  C     0.34046   0.82401   0.76217   0.00000  Uiso   1.00
H1061  H     0.65149   0.80649   0.78503   0.00000  Uiso   1.00
C1062  C     0.51430   0.98884   0.73810   0.00000  Uiso   1.00
H1063  H     0.54136   0.66949   0.71601   0.00000  Uiso   1.00
C1064  C     0.48501   0.67872   0.76213   0.00000  Uiso   1.00
H1065  H     0.45756   0.99882   0.78429   0.00000  Uiso   1.00
N1066  N     0.60915   0.75002   0.51867   0.00000  Uiso   1.00
O1067  O     0.64663   0.76215   0.52518   0.00000  Uiso   1.00
O1068  O     0.60275   0.71317   0.50026   0.00000  Uiso   1.00
N1069  N     0.52620   0.76455   0.92025   0.00000  Uiso   1.00
O1070  O     0.49081   0.74898   0.91092   0.00000  Uiso   1.00
O1071  O     0.56314   0.75652   0.89593   0.00000  Uiso   1.00
Zn1072 Zn    0.85910   0.80756   0.78278   0.00000  Uiso   1.00
Zn1073 Zn    0.80125   0.79044   0.72258   0.00000  Uiso   1.00
Zn1074 Zn    0.87833   0.86331   0.71188   0.00000  Uiso   1.00
Zn1075 Zn    0.79465   0.87202   0.78277   0.00000  Uiso   1.00
O1076  O     0.83333   0.83333   0.75000   0.00000  Uiso   1.00
O1077  O     0.73656   0.85627   0.77820   0.00000  Uiso   1.00
O1078  O     0.92106   0.81944   0.76768   0.00000  Uiso   1.00
O1079  O     0.80467   0.73570   0.73607   0.00000  Uiso   1.00
O1080  O     0.87104   0.92193   0.71806   0.00000  Uiso   1.00
O1081  O     0.82360   0.79060   0.66625   0.00000  Uiso   1.00
O1082  O     0.79354   0.87313   0.83749   0.00000  Uiso   1.00
O1083  O     0.87755   0.84159   0.65877   0.00000  Uiso   1.00
O1084  O     0.83865   0.82802   0.83749   0.00000  Uiso   1.00
O1085  O     0.84515   0.74768   0.77821   0.00000  Uiso   1.00
O1086  O     0.81247   0.92803   0.76767   0.00000  Uiso   1.00
O1087  O     0.74119   0.79917   0.73607   0.00000  Uiso   1.00
O1088  O     0.93452   0.85845   0.71806   0.00000  Uiso   1.00
C1089  C     0.71916   0.82651   0.75876   0.00000  Uiso   1.00
C1090  C     0.94773   0.84022   0.74123   0.00000  Uiso   1.00
C1091  C     0.82264   0.72274   0.75889   0.00000  Uiso   1.00
C1092  C     0.84356   0.94434   0.74134   0.00000  Uiso   1.00
C1093  C     0.85468   0.81210   0.64398   0.00000  Uiso   1.00
C1094  C     0.81192   0.85408   0.85627   0.00000  Uiso   1.00
C1095  C     0.79807   0.85722   0.89965   0.00000  Uiso   1.00
C1096  C     0.86343   0.80322   0.60136   0.00000  Uiso   1.00
C1097  C     0.74443   0.87154   0.96160   0.00000  Uiso   1.00
C1098  C     0.75967   0.87362   0.92100   0.00000  Uiso   1.00
C1099  C     0.82112   0.83924   0.91948   0.00000  Uiso   1.00
C1100  C     0.80429   0.83315   0.95966   0.00000  Uiso   1.00
C1101  C     0.76658   0.85173   0.98108   0.00000  Uiso   1.00
C1102  C     0.82539   0.81146   0.97956   0.00000  Uiso   1.00
C1103  C     0.81400   0.81690   0.52153   0.00000  Uiso   1.00
C1104  C     0.77567   0.83499   0.54188   0.00000  Uiso   1.00
C1105  C     0.75186   0.85102   0.52180   0.00000  Uiso   1.00
C1106  C     0.85746   0.78476   0.95928   0.00000  Uiso   1.00
C1107  C     0.88439   0.77315   0.97914   0.00000  Uiso   1.00
C1108  C     0.87765   0.78322   0.51981   0.00000  Uiso   1.00
C1109  C     0.84134   0.80420   0.54164   0.00000  Uiso   1.00
C1110  C     0.90636   0.77245   0.53929   0.00000  Uiso   1.00
C1111  C     0.89935   0.78351   0.57980   0.00000  Uiso   1.00
C1112  C     0.83476   0.81341   0.58272   0.00000  Uiso   1.00
H1113  H     0.72266   0.86454   0.53848   0.00000  Uiso   1.00
H1114  H     0.80846   0.82979   0.60112   0.00000  Uiso   1.00
H1115  H     0.92113   0.77531   0.59481   0.00000  Uiso   1.00
H1116  H     0.91014   0.75505   0.96232   0.00000  Uiso   1.00
H1117  H     0.71512   0.88513   0.97774   0.00000  Uiso   1.00
H1118  H     0.74117   0.88758   0.90631   0.00000  Uiso   1.00
H1119  H     0.85257   0.83056   0.90307   0.00000  Uiso   1.00
H1120  H     0.76257   0.83654   0.57341   0.00000  Uiso   1.00
C1121  C     0.99366   0.84290   0.73771   0.00000  Uiso   1.00
H1122  H     0.68329   0.86032   0.71509   0.00000  Uiso   1.00
C1123  C     0.67380   0.82401   0.76217   0.00000  Uiso   1.00
H1124  H     0.98483   0.80649   0.78503   0.00000  Uiso   1.00
C1125  C     0.84763   0.98884   0.73810   0.00000  Uiso   1.00
H1126  H     0.87470   0.66949   0.71601   0.00000  Uiso   1.00
C1127  C     0.81834   0.67872   0.76213   0.00000  Uiso   1.00
H1128  H     0.79089   0.99882   0.78429   0.00000  Uiso   1.00
N1129  N     0.94248   0.75002   0.51867   0.00000  Uiso   1.00
O1130  O     0.97997   0.76215   0.52518   0.00000  Uiso   1.00
O1131  O     0.93608   0.71317   0.50026   0.00000  Uiso   1.00
N1132  N     0.85953   0.76455   0.92025   0.00000  Uiso   1.00
O1133  O     0.82415   0.74898   0.91092   0.00000  Uiso   1.00
O1134  O     0.89647   0.75652   0.89593   0.00000  Uiso   1.00
loop_
_geom_bond_atom_site_label_1
_geom_bond_atom_site_label_2
_geom_bond_distance
_geom_bond_site_symmetry_2
_ccdc_geom_bond_type
Zn1    O14     1.928   .     S
Zn1    O5      1.954   .     S
Zn1    O13     1.924   .     S
Zn1    O7      1.926   .     S
Zn2    O16     1.929   .     S
Zn2    O5      1.940   .     S
Zn2    O10     1.926   .     S
Zn2    O8      1.935   .     S
Zn3    O9      1.931   .     S
Zn3    O17     1.936   .     S
Zn3    O12     1.929   .     S
Zn3    O5      1.933   .     S
Zn4    O15     1.930   .     S
Zn4    O11     1.933   .     S
Zn4    O6      1.932   .     S
Zn4    O5      1.935   .     S
O6     C18     1.270   .     A
O7     C19     1.276   .     A
O8     C20     1.275   .     A
O9     C21     1.271   .     A
O10    C22     1.274   .     A
O11    C23     1.283   .     A
O12    C22     1.274   .     A
O13    C23     1.284   .     A
O14    C20     1.275   .     A
O15    C21     1.271   .     A
O16    C18     1.270   .     A
O17    C19     1.279   .     A
C18    C52     1.438   .     S
C19    C50     1.455   .     S
C20    C56     1.436   .     S
C21    C54     1.452   .     S
C22    C25     1.455   .     S
C23    C24     1.472   .     S
C24    C27     1.401   .     A
C24    C28     1.399   .     A
C25    C41     1.391   .     A
C25    C40     1.391   .     A
C26    C30     1.404   .     A
C26    C27     1.394   .     A
C26    H46     1.084   .     S
C27    H47     1.083   .     S
C28    C29     1.407   .     A
C28    H48     1.079   .     S
C29    C30     1.416   .     A
C29    C31     1.428   .     A
C30    C601    1.392   .     S
C31    C35     1.423   .     A
C31    C599    1.424   .     S
C32    C38     1.427   .     A
C32    C33     1.417   .     A
C32    C598    1.424   1_554 S
C33    C34     1.389   .     A
C33    H49     1.077   .     S
C34    H42     1.084   .     S
C34    C597    1.392   1_554 S
C35    N61     1.439   .     S
C35    C36     1.394   .     A
C36    H45     1.080   .     S
C36    C604    1.399   .     S
C37    C38     1.424   .     A
C37    C39     1.421   .     A
C37    C603    1.399   1_554 S
C38    C41     1.411   .     A
C39    C40     1.397   .     A
C39    N58     1.436   .     S
C40    H44     1.084   .     S
C41    H43     1.077   .     S
C50    H114    1.088   .     S
C50    C115    1.334   .     S
H51    C176    1.088   1_455 S
C52    C176    1.334   1_455 S
C52    H179    1.086   1_455 S
H53    C115    1.086   .     S
C54    H244    1.088   .     S
C54    C245    1.332   .     S
H55    C432    1.088   1_545 S
C56    C432    1.332   1_545 S
C56    H435    1.086   1_545 S
H57    C245    1.086   .     S
N58    O60     1.301   .     A
N58    O59     1.301   .     A
N61    O62     1.302   .     A
N61    O63     1.302   .     A
Zn64   O77     1.928   .     S
Zn64   O68     1.954   .     S
Zn64   O76     1.924   .     S
Zn64   O70     1.926   .     S
Zn65   O79     1.929   .     S
Zn65   O68     1.940   .     S
Zn65   O73     1.926   .     S
Zn65   O71     1.935   .     S
Zn66   O72     1.931   .     S
Zn66   O80     1.936   .     S
Zn66   O75     1.929   .     S
Zn66   O68     1.933   .     S
Zn67   O78     1.930   .     S
Zn67   O74     1.933   .     S
Zn67   O69     1.932   .     S
Zn67   O68     1.935   .     S
O69    C81     1.270   .     A
O70    C82     1.276   .     A
O71    C83     1.275   .     A
O72    C84     1.271   .     A
O73    C85     1.274   .     A
O74    C86     1.283   .     A
O75    C85     1.274   .     A
O76    C86     1.284   .     A
O77    C83     1.275   .     A
O78    C84     1.271   .     A
O79    C81     1.270   .     A
O80    C82     1.279   .     A
C81    C115    1.438   .     S
C82    C113    1.455   .     S
C83    C119    1.436   .     S
C84    C117    1.452   .     S
C85    C88     1.455   .     S
C86    C87     1.472   .     S
C87    C90     1.401   .     A
C87    C91     1.399   .     A
C88    C104    1.391   .     A
C88    C103    1.391   .     A
C89    C93     1.404   .     A
C89    C90     1.394   .     A
C89    H109    1.084   .     S
C90    H110    1.083   .     S
C91    C92     1.407   .     A
C91    H111    1.079   .     S
C92    C93     1.416   .     A
C92    C94     1.428   .     A
C93    C664    1.392   .     S
C94    C98     1.423   .     A
C94    C662    1.424   .     S
C95    C101    1.427   .     A
C95    C96     1.417   .     A
C95    C661    1.424   1_554 S
C96    C97     1.389   .     A
C96    H112    1.077   .     S
C97    H105    1.084   .     S
C97    C660    1.392   1_554 S
C98    N124    1.439   .     S
C98    C99     1.394   .     A
C99    H108    1.080   .     S
C99    C667    1.399   .     S
C100   C101    1.424   .     A
C100   C102    1.421   .     A
C100   C666    1.399   1_554 S
C101   C104    1.411   .     A
C102   C103    1.397   .     A
C102   N121    1.436   .     S
C103   H107    1.084   .     S
C104   H106    1.077   .     S
C113   H177    1.088   .     S
C113   C178    1.334   .     S
H116   C178    1.086   .     S
C117   H307    1.088   .     S
C117   C308    1.332   .     S
H118   C495    1.088   1_545 S
C119   C495    1.332   1_545 S
C119   H498    1.086   1_545 S
H120   C308    1.086   .     S
N121   O123    1.301   .     A
N121   O122    1.301   .     A
N124   O125    1.302   .     A
N124   O126    1.302   .     A
Zn127  O140    1.928   .     S
Zn127  O131    1.954   .     S
Zn127  O139    1.924   .     S
Zn127  O133    1.926   .     S
Zn128  O142    1.929   .     S
Zn128  O131    1.940   .     S
Zn128  O136    1.926   .     S
Zn128  O134    1.935   .     S
Zn129  O135    1.931   .     S
Zn129  O143    1.936   .     S
Zn129  O138    1.929   .     S
Zn129  O131    1.933   .     S
Zn130  O141    1.930   .     S
Zn130  O137    1.933   .     S
Zn130  O132    1.932   .     S
Zn130  O131    1.935   .     S
O132   C144    1.270   .     A
O133   C145    1.276   .     A
O134   C146    1.275   .     A
O135   C147    1.271   .     A
O136   C148    1.274   .     A
O137   C149    1.283   .     A
O138   C148    1.274   .     A
O139   C149    1.284   .     A
O140   C146    1.275   .     A
O141   C147    1.271   .     A
O142   C144    1.270   .     A
O143   C145    1.279   .     A
C144   C178    1.438   .     S
C145   C176    1.455   .     S
C146   C182    1.436   .     S
C147   C180    1.452   .     S
C148   C151    1.455   .     S
C149   C150    1.472   .     S
C150   C153    1.401   .     A
C150   C154    1.399   .     A
C151   C167    1.391   .     A
C151   C166    1.391   .     A
C152   C156    1.404   .     A
C152   C153    1.394   .     A
C152   H172    1.084   .     S
C153   H173    1.083   .     S
C154   C155    1.407   .     A
C154   H174    1.079   .     S
C155   C156    1.416   .     A
C155   C157    1.428   .     A
C156   C727    1.392   .     S
C157   C161    1.423   .     A
C157   C725    1.424   .     S
C158   C164    1.427   .     A
C158   C159    1.417   .     A
C158   C724    1.424   1_554 S
C159   C160    1.389   .     A
C159   H175    1.077   .     S
C160   H168    1.084   .     S
C160   C723    1.392   1_554 S
C161   N187    1.439   .     S
C161   C162    1.394   .     A
C162   H171    1.080   .     S
C162   C730    1.399   .     S
C163   C164    1.424   .     A
C163   C165    1.421   .     A
C163   C729    1.399   1_554 S
C164   C167    1.411   .     A
C165   C166    1.397   .     A
C165   N184    1.436   .     S
C166   H170    1.084   .     S
C167   H169    1.077   .     S
C176   H51     1.088   1_655 S
C176   C52     1.334   1_655 S
H179   C52     1.086   1_655 S
C180   H370    1.088   .     S
C180   C371    1.332   .     S
H181   C558    1.088   1_545 S
C182   C558    1.332   1_545 S
C182   H561    1.086   1_545 S
H183   C371    1.086   .     S
N184   O186    1.301   .     A
N184   O185    1.301   .     A
N187   O188    1.302   .     A
N187   O189    1.302   .     A
Zn190  O203    1.928   .     S
Zn190  O194    1.954   .     S
Zn190  O202    1.924   .     S
Zn190  O196    1.926   .     S
Zn191  O205    1.929   .     S
Zn191  O194    1.940   .     S
Zn191  O199    1.926   .     S
Zn191  O197    1.935   .     S
Zn192  O198    1.931   .     S
Zn192  O206    1.936   .     S
Zn192  O201    1.929   .     S
Zn192  O194    1.933   .     S
Zn193  O204    1.930   .     S
Zn193  O200    1.933   .     S
Zn193  O195    1.932   .     S
Zn193  O194    1.935   .     S
O195   C207    1.270   .     A
O196   C208    1.276   .     A
O197   C209    1.275   .     A
O198   C210    1.271   .     A
O199   C211    1.274   .     A
O200   C212    1.283   .     A
O201   C211    1.274   .     A
O202   C212    1.284   .     A
O203   C209    1.275   .     A
O204   C210    1.271   .     A
O205   C207    1.270   .     A
O206   C208    1.279   .     A
C207   C241    1.438   .     S
C208   C239    1.455   .     S
C209   C245    1.436   .     S
C210   C243    1.452   .     S
C211   C214    1.455   .     S
C212   C213    1.472   .     S
C213   C216    1.401   .     A
C213   C217    1.399   .     A
C214   C230    1.391   .     A
C214   C229    1.391   .     A
C215   C219    1.404   .     A
C215   C216    1.394   .     A
C215   H235    1.084   .     S
C216   H236    1.083   .     S
C217   C218    1.407   .     A
C217   H237    1.079   .     S
C218   C219    1.416   .     A
C218   C220    1.428   .     A
C219   C790    1.392   .     S
C220   C224    1.423   .     A
C220   C788    1.424   .     S
C221   C227    1.427   .     A
C221   C222    1.417   .     A
C221   C787    1.424   1_554 S
C222   C223    1.389   .     A
C222   H238    1.077   .     S
C223   H231    1.084   .     S
C223   C786    1.392   1_554 S
C224   N250    1.439   .     S
C224   C225    1.394   .     A
C225   H234    1.080   .     S
C225   C793    1.399   .     S
C226   C227    1.424   .     A
C226   C228    1.421   .     A
C226   C792    1.399   1_554 S
C227   C230    1.411   .     A
C228   C229    1.397   .     A
C228   N247    1.436   .     S
C229   H233    1.084   .     S
C230   H232    1.077   .     S
C239   H303    1.088   .     S
C239   C304    1.334   .     S
H240   C365    1.088   1_455 S
C241   C365    1.334   1_455 S
C241   H368    1.086   1_455 S
H242   C304    1.086   .     S
C243   H433    1.088   .     S
C243   C434    1.332   .     S
H246   C434    1.086   .     S
N247   O249    1.301   .     A
N247   O248    1.301   .     A
N250   O251    1.302   .     A
N250   O252    1.302   .     A
Zn253  O266    1.928   .     S
Zn253  O257    1.954   .     S
Zn253  O265    1.924   .     S
Zn253  O259    1.926   .     S
Zn254  O268    1.929   .     S
Zn254  O257    1.940   .     S
Zn254  O262    1.926   .     S
Zn254  O260    1.935   .     S
Zn255  O261    1.931   .     S
Zn255  O269    1.936   .     S
Zn255  O264    1.929   .     S
Zn255  O257    1.933   .     S
Zn256  O267    1.930   .     S
Zn256  O263    1.933   .     S
Zn256  O258    1.932   .     S
Zn256  O257    1.935   .     S
O258   C270    1.270   .     A
O259   C271    1.276   .     A
O260   C272    1.275   .     A
O261   C273    1.271   .     A
O262   C274    1.274   .     A
O263   C275    1.283   .     A
O264   C274    1.274   .     A
O265   C275    1.284   .     A
O266   C272    1.275   .     A
O267   C273    1.271   .     A
O268   C270    1.270   .     A
O269   C271    1.279   .     A
C270   C304    1.438   .     S
C271   C302    1.455   .     S
C272   C308    1.436   .     S
C273   C306    1.452   .     S
C274   C277    1.455   .     S
C275   C276    1.472   .     S
C276   C279    1.401   .     A
C276   C280    1.399   .     A
C277   C293    1.391   .     A
C277   C292    1.391   .     A
C278   C282    1.404   .     A
C278   C279    1.394   .     A
C278   H298    1.084   .     S
C279   H299    1.083   .     S
C280   C281    1.407   .     A
C280   H300    1.079   .     S
C281   C282    1.416   .     A
C281   C283    1.428   .     A
C282   C853    1.392   .     S
C283   C287    1.423   .     A
C283   C851    1.424   .     S
C284   C290    1.427   .     A
C284   C285    1.417   .     A
C284   C850    1.424   1_554 S
C285   C286    1.389   .     A
C285   H301    1.077   .     S
C286   H294    1.084   .     S
C286   C849    1.392   1_554 S
C287   N313    1.439   .     S
C287   C288    1.394   .     A
C288   H297    1.080   .     S
C288   C856    1.399   .     S
C289   C290    1.424   .     A
C289   C291    1.421   .     A
C289   C855    1.399   1_554 S
C290   C293    1.411   .     A
C291   C292    1.397   .     A
C291   N310    1.436   .     S
C292   H296    1.084   .     S
C293   H295    1.077   .     S
C302   H366    1.088   .     S
C302   C367    1.334   .     S
H305   C367    1.086   .     S
C306   H496    1.088   .     S
C306   C497    1.332   .     S
H309   C497    1.086   .     S
N310   O312    1.301   .     A
N310   O311    1.301   .     A
N313   O314    1.302   .     A
N313   O315    1.302   .     A
Zn316  O329    1.928   .     S
Zn316  O320    1.954   .     S
Zn316  O328    1.924   .     S
Zn316  O322    1.926   .     S
Zn317  O331    1.929   .     S
Zn317  O320    1.940   .     S
Zn317  O325    1.926   .     S
Zn317  O323    1.935   .     S
Zn318  O324    1.931   .     S
Zn318  O332    1.936   .     S
Zn318  O327    1.929   .     S
Zn318  O320    1.933   .     S
Zn319  O330    1.930   .     S
Zn319  O326    1.933   .     S
Zn319  O321    1.932   .     S
Zn319  O320    1.935   .     S
O321   C333    1.270   .     A
O322   C334    1.276   .     A
O323   C335    1.275   .     A
O324   C336    1.271   .     A
O325   C337    1.274   .     A
O326   C338    1.283   .     A
O327   C337    1.274   .     A
O328   C338    1.284   .     A
O329   C335    1.275   .     A
O330   C336    1.271   .     A
O331   C333    1.270   .     A
O332   C334    1.279   .     A
C333   C367    1.438   .     S
C334   C365    1.455   .     S
C335   C371    1.436   .     S
C336   C369    1.452   .     S
C337   C340    1.455   .     S
C338   C339    1.472   .     S
C339   C342    1.401   .     A
C339   C343    1.399   .     A
C340   C356    1.391   .     A
C340   C355    1.391   .     A
C341   C345    1.404   .     A
C341   C342    1.394   .     A
C341   H361    1.084   .     S
C342   H362    1.083   .     S
C343   C344    1.407   .     A
C343   H363    1.079   .     S
C344   C345    1.416   .     A
C344   C346    1.428   .     A
C345   C916    1.392   .     S
C346   C350    1.423   .     A
C346   C914    1.424   .     S
C347   C353    1.427   .     A
C347   C348    1.417   .     A
C347   C913    1.424   1_554 S
C348   C349    1.389   .     A
C348   H364    1.077   .     S
C349   H357    1.084   .     S
C349   C912    1.392   1_554 S
C350   N376    1.439   .     S
C350   C351    1.394   .     A
C351   H360    1.080   .     S
C351   C919    1.399   .     S
C352   C353    1.424   .     A
C352   C354    1.421   .     A
C352   C918    1.399   1_554 S
C353   C356    1.411   .     A
C354   C355    1.397   .     A
C354   N373    1.436   .     S
C355   H359    1.084   .     S
C356   H358    1.077   .     S
C365   H240    1.088   1_655 S
C365   C241    1.334   1_655 S
H368   C241    1.086   1_655 S
C369   H559    1.088   .     S
C369   C560    1.332   .     S
H372   C560    1.086   .     S
N373   O375    1.301   .     A
N373   O374    1.301   .     A
N376   O377    1.302   .     A
N376   O378    1.302   .     A
Zn379  O392    1.928   .     S
Zn379  O383    1.954   .     S
Zn379  O391    1.924   .     S
Zn379  O385    1.926   .     S
Zn380  O394    1.929   .     S
Zn380  O383    1.940   .     S
Zn380  O388    1.926   .     S
Zn380  O386    1.935   .     S
Zn381  O387    1.931   .     S
Zn381  O395    1.936   .     S
Zn381  O390    1.929   .     S
Zn381  O383    1.933   .     S
Zn382  O393    1.930   .     S
Zn382  O389    1.933   .     S
Zn382  O384    1.932   .     S
Zn382  O383    1.935   .     S
O384   C396    1.270   .     A
O385   C397    1.276   .     A
O386   C398    1.275   .     A
O387   C399    1.271   .     A
O388   C400    1.274   .     A
O389   C401    1.283   .     A
O390   C400    1.274   .     A
O391   C401    1.284   .     A
O392   C398    1.275   .     A
O393   C399    1.271   .     A
O394   C396    1.270   .     A
O395   C397    1.279   .     A
C396   C430    1.438   .     S
C397   C428    1.455   .     S
C398   C434    1.436   .     S
C399   C432    1.452   .     S
C400   C403    1.455   .     S
C401   C402    1.472   .     S
C402   C405    1.401   .     A
C402   C406    1.399   .     A
C403   C419    1.391   .     A
C403   C418    1.391   .     A
C404   C408    1.404   .     A
C404   C405    1.394   .     A
C404   H424    1.084   .     S
C405   H425    1.083   .     S
C406   C407    1.407   .     A
C406   H426    1.079   .     S
C407   C408    1.416   .     A
C407   C409    1.428   .     A
C408   C979    1.392   .     S
C409   C413    1.423   .     A
C409   C977    1.424   .     S
C410   C416    1.427   .     A
C410   C411    1.417   .     A
C410   C976    1.424   1_554 S
C411   C412    1.389   .     A
C411   H427    1.077   .     S
C412   H420    1.084   .     S
C412   C975    1.392   1_554 S
C413   N439    1.439   .     S
C413   C414    1.394   .     A
C414   H423    1.080   .     S
C414   C982    1.399   .     S
C415   C416    1.424   .     A
C415   C417    1.421   .     A
C415   C981    1.399   1_554 S
C416   C419    1.411   .     A
C417   C418    1.397   .     A
C417   N436    1.436   .     S
C418   H422    1.084   .     S
C419   H421    1.077   .     S
C428   H492    1.088   .     S
C428   C493    1.334   .     S
H429   C554    1.088   1_455 S
C430   C554    1.334   1_455 S
C430   H557    1.086   1_455 S
H431   C493    1.086   .     S
C432   H55     1.088   1_565 S
C432   C56     1.332   1_565 S
H435   C56     1.086   1_565 S
N436   O438    1.301   .     A
N436   O437    1.301   .     A
N439   O440    1.302   .     A
N439   O441    1.302   .     A
Zn442  O455    1.928   .     S
Zn442  O446    1.954   .     S
Zn442  O454    1.924   .     S
Zn442  O448    1.926   .     S
Zn443  O457    1.929   .     S
Zn443  O446    1.940   .     S
Zn443  O451    1.926   .     S
Zn443  O449    1.935   .     S
Zn444  O450    1.931   .     S
Zn444  O458    1.936   .     S
Zn444  O453    1.929   .     S
Zn444  O446    1.933   .     S
Zn445  O456    1.930   .     S
Zn445  O452    1.933   .     S
Zn445  O447    1.932   .     S
Zn445  O446    1.935   .     S
O447   C459    1.270   .     A
O448   C460    1.276   .     A
O449   C461    1.275   .     A
O450   C462    1.271   .     A
O451   C463    1.274   .     A
O452   C464    1.283   .     A
O453   C463    1.274   .     A
O454   C464    1.284   .     A
O455   C461    1.275   .     A
O456   C462    1.271   .     A
O457   C459    1.270   .     A
O458   C460    1.279   .     A
C459   C493    1.438   .     S
C460   C491    1.455   .     S
C461   C497    1.436   .     S
C462   C495    1.452   .     S
C463   C466    1.455   .     S
C464   C465    1.472   .     S
C465   C468    1.401   .     A
C465   C469    1.399   .     A
C466   C482    1.391   .     A
C466   C481    1.391   .     A
C467   C471    1.404   .     A
C467   C468    1.394   .     A
C467   H487    1.084   .     S
C468   H488    1.083   .     S
C469   C470    1.407   .     A
C469   H489    1.079   .     S
C470   C471    1.416   .     A
C470   C472    1.428   .     A
C471   C1042   1.392   .     S
C472   C476    1.423   .     A
C472   C1040   1.424   .     S
C473   C479    1.427   .     A
C473   C474    1.417   .     A
C473   C1039   1.424   1_554 S
C474   C475    1.389   .     A
C474   H490    1.077   .     S
C475   H483    1.084   .     S
C475   C1038   1.392   1_554 S
C476   N502    1.439   .     S
C476   C477    1.394   .     A
C477   H486    1.080   .     S
C477   C1045   1.399   .     S
C478   C479    1.424   .     A
C478   C480    1.421   .     A
C478   C1044   1.399   1_554 S
C479   C482    1.411   .     A
C480   C481    1.397   .     A
C480   N499    1.436   .     S
C481   H485    1.084   .     S
C482   H484    1.077   .     S
C491   H555    1.088   .     S
C491   C556    1.334   .     S
H494   C556    1.086   .     S
C495   H118    1.088   1_565 S
C495   C119    1.332   1_565 S
H498   C119    1.086   1_565 S
N499   O501    1.301   .     A
N499   O500    1.301   .     A
N502   O503    1.302   .     A
N502   O504    1.302   .     A
Zn505  O518    1.928   .     S
Zn505  O509    1.954   .     S
Zn505  O517    1.924   .     S
Zn505  O511    1.926   .     S
Zn506  O520    1.929   .     S
Zn506  O509    1.940   .     S
Zn506  O514    1.926   .     S
Zn506  O512    1.935   .     S
Zn507  O513    1.931   .     S
Zn507  O521    1.936   .     S
Zn507  O516    1.929   .     S
Zn507  O509    1.933   .     S
Zn508  O519    1.930   .     S
Zn508  O515    1.933   .     S
Zn508  O510    1.932   .     S
Zn508  O509    1.935   .     S
O510   C522    1.270   .     A
O511   C523    1.276   .     A
O512   C524    1.275   .     A
O513   C525    1.271   .     A
O514   C526    1.274   .     A
O515   C527    1.283   .     A
O516   C526    1.274   .     A
O517   C527    1.284   .     A
O518   C524    1.275   .     A
O519   C525    1.271   .     A
O520   C522    1.270   .     A
O521   C523    1.279   .     A
C522   C556    1.438   .     S
C523   C554    1.455   .     S
C524   C560    1.436   .     S
C525   C558    1.452   .     S
C526   C529    1.455   .     S
C527   C528    1.472   .     S
C528   C531    1.401   .     A
C528   C532    1.399   .     A
C529   C545    1.391   .     A
C529   C544    1.391   .     A
C530   C534    1.404   .     A
C530   C531    1.394   .     A
C530   H550    1.084   .     S
C531   H551    1.083   .     S
C532   C533    1.407   .     A
C532   H552    1.079   .     S
C533   C534    1.416   .     A
C533   C535    1.428   .     A
C534   C1105   1.392   .     S
C535   C539    1.423   .     A
C535   C1103   1.424   .     S
C536   C542    1.427   .     A
C536   C537    1.417   .     A
C536   C1102   1.424   1_554 S
C537   C538    1.389   .     A
C537   H553    1.077   .     S
C538   H546    1.084   .     S
C538   C1101   1.392   1_554 S
C539   N565    1.439   .     S
C539   C540    1.394   .     A
C540   H549    1.080   .     S
C540   C1108   1.399   .     S
C541   C542    1.424   .     A
C541   C543    1.421   .     A
C541   C1107   1.399   1_554 S
C542   C545    1.411   .     A
C543   C544    1.397   .     A
C543   N562    1.436   .     S
C544   H548    1.084   .     S
C545   H547    1.077   .     S
C554   H429    1.088   1_655 S
C554   C430    1.334   1_655 S
H557   C430    1.086   1_655 S
C558   H181    1.088   1_565 S
C558   C182    1.332   1_565 S
H561   C182    1.086   1_565 S
N562   O564    1.301   .     A
N562   O563    1.301   .     A
N565   O566    1.302   .     A
N565   O567    1.302   .     A
Zn568  O581    1.928   .     S
Zn568  O572    1.954   .     S
Zn568  O580    1.924   .     S
Zn568  O574    1.926   .     S
Zn569  O583    1.929   .     S
Zn569  O572    1.940   .     S
Zn569  O577    1.926   .     S
Zn569  O575    1.935   .     S
Zn570  O576    1.931   .     S
Zn570  O584    1.936   .     S
Zn570  O579    1.929   .     S
Zn570  O572    1.933   .     S
Zn571  O582    1.930   .     S
Zn571  O578    1.933   .     S
Zn571  O573    1.932   .     S
Zn571  O572    1.935   .     S
O573   C585    1.270   .     A
O574   C586    1.276   .     A
O575   C587    1.275   .     A
O576   C588    1.271   .     A
O577   C589    1.274   .     A
O578   C590    1.283   .     A
O579   C589    1.274   .     A
O580   C590    1.284   .     A
O581   C587    1.275   .     A
O582   C588    1.271   .     A
O583   C585    1.270   .     A
O584   C586    1.279   .     A
C585   C619    1.438   .     S
C586   C617    1.455   .     S
C587   C623    1.436   .     S
C588   C621    1.452   .     S
C589   C592    1.455   .     S
C590   C591    1.472   .     S
C591   C594    1.401   .     A
C591   C595    1.399   .     A
C592   C608    1.391   .     A
C592   C607    1.391   .     A
C593   C597    1.404   .     A
C593   C594    1.394   .     A
C593   H613    1.084   .     S
C594   H614    1.083   .     S
C595   C596    1.407   .     A
C595   H615    1.079   .     S
C596   C597    1.416   .     A
C596   C598    1.428   .     A
C597   C34     1.392   1_556 S
C598   C602    1.423   .     A
C598   C32     1.424   1_556 S
C599   C605    1.427   .     A
C599   C600    1.417   .     A
C600   C601    1.389   .     A
C600   H616    1.077   .     S
C601   H609    1.084   .     S
C602   N628    1.439   .     S
C602   C603    1.394   .     A
C603   H612    1.080   .     S
C603   C37     1.399   1_556 S
C604   C605    1.424   .     A
C604   C606    1.421   .     A
C605   C608    1.411   .     A
C606   C607    1.397   .     A
C606   N625    1.436   .     S
C607   H611    1.084   .     S
C608   H610    1.077   .     S
C617   H681    1.088   .     S
C617   C682    1.334   .     S
H618   C743    1.088   1_455 S
C619   C743    1.334   1_455 S
C619   H746    1.086   1_455 S
H620   C682    1.086   .     S
C621   H811    1.088   .     S
C621   C812    1.332   .     S
H622   C999    1.088   1_545 S
C623   C999    1.332   1_545 S
C623   H1002   1.086   1_545 S
H624   C812    1.086   .     S
N625   O627    1.301   .     A
N625   O626    1.301   .     A
N628   O629    1.302   .     A
N628   O630    1.302   .     A
Zn631  O644    1.928   .     S
Zn631  O635    1.954   .     S
Zn631  O643    1.924   .     S
Zn631  O637    1.926   .     S
Zn632  O646    1.929   .     S
Zn632  O635    1.940   .     S
Zn632  O640    1.926   .     S
Zn632  O638    1.935   .     S
Zn633  O639    1.931   .     S
Zn633  O647    1.936   .     S
Zn633  O642    1.929   .     S
Zn633  O635    1.933   .     S
Zn634  O645    1.930   .     S
Zn634  O641    1.933   .     S
Zn634  O636    1.932   .     S
Zn634  O635    1.935   .     S
O636   C648    1.270   .     A
O637   C649    1.276   .     A
O638   C650    1.275   .     A
O639   C651    1.271   .     A
O640   C652    1.274   .     A
O641   C653    1.283   .     A
O642   C652    1.274   .     A
O643   C653    1.284   .     A
O644   C650    1.275   .     A
O645   C651    1.271   .     A
O646   C648    1.270   .     A
O647   C649    1.279   .     A
C648   C682    1.438   .     S
C649   C680    1.455   .     S
C650   C686    1.436   .     S
C651   C684    1.452   .     S
C652   C655    1.455   .     S
C653   C654    1.472   .     S
C654   C657    1.401   .     A
C654   C658    1.399   .     A
C655   C671    1.391   .     A
C655   C670    1.391   .     A
C656   C660    1.404   .     A
C656   C657    1.394   .     A
C656   H676    1.084   .     S
C657   H677    1.083   .     S
C658   C659    1.407   .     A
C658   H678    1.079   .     S
C659   C660    1.416   .     A
C659   C661    1.428   .     A
C660   C97     1.392   1_556 S
C661   C665    1.423   .     A
C661   C95     1.424   1_556 S
C662   C668    1.427   .     A
C662   C663    1.417   .     A
C663   C664    1.389   .     A
C663   H679    1.077   .     S
C664   H672    1.084   .     S
C665   N691    1.439   .     S
C665   C666    1.394   .     A
C666   H675    1.080   .     S
C666   C100    1.399   1_556 S
C667   C668    1.424   .     A
C667   C669    1.421   .     A
C668   C671    1.411   .     A
C669   C670    1.397   .     A
C669   N688    1.436   .     S
C670   H674    1.084   .     S
C671   H673    1.077   .     S
C680   H744    1.088   .     S
C680   C745    1.334   .     S
H683   C745    1.086   .     S
C684   H874    1.088   .     S
C684   C875    1.332   .     S
H685   C1062   1.088   1_545 S
C686   C1062   1.332   1_545 S
C686   H1065   1.086   1_545 S
H687   C875    1.086   .     S
N688   O690    1.301   .     A
N688   O689    1.301   .     A
N691   O692    1.302   .     A
N691   O693    1.302   .     A
Zn694  O707    1.928   .     S
Zn694  O698    1.954   .     S
Zn694  O706    1.924   .     S
Zn694  O700    1.926   .     S
Zn695  O709    1.929   .     S
Zn695  O698    1.940   .     S
Zn695  O703    1.926   .     S
Zn695  O701    1.935   .     S
Zn696  O702    1.931   .     S
Zn696  O710    1.936   .     S
Zn696  O705    1.929   .     S
Zn696  O698    1.933   .     S
Zn697  O708    1.930   .     S
Zn697  O704    1.933   .     S
Zn697  O699    1.932   .     S
Zn697  O698    1.935   .     S
O699   C711    1.270   .     A
O700   C712    1.276   .     A
O701   C713    1.275   .     A
O702   C714    1.271   .     A
O703   C715    1.274   .     A
O704   C716    1.283   .     A
O705   C715    1.274   .     A
O706   C716    1.284   .     A
O707   C713    1.275   .     A
O708   C714    1.271   .     A
O709   C711    1.270   .     A
O710   C712    1.279   .     A
C711   C745    1.438   .     S
C712   C743    1.455   .     S
C713   C749    1.436   .     S
C714   C747    1.452   .     S
C715   C718    1.455   .     S
C716   C717    1.472   .     S
C717   C720    1.401   .     A
C717   C721    1.399   .     A
C718   C734    1.391   .     A
C718   C733    1.391   .     A
C719   C723    1.404   .     A
C719   C720    1.394   .     A
C719   H739    1.084   .     S
C720   H740    1.083   .     S
C721   C722    1.407   .     A
C721   H741    1.079   .     S
C722   C723    1.416   .     A
C722   C724    1.428   .     A
C723   C160    1.392   1_556 S
C724   C728    1.423   .     A
C724   C158    1.424   1_556 S
C725   C731    1.427   .     A
C725   C726    1.417   .     A
C726   C727    1.389   .     A
C726   H742    1.077   .     S
C727   H735    1.084   .     S
C728   N754    1.439   .     S
C728   C729    1.394   .     A
C729   H738    1.080   .     S
C729   C163    1.399   1_556 S
C730   C731    1.424   .     A
C730   C732    1.421   .     A
C731   C734    1.411   .     A
C732   C733    1.397   .     A
C732   N751    1.436   .     S
C733   H737    1.084   .     S
C734   H736    1.077   .     S
C743   H618    1.088   1_655 S
C743   C619    1.334   1_655 S
H746   C619    1.086   1_655 S
C747   H937    1.088   .     S
C747   C938    1.332   .     S
H748   C1125   1.088   1_545 S
C749   C1125   1.332   1_545 S
C749   H1128   1.086   1_545 S
H750   C938    1.086   .     S
N751   O753    1.301   .     A
N751   O752    1.301   .     A
N754   O755    1.302   .     A
N754   O756    1.302   .     A
Zn757  O770    1.928   .     S
Zn757  O761    1.954   .     S
Zn757  O769    1.924   .     S
Zn757  O763    1.926   .     S
Zn758  O772    1.929   .     S
Zn758  O761    1.940   .     S
Zn758  O766    1.926   .     S
Zn758  O764    1.935   .     S
Zn759  O765    1.931   .     S
Zn759  O773    1.936   .     S
Zn759  O768    1.929   .     S
Zn759  O761    1.933   .     S
Zn760  O771    1.930   .     S
Zn760  O767    1.933   .     S
Zn760  O762    1.932   .     S
Zn760  O761    1.935   .     S
O762   C774    1.270   .     A
O763   C775    1.276   .     A
O764   C776    1.275   .     A
O765   C777    1.271   .     A
O766   C778    1.274   .     A
O767   C779    1.283   .     A
O768   C778    1.274   .     A
O769   C779    1.284   .     A
O770   C776    1.275   .     A
O771   C777    1.271   .     A
O772   C774    1.270   .     A
O773   C775    1.279   .     A
C774   C808    1.438   .     S
C775   C806    1.455   .     S
C776   C812    1.436   .     S
C777   C810    1.452   .     S
C778   C781    1.455   .     S
C779   C780    1.472   .     S
C780   C783    1.401   .     A
C780   C784    1.399   .     A
C781   C797    1.391   .     A
C781   C796    1.391   .     A
C782   C786    1.404   .     A
C782   C783    1.394   .     A
C782   H802    1.084   .     S
C783   H803    1.083   .     S
C784   C785    1.407   .     A
C784   H804    1.079   .     S
C785   C786    1.416   .     A
C785   C787    1.428   .     A
C786   C223    1.392   1_556 S
C787   C791    1.423   .     A
C787   C221    1.424   1_556 S
C788   C794    1.427   .     A
C788   C789    1.417   .     A
C789   C790    1.389   .     A
C789   H805    1.077   .     S
C790   H798    1.084   .     S
C791   N817    1.439   .     S
C791   C792    1.394   .     A
C792   H801    1.080   .     S
C792   C226    1.399   1_556 S
C793   C794    1.424   .     A
C793   C795    1.421   .     A
C794   C797    1.411   .     A
C795   C796    1.397   .     A
C795   N814    1.436   .     S
C796   H800    1.084   .     S
C797   H799    1.077   .     S
C806   H870    1.088   .     S
C806   C871    1.334   .     S
H807   C932    1.088   1_455 S
C808   C932    1.334   1_455 S
C808   H935    1.086   1_455 S
H809   C871    1.086   .     S
C810   H1000   1.088   .     S
C810   C1001   1.332   .     S
H813   C1001   1.086   .     S
N814   O816    1.301   .     A
N814   O815    1.301   .     A
N817   O818    1.302   .     A
N817   O819    1.302   .     A
Zn820  O833    1.928   .     S
Zn820  O824    1.954   .     S
Zn820  O832    1.924   .     S
Zn820  O826    1.926   .     S
Zn821  O835    1.929   .     S
Zn821  O824    1.940   .     S
Zn821  O829    1.926   .     S
Zn821  O827    1.935   .     S
Zn822  O828    1.931   .     S
Zn822  O836    1.936   .     S
Zn822  O831    1.929   .     S
Zn822  O824    1.933   .     S
Zn823  O834    1.930   .     S
Zn823  O830    1.933   .     S
Zn823  O825    1.932   .     S
Zn823  O824    1.935   .     S
O825   C837    1.270   .     A
O826   C838    1.276   .     A
O827   C839    1.275   .     A
O828   C840    1.271   .     A
O829   C841    1.274   .     A
O830   C842    1.283   .     A
O831   C841    1.274   .     A
O832   C842    1.284   .     A
O833   C839    1.275   .     A
O834   C840    1.271   .     A
O835   C837    1.270   .     A
O836   C838    1.279   .     A
C837   C871    1.438   .     S
C838   C869    1.455   .     S
C839   C875    1.436   .     S
C840   C873    1.452   .     S
C841   C844    1.455   .     S
C842   C843    1.472   .     S
C843   C846    1.401   .     A
C843   C847    1.399   .     A
C844   C860    1.391   .     A
C844   C859    1.391   .     A
C845   C849    1.404   .     A
C845   C846    1.394   .     A
C845   H865    1.084   .     S
C846   H866    1.083   .     S
C847   C848    1.407   .     A
C847   H867    1.079   .     S
C848   C849    1.416   .     A
C848   C850    1.428   .     A
C849   C286    1.392   1_556 S
C850   C854    1.423   .     A
C850   C284    1.424   1_556 S
C851   C857    1.427   .     A
C851   C852    1.417   .     A
C852   C853    1.389   .     A
C852   H868    1.077   .     S
C853   H861    1.084   .     S
C854   N880    1.439   .     S
C854   C855    1.394   .     A
C855   H864    1.080   .     S
C855   C289    1.399   1_556 S
C856   C857    1.424   .     A
C856   C858    1.421   .     A
C857   C860    1.411   .     A
C858   C859    1.397   .     A
C858   N877    1.436   .     S
C859   H863    1.084   .     S
C860   H862    1.077   .     S
C869   H933    1.088   .     S
C869   C934    1.334   .     S
H872   C934    1.086   .     S
C873   H1063   1.088   .     S
C873   C1064   1.332   .     S
H876   C1064   1.086   .     S
N877   O879    1.301   .     A
N877   O878    1.301   .     A
N880   O881    1.302   .     A
N880   O882    1.302   .     A
Zn883  O896    1.928   .     S
Zn883  O887    1.954   .     S
Zn883  O895    1.924   .     S
Zn883  O889    1.926   .     S
Zn884  O898    1.929   .     S
Zn884  O887    1.940   .     S
Zn884  O892    1.926   .     S
Zn884  O890    1.935   .     S
Zn885  O891    1.931   .     S
Zn885  O899    1.936   .     S
Zn885  O894    1.929   .     S
Zn885  O887    1.933   .     S
Zn886  O897    1.930   .     S
Zn886  O893    1.933   .     S
Zn886  O888    1.932   .     S
Zn886  O887    1.935   .     S
O888   C900    1.270   .     A
O889   C901    1.276   .     A
O890   C902    1.275   .     A
O891   C903    1.271   .     A
O892   C904    1.274   .     A
O893   C905    1.283   .     A
O894   C904    1.274   .     A
O895   C905    1.284   .     A
O896   C902    1.275   .     A
O897   C903    1.271   .     A
O898   C900    1.270   .     A
O899   C901    1.279   .     A
C900   C934    1.438   .     S
C901   C932    1.455   .     S
C902   C938    1.436   .     S
C903   C936    1.452   .     S
C904   C907    1.455   .     S
C905   C906    1.472   .     S
C906   C909    1.401   .     A
C906   C910    1.399   .     A
C907   C923    1.391   .     A
C907   C922    1.391   .     A
C908   C912    1.404   .     A
C908   C909    1.394   .     A
C908   H928    1.084   .     S
C909   H929    1.083   .     S
C910   C911    1.407   .     A
C910   H930    1.079   .     S
C911   C912    1.416   .     A
C911   C913    1.428   .     A
C912   C349    1.392   1_556 S
C913   C917    1.423   .     A
C913   C347    1.424   1_556 S
C914   C920    1.427   .     A
C914   C915    1.417   .     A
C915   C916    1.389   .     A
C915   H931    1.077   .     S
C916   H924    1.084   .     S
C917   N943    1.439   .     S
C917   C918    1.394   .     A
C918   H927    1.080   .     S
C918   C352    1.399   1_556 S
C919   C920    1.424   .     A
C919   C921    1.421   .     A
C920   C923    1.411   .     A
C921   C922    1.397   .     A
C921   N940    1.436   .     S
C922   H926    1.084   .     S
C923   H925    1.077   .     S
C932   H807    1.088   1_655 S
C932   C808    1.334   1_655 S
H935   C808    1.086   1_655 S
C936   H1126   1.088   .     S
C936   C1127   1.332   .     S
H939   C1127   1.086   .     S
N940   O942    1.301   .     A
N940   O941    1.301   .     A
N943   O944    1.302   .     A
N943   O945    1.302   .     A
Zn946  O959    1.928   .     S
Zn946  O950    1.954   .     S
Zn946  O958    1.924   .     S
Zn946  O952    1.926   .     S
Zn947  O961    1.929   .     S
Zn947  O950    1.940   .     S
Zn947  O955    1.926   .     S
Zn947  O953    1.935   .     S
Zn948  O954    1.931   .     S
Zn948  O962    1.936   .     S
Zn948  O957    1.929   .     S
Zn948  O950    1.933   .     S
Zn949  O960    1.930   .     S
Zn949  O956    1.933   .     S
Zn949  O951    1.932   .     S
Zn949  O950    1.935   .     S
O951   C963    1.270   .     A
O952   C964    1.276   .     A
O953   C965    1.275   .     A
O954   C966    1.271   .     A
O955   C967    1.274   .     A
O956   C968    1.283   .     A
O957   C967    1.274   .     A
O958   C968    1.284   .     A
O959   C965    1.275   .     A
O960   C966    1.271   .     A
O961   C963    1.270   .     A
O962   C964    1.279   .     A
C963   C997    1.438   .     S
C964   C995    1.455   .     S
C965   C1001   1.436   .     S
C966   C999    1.452   .     S
C967   C970    1.455   .     S
C968   C969    1.472   .     S
C969   C972    1.401   .     A
C969   C973    1.399   .     A
C970   C986    1.391   .     A
C970   C985    1.391   .     A
C971   C975    1.404   .     A
C971   C972    1.394   .     A
C971   H991    1.084   .     S
C972   H992    1.083   .     S
C973   C974    1.407   .     A
C973   H993    1.079   .     S
C974   C975    1.416   .     A
C974   C976    1.428   .     A
C975   C412    1.392   1_556 S
C976   C980    1.423   .     A
C976   C410    1.424   1_556 S
C977   C983    1.427   .     A
C977   C978    1.417   .     A
C978   C979    1.389   .     A
C978   H994    1.077   .     S
C979   H987    1.084   .     S
C980   N1006   1.439   .     S
C980   C981    1.394   .     A
C981   H990    1.080   .     S
C981   C415    1.399   1_556 S
C982   C983    1.424   .     A
C982   C984    1.421   .     A
C983   C986    1.411   .     A
C984   C985    1.397   .     A
C984   N1003   1.436   .     S
C985   H989    1.084   .     S
C986   H988    1.077   .     S
C995   H1059   1.088   .     S
C995   C1060   1.334   .     S
H996   C1121   1.088   1_455 S
C997   C1121   1.334   1_455 S
C997   H1124   1.086   1_455 S
H998   C1060   1.086   .     S
C999   H622    1.088   1_565 S
C999   C623    1.332   1_565 S
H1002  C623    1.086   1_565 S
N1003  O1005   1.301   .     A
N1003  O1004   1.301   .     A
N1006  O1007   1.302   .     A
N1006  O1008   1.302   .     A
Zn1009 O1022   1.928   .     S
Zn1009 O1013   1.954   .     S
Zn1009 O1021   1.924   .     S
Zn1009 O1015   1.926   .     S
Zn1010 O1024   1.929   .     S
Zn1010 O1013   1.940   .     S
Zn1010 O1018   1.926   .     S
Zn1010 O1016   1.935   .     S
Zn1011 O1017   1.931   .     S
Zn1011 O1025   1.936   .     S
Zn1011 O1020   1.929   .     S
Zn1011 O1013   1.933   .     S
Zn1012 O1023   1.930   .     S
Zn1012 O1019   1.933   .     S
Zn1012 O1014   1.932   .     S
Zn1012 O1013   1.935   .     S
O1014  C1026   1.270   .     A
O1015  C1027   1.276   .     A
O1016  C1028   1.275   .     A
O1017  C1029   1.271   .     A
O1018  C1030   1.274   .     A
O1019  C1031   1.283   .     A
O1020  C1030   1.274   .     A
O1021  C1031   1.284   .     A
O1022  C1028   1.275   .     A
O1023  C1029   1.271   .     A
O1024  C1026   1.270   .     A
O1025  C1027   1.279   .     A
C1026  C1060   1.438   .     S
C1027  C1058   1.455   .     S
C1028  C1064   1.436   .     S
C1029  C1062   1.452   .     S
C1030  C1033   1.455   .     S
C1031  C1032   1.472   .     S
C1032  C1035   1.401   .     A
C1032  C1036   1.399   .     A
C1033  C1049   1.391   .     A
C1033  C1048   1.391   .     A
C1034  C1038   1.404   .     A
C1034  C1035   1.394   .     A
C1034  H1054   1.084   .     S
C1035  H1055   1.083   .     S
C1036  C1037   1.407   .     A
C1036  H1056   1.079   .     S
C1037  C1038   1.416   .     A
C1037  C1039   1.428   .     A
C1038  C475    1.392   1_556 S
C1039  C1043   1.423   .     A
C1039  C473    1.424   1_556 S
C1040  C1046   1.427   .     A
C1040  C1041   1.417   .     A
C1041  C1042   1.389   .     A
C1041  H1057   1.077   .     S
C1042  H1050   1.084   .     S
C1043  N1069   1.439   .     S
C1043  C1044   1.394   .     A
C1044  H1053   1.080   .     S
C1044  C478    1.399   1_556 S
C1045  C1046   1.424   .     A
C1045  C1047   1.421   .     A
C1046  C1049   1.411   .     A
C1047  C1048   1.397   .     A
C1047  N1066   1.436   .     S
C1048  H1052   1.084   .     S
C1049  H1051   1.077   .     S
C1058  H1122   1.088   .     S
C1058  C1123   1.334   .     S
H1061  C1123   1.086   .     S
C1062  H685    1.088   1_565 S
C1062  C686    1.332   1_565 S
H1065  C686    1.086   1_565 S
N1066  O1068   1.301   .     A
N1066  O1067   1.301   .     A
N1069  O1070   1.302   .     A
N1069  O1071   1.302   .     A
Zn1072 O1085   1.928   .     S
Zn1072 O1076   1.954   .     S
Zn1072 O1084   1.924   .     S
Zn1072 O1078   1.926   .     S
Zn1073 O1087   1.929   .     S
Zn1073 O1076   1.940   .     S
Zn1073 O1081   1.926   .     S
Zn1073 O1079   1.935   .     S
Zn1074 O1080   1.931   .     S
Zn1074 O1088   1.936   .     S
Zn1074 O1083   1.929   .     S
Zn1074 O1076   1.933   .     S
Zn1075 O1086   1.930   .     S
Zn1075 O1082   1.933   .     S
Zn1075 O1077   1.932   .     S
Zn1075 O1076   1.935   .     S
O1077  C1089   1.270   .     A
O1078  C1090   1.276   .     A
O1079  C1091   1.275   .     A
O1080  C1092   1.271   .     A
O1081  C1093   1.274   .     A
O1082  C1094   1.283   .     A
O1083  C1093   1.274   .     A
O1084  C1094   1.284   .     A
O1085  C1091   1.275   .     A
O1086  C1092   1.271   .     A
O1087  C1089   1.270   .     A
O1088  C1090   1.279   .     A
C1089  C1123   1.438   .     S
C1090  C1121   1.455   .     S
C1091  C1127   1.436   .     S
C1092  C1125   1.452   .     S
C1093  C1096   1.455   .     S
C1094  C1095   1.472   .     S
C1095  C1098   1.401   .     A
C1095  C1099   1.399   .     A
C1096  C1112   1.391   .     A
C1096  C1111   1.391   .     A
C1097  C1101   1.404   .     A
C1097  C1098   1.394   .     A
C1097  H1117   1.084   .     S
C1098  H1118   1.083   .     S
C1099  C1100   1.407   .     A
C1099  H1119   1.079   .     S
C1100  C1101   1.416   .     A
C1100  C1102   1.428   .     A
C1101  C538    1.392   1_556 S
C1102  C1106   1.423   .     A
C1102  C536    1.424   1_556 S
C1103  C1109   1.427   .     A
C1103  C1104   1.417   .     A
C1104  C1105   1.389   .     A
C1104  H1120   1.077   .     S
C1105  H1113   1.084   .     S
C1106  N1132   1.439   .     S
C1106  C1107   1.394   .     A
C1107  H1116   1.080   .     S
C1107  C541    1.399   1_556 S
C1108  C1109   1.424   .     A
C1108  C1110   1.421   .     A
C1109  C1112   1.411   .     A
C1110  C1111   1.397   .     A
C1110  N1129   1.436   .     S
C1111  H1115   1.084   .     S
C1112  H1114   1.077   .     S
C1121  H996    1.088   1_655 S
C1121  C997    1.334   1_655 S
H1124  C997    1.086   1_655 S
C1125  H748    1.088   1_565 S
C1125  C749    1.332   1_565 S
H1128  C749    1.086   1_565 S
N1129  O1131   1.301   .     A
N1129  O1130   1.301   .     A
N1132  O1133   1.302   .     A
N1132  O1134   1.302   .     A
