data_str_m1_o10_o16_pcu_sym.174
_audit_creation_date              2020-01-03
_audit_creation_method            'Materials Studio'
_symmetry_space_group_name_H-M    'P1'
_symmetry_Int_Tables_number       1
_symmetry_cell_setting            triclinic
loop_
_symmetry_equiv_pos_as_xyz
  x,y,z
_cell_length_a                    32.5480
_cell_length_b                    32.5162
_cell_length_c                    30.9919
_cell_angle_alpha                 96.3536
_cell_angle_beta                  74.5523
_cell_angle_gamma                 98.6655
loop_
_atom_site_label
_atom_site_type_symbol
_atom_site_fract_x
_atom_site_fract_y
_atom_site_fract_z
_atom_site_U_iso_or_equiv
_atom_site_adp_type
_atom_site_occupancy
C1     C     0.05275   0.15970   0.25992   0.00000  Uiso   1.00
C2     C     0.17502   0.16605   0.05902   0.00000  Uiso   1.00
C3     C     0.21109   0.10618   0.05822   0.00000  Uiso   1.00
C4     C     0.28085   0.17385   0.23993   0.00000  Uiso   1.00
C5     C     0.13889   0.19296   0.42099   0.00000  Uiso   1.00
C6     C     0.32677   0.17664   0.23576   0.00000  Uiso   1.00
C7     C     0.00745   0.15724   0.26383   0.00000  Uiso   1.00
C8     C     0.18086   0.32262   0.23444   0.00000  Uiso   1.00
C9     C     0.15277   0.01179   0.26330   0.00000  Uiso   1.00
C10    C     0.15557   0.05598   0.26078   0.00000  Uiso   1.00
C11    C     0.17673   0.27801   0.23972   0.00000  Uiso   1.00
C12    C     0.12505   0.24404   0.48583   0.00000  Uiso   1.00
C13    C     0.18560   0.14793   0.12930   0.00000  Uiso   1.00
C14    C     0.14806   0.18460   0.37126   0.00000  Uiso   1.00
C15    C     0.21031   0.09492   0.01360   0.00000  Uiso   1.00
C16    C     0.19221   0.14071   0.08103   0.00000  Uiso   1.00
C17    C     0.12456   0.23154   0.44103   0.00000  Uiso   1.00
C18    C     0.14243   0.21983   0.00910   0.00000  Uiso   1.00
C19    C     0.15469   0.18037   0.49099   0.00000  Uiso   1.00
C20    C     0.14839   0.16511   0.44819   0.00000  Uiso   1.00
C21    C     0.17278   0.15541   0.01435   0.00000  Uiso   1.00
C22    C     0.18775   0.11752   0.49281   0.00000  Uiso   1.00
C23    C     0.17537   0.10086   0.45392   0.00000  Uiso   1.00
C24    C     0.15166   0.12237   0.43465   0.00000  Uiso   1.00
H25    H     0.22545   0.08746   0.07567   0.00000  Uiso   1.00
H26    H     0.13158   0.28602   0.41185   0.00000  Uiso   1.00
H27    H     0.07950   0.26461   0.43184   0.00000  Uiso   1.00
H28    H     0.11559   0.02224   0.00362   0.00000  Uiso   1.00
H29    H     0.06829   0.03688   0.42638   0.00000  Uiso   1.00
H30    H     0.31894   0.13935   0.29014   0.00000  Uiso   1.00
H31    H     0.12768   0.33118   0.29028   0.00000  Uiso   1.00
H32    H     0.17924   0.06884   0.44164   0.00000  Uiso   1.00
H33    H     0.16074   0.19197   0.07903   0.00000  Uiso   1.00
H34    H     0.14570   0.23269   0.04161   0.00000  Uiso   1.00
H35    H     0.01592   0.19451   0.20979   0.00000  Uiso   1.00
H36    H     0.27423   0.32679   0.13568   0.00000  Uiso   1.00
H37    H     0.27306   0.03696   0.41691   0.00000  Uiso   1.00
N38    N     0.11058   0.25824   0.41532   0.00000  Uiso   1.00
O39    O     0.16667   0.16667   0.25000   0.00000  Uiso   1.00
O40    O     0.15451   0.12637   0.15458   0.00000  Uiso   1.00
O41    O     0.12940   0.20391   0.34968   0.00000  Uiso   1.00
O42    O     0.20824   0.17759   0.14606   0.00000  Uiso   1.00
O43    O     0.17451   0.15880   0.34968   0.00000  Uiso   1.00
O44    O     0.20215   0.03195   0.16060   0.00000  Uiso   1.00
O45    O     0.25028   0.04606   0.21063   0.00000  Uiso   1.00
O46    O     0.25312   0.31079   0.15914   0.00000  Uiso   1.00
O47    O     0.27426   0.04904   0.00612   0.00000  Uiso   1.00
O48    O     0.20834   0.01334   0.48847   0.00000  Uiso   1.00
O49    O     0.25974   0.06230   0.43073   0.00000  Uiso   1.00
O50    O     0.17930   0.08019   0.28213   0.00000  Uiso   1.00
O51    O     0.05554   0.28254   0.02189   0.00000  Uiso   1.00
O52    O     0.11465   0.29943   0.05844   0.00000  Uiso   1.00
O53    O     0.12284   0.33084   0.48276   0.00000  Uiso   1.00
O54    O     0.08709   0.11513   0.39170   0.00000  Uiso   1.00
O55    O     0.14013   0.06522   0.36855   0.00000  Uiso   1.00
O56    O     0.08348   0.05780   0.44441   0.00000  Uiso   1.00
O57    O     0.14632   0.26085   0.27014   0.00000  Uiso   1.00
O58    O     0.07412   0.13291   0.23413   0.00000  Uiso   1.00
O59    O     0.26693   0.19272   0.21360   0.00000  Uiso   1.00
O60    O     0.07071   0.18878   0.28213   0.00000  Uiso   1.00
O61    O     0.25491   0.15226   0.27013   0.00000  Uiso   1.00
O62    O     0.13760   0.06944   0.23413   0.00000  Uiso   1.00
O63    O     0.20345   0.25620   0.21360   0.00000  Uiso   1.00
S64    S     0.22233   0.01257   0.19042   0.00000  Uiso   1.00
S65    S     0.23860   0.05324   0.48510   0.00000  Uiso   1.00
S66    S     0.10359   0.28976   0.01398   0.00000  Uiso   1.00
S67    S     0.11524   0.09060   0.40743   0.00000  Uiso   1.00
Zn68   Zn    0.19338   0.13994   0.28734   0.00000  Uiso   1.00
Zn69   Zn    0.13379   0.12458   0.21875   0.00000  Uiso   1.00
Zn70   Zn    0.21056   0.19775   0.20657   0.00000  Uiso   1.00
Zn71   Zn    0.12893   0.20439   0.28734   0.00000  Uiso   1.00
C72    C     0.38608   0.15970   0.25992   0.00000  Uiso   1.00
C73    C     0.50835   0.16605   0.05902   0.00000  Uiso   1.00
C74    C     0.54442   0.10618   0.05822   0.00000  Uiso   1.00
C75    C     0.61419   0.17385   0.23993   0.00000  Uiso   1.00
C76    C     0.47222   0.19296   0.42099   0.00000  Uiso   1.00
C77    C     0.66010   0.17664   0.23576   0.00000  Uiso   1.00
C78    C     0.34078   0.15724   0.26383   0.00000  Uiso   1.00
C79    C     0.51420   0.32262   0.23444   0.00000  Uiso   1.00
C80    C     0.48611   0.01179   0.26330   0.00000  Uiso   1.00
C81    C     0.48891   0.05598   0.26078   0.00000  Uiso   1.00
C82    C     0.51006   0.27801   0.23972   0.00000  Uiso   1.00
C83    C     0.45838   0.24404   0.48583   0.00000  Uiso   1.00
C84    C     0.51894   0.14793   0.12930   0.00000  Uiso   1.00
C85    C     0.48140   0.18460   0.37126   0.00000  Uiso   1.00
C86    C     0.54364   0.09492   0.01360   0.00000  Uiso   1.00
C87    C     0.52555   0.14071   0.08103   0.00000  Uiso   1.00
C88    C     0.45789   0.23154   0.44103   0.00000  Uiso   1.00
C89    C     0.47577   0.21983   0.00910   0.00000  Uiso   1.00
C90    C     0.48802   0.18037   0.49099   0.00000  Uiso   1.00
C91    C     0.48173   0.16511   0.44819   0.00000  Uiso   1.00
C92    C     0.50611   0.15541   0.01435   0.00000  Uiso   1.00
C93    C     0.52109   0.11752   0.49281   0.00000  Uiso   1.00
C94    C     0.50871   0.10086   0.45392   0.00000  Uiso   1.00
C95    C     0.48499   0.12237   0.43465   0.00000  Uiso   1.00
H96    H     0.55879   0.08746   0.07567   0.00000  Uiso   1.00
H97    H     0.46491   0.28602   0.41185   0.00000  Uiso   1.00
H98    H     0.41284   0.26461   0.43184   0.00000  Uiso   1.00
H99    H     0.44892   0.02224   0.00362   0.00000  Uiso   1.00
H100   H     0.40162   0.03688   0.42638   0.00000  Uiso   1.00
H101   H     0.65228   0.13935   0.29014   0.00000  Uiso   1.00
H102   H     0.46101   0.33118   0.29028   0.00000  Uiso   1.00
H103   H     0.51257   0.06884   0.44164   0.00000  Uiso   1.00
H104   H     0.49408   0.19197   0.07903   0.00000  Uiso   1.00
H105   H     0.47904   0.23269   0.04161   0.00000  Uiso   1.00
H106   H     0.34925   0.19451   0.20979   0.00000  Uiso   1.00
H107   H     0.60756   0.32679   0.13568   0.00000  Uiso   1.00
H108   H     0.60639   0.03696   0.41691   0.00000  Uiso   1.00
N109   N     0.44391   0.25824   0.41532   0.00000  Uiso   1.00
O110   O     0.50000   0.16667   0.25000   0.00000  Uiso   1.00
O111   O     0.48784   0.12637   0.15458   0.00000  Uiso   1.00
O112   O     0.46274   0.20391   0.34968   0.00000  Uiso   1.00
O113   O     0.54157   0.17759   0.14606   0.00000  Uiso   1.00
O114   O     0.50785   0.15880   0.34968   0.00000  Uiso   1.00
O115   O     0.53548   0.03195   0.16060   0.00000  Uiso   1.00
O116   O     0.58362   0.04606   0.21063   0.00000  Uiso   1.00
O117   O     0.58645   0.31079   0.15914   0.00000  Uiso   1.00
O118   O     0.60759   0.04904   0.00612   0.00000  Uiso   1.00
O119   O     0.54168   0.01334   0.48847   0.00000  Uiso   1.00
O120   O     0.59307   0.06230   0.43073   0.00000  Uiso   1.00
O121   O     0.51264   0.08019   0.28213   0.00000  Uiso   1.00
O122   O     0.38888   0.28254   0.02189   0.00000  Uiso   1.00
O123   O     0.44798   0.29943   0.05844   0.00000  Uiso   1.00
O124   O     0.45617   0.33084   0.48276   0.00000  Uiso   1.00
O125   O     0.42042   0.11513   0.39170   0.00000  Uiso   1.00
O126   O     0.47346   0.06522   0.36855   0.00000  Uiso   1.00
O127   O     0.41682   0.05780   0.44441   0.00000  Uiso   1.00
O128   O     0.47965   0.26085   0.27014   0.00000  Uiso   1.00
O129   O     0.40745   0.13291   0.23413   0.00000  Uiso   1.00
O130   O     0.60026   0.19272   0.21360   0.00000  Uiso   1.00
O131   O     0.40405   0.18878   0.28213   0.00000  Uiso   1.00
O132   O     0.58824   0.15226   0.27013   0.00000  Uiso   1.00
O133   O     0.47093   0.06944   0.23413   0.00000  Uiso   1.00
O134   O     0.53678   0.25620   0.21360   0.00000  Uiso   1.00
S135   S     0.55566   0.01257   0.19042   0.00000  Uiso   1.00
S136   S     0.57193   0.05324   0.48510   0.00000  Uiso   1.00
S137   S     0.43692   0.28976   0.01398   0.00000  Uiso   1.00
S138   S     0.44857   0.09060   0.40743   0.00000  Uiso   1.00
Zn139  Zn    0.52672   0.13994   0.28734   0.00000  Uiso   1.00
Zn140  Zn    0.46713   0.12458   0.21875   0.00000  Uiso   1.00
Zn141  Zn    0.54389   0.19775   0.20657   0.00000  Uiso   1.00
Zn142  Zn    0.46226   0.20439   0.28734   0.00000  Uiso   1.00
C143   C     0.71942   0.15970   0.25992   0.00000  Uiso   1.00
C144   C     0.84169   0.16605   0.05902   0.00000  Uiso   1.00
C145   C     0.87776   0.10618   0.05822   0.00000  Uiso   1.00
C146   C     0.94752   0.17385   0.23993   0.00000  Uiso   1.00
C147   C     0.80555   0.19296   0.42099   0.00000  Uiso   1.00
C148   C     0.99343   0.17664   0.23576   0.00000  Uiso   1.00
C149   C     0.67411   0.15724   0.26383   0.00000  Uiso   1.00
C150   C     0.84753   0.32262   0.23444   0.00000  Uiso   1.00
C151   C     0.81944   0.01179   0.26330   0.00000  Uiso   1.00
C152   C     0.82224   0.05598   0.26078   0.00000  Uiso   1.00
C153   C     0.84339   0.27801   0.23972   0.00000  Uiso   1.00
C154   C     0.79172   0.24404   0.48583   0.00000  Uiso   1.00
C155   C     0.85227   0.14793   0.12930   0.00000  Uiso   1.00
C156   C     0.81473   0.18460   0.37126   0.00000  Uiso   1.00
C157   C     0.87698   0.09492   0.01360   0.00000  Uiso   1.00
C158   C     0.85888   0.14071   0.08103   0.00000  Uiso   1.00
C159   C     0.79123   0.23154   0.44103   0.00000  Uiso   1.00
C160   C     0.80910   0.21983   0.00910   0.00000  Uiso   1.00
C161   C     0.82136   0.18037   0.49099   0.00000  Uiso   1.00
C162   C     0.81506   0.16511   0.44819   0.00000  Uiso   1.00
C163   C     0.83944   0.15541   0.01435   0.00000  Uiso   1.00
C164   C     0.85442   0.11752   0.49281   0.00000  Uiso   1.00
C165   C     0.84204   0.10086   0.45392   0.00000  Uiso   1.00
C166   C     0.81833   0.12237   0.43465   0.00000  Uiso   1.00
H167   H     0.89212   0.08746   0.07567   0.00000  Uiso   1.00
H168   H     0.79824   0.28602   0.41185   0.00000  Uiso   1.00
H169   H     0.74617   0.26461   0.43184   0.00000  Uiso   1.00
H170   H     0.78225   0.02224   0.00362   0.00000  Uiso   1.00
H171   H     0.73496   0.03688   0.42638   0.00000  Uiso   1.00
H172   H     0.98561   0.13935   0.29014   0.00000  Uiso   1.00
H173   H     0.79435   0.33118   0.29028   0.00000  Uiso   1.00
H174   H     0.84591   0.06884   0.44164   0.00000  Uiso   1.00
H175   H     0.82741   0.19197   0.07903   0.00000  Uiso   1.00
H176   H     0.81237   0.23269   0.04161   0.00000  Uiso   1.00
H177   H     0.68259   0.19451   0.20979   0.00000  Uiso   1.00
H178   H     0.94090   0.32679   0.13568   0.00000  Uiso   1.00
H179   H     0.93973   0.03696   0.41691   0.00000  Uiso   1.00
N180   N     0.77725   0.25824   0.41532   0.00000  Uiso   1.00
O181   O     0.83333   0.16667   0.25000   0.00000  Uiso   1.00
O182   O     0.82118   0.12637   0.15458   0.00000  Uiso   1.00
O183   O     0.79607   0.20391   0.34968   0.00000  Uiso   1.00
O184   O     0.87491   0.17759   0.14606   0.00000  Uiso   1.00
O185   O     0.84118   0.15880   0.34968   0.00000  Uiso   1.00
O186   O     0.86882   0.03195   0.16060   0.00000  Uiso   1.00
O187   O     0.91695   0.04606   0.21063   0.00000  Uiso   1.00
O188   O     0.91979   0.31079   0.15914   0.00000  Uiso   1.00
O189   O     0.94093   0.04904   0.00612   0.00000  Uiso   1.00
O190   O     0.87501   0.01334   0.48847   0.00000  Uiso   1.00
O191   O     0.92640   0.06230   0.43073   0.00000  Uiso   1.00
O192   O     0.84597   0.08019   0.28213   0.00000  Uiso   1.00
O193   O     0.72221   0.28254   0.02189   0.00000  Uiso   1.00
O194   O     0.78132   0.29943   0.05844   0.00000  Uiso   1.00
O195   O     0.78950   0.33084   0.48276   0.00000  Uiso   1.00
O196   O     0.75376   0.11513   0.39170   0.00000  Uiso   1.00
O197   O     0.80680   0.06522   0.36855   0.00000  Uiso   1.00
O198   O     0.75015   0.05780   0.44441   0.00000  Uiso   1.00
O199   O     0.81298   0.26085   0.27014   0.00000  Uiso   1.00
O200   O     0.74078   0.13291   0.23413   0.00000  Uiso   1.00
O201   O     0.93360   0.19272   0.21360   0.00000  Uiso   1.00
O202   O     0.73738   0.18878   0.28213   0.00000  Uiso   1.00
O203   O     0.92158   0.15226   0.27013   0.00000  Uiso   1.00
O204   O     0.80426   0.06944   0.23413   0.00000  Uiso   1.00
O205   O     0.87012   0.25620   0.21360   0.00000  Uiso   1.00
S206   S     0.88900   0.01257   0.19042   0.00000  Uiso   1.00
S207   S     0.90527   0.05324   0.48510   0.00000  Uiso   1.00
S208   S     0.77025   0.28976   0.01398   0.00000  Uiso   1.00
S209   S     0.78190   0.09060   0.40743   0.00000  Uiso   1.00
Zn210  Zn    0.86005   0.13994   0.28734   0.00000  Uiso   1.00
Zn211  Zn    0.80046   0.12458   0.21875   0.00000  Uiso   1.00
Zn212  Zn    0.87723   0.19775   0.20657   0.00000  Uiso   1.00
Zn213  Zn    0.79560   0.20439   0.28734   0.00000  Uiso   1.00
C214   C     0.05275   0.49303   0.25992   0.00000  Uiso   1.00
C215   C     0.17502   0.49938   0.05902   0.00000  Uiso   1.00
C216   C     0.21109   0.43951   0.05822   0.00000  Uiso   1.00
C217   C     0.28085   0.50718   0.23993   0.00000  Uiso   1.00
C218   C     0.13889   0.52629   0.42099   0.00000  Uiso   1.00
C219   C     0.32677   0.50997   0.23576   0.00000  Uiso   1.00
C220   C     0.00745   0.49057   0.26383   0.00000  Uiso   1.00
C221   C     0.18086   0.65596   0.23444   0.00000  Uiso   1.00
C222   C     0.15277   0.34512   0.26330   0.00000  Uiso   1.00
C223   C     0.15557   0.38931   0.26078   0.00000  Uiso   1.00
C224   C     0.17673   0.61135   0.23972   0.00000  Uiso   1.00
C225   C     0.12505   0.57738   0.48583   0.00000  Uiso   1.00
C226   C     0.18560   0.48126   0.12930   0.00000  Uiso   1.00
C227   C     0.14806   0.51793   0.37126   0.00000  Uiso   1.00
C228   C     0.21031   0.42826   0.01360   0.00000  Uiso   1.00
C229   C     0.19221   0.47405   0.08103   0.00000  Uiso   1.00
C230   C     0.12456   0.56487   0.44103   0.00000  Uiso   1.00
C231   C     0.14243   0.55316   0.00910   0.00000  Uiso   1.00
C232   C     0.15469   0.51370   0.49099   0.00000  Uiso   1.00
C233   C     0.14839   0.49844   0.44819   0.00000  Uiso   1.00
C234   C     0.17278   0.48874   0.01435   0.00000  Uiso   1.00
C235   C     0.18775   0.45085   0.49281   0.00000  Uiso   1.00
C236   C     0.17537   0.43419   0.45392   0.00000  Uiso   1.00
C237   C     0.15166   0.45571   0.43465   0.00000  Uiso   1.00
H238   H     0.22545   0.42080   0.07567   0.00000  Uiso   1.00
H239   H     0.13158   0.61935   0.41185   0.00000  Uiso   1.00
H240   H     0.07950   0.59794   0.43184   0.00000  Uiso   1.00
H241   H     0.11559   0.35558   0.00362   0.00000  Uiso   1.00
H242   H     0.06829   0.37021   0.42638   0.00000  Uiso   1.00
H243   H     0.31894   0.47268   0.29014   0.00000  Uiso   1.00
H244   H     0.12768   0.66451   0.29028   0.00000  Uiso   1.00
H245   H     0.17924   0.40218   0.44164   0.00000  Uiso   1.00
H246   H     0.16074   0.52530   0.07903   0.00000  Uiso   1.00
H247   H     0.14570   0.56603   0.04161   0.00000  Uiso   1.00
H248   H     0.01592   0.52784   0.20979   0.00000  Uiso   1.00
H249   H     0.27423   0.66013   0.13568   0.00000  Uiso   1.00
H250   H     0.27306   0.37029   0.41691   0.00000  Uiso   1.00
N251   N     0.11058   0.59158   0.41532   0.00000  Uiso   1.00
O252   O     0.16667   0.50000   0.25000   0.00000  Uiso   1.00
O253   O     0.15451   0.45970   0.15458   0.00000  Uiso   1.00
O254   O     0.12940   0.53724   0.34968   0.00000  Uiso   1.00
O255   O     0.20824   0.51092   0.14606   0.00000  Uiso   1.00
O256   O     0.17451   0.49213   0.34968   0.00000  Uiso   1.00
O257   O     0.20215   0.36528   0.16060   0.00000  Uiso   1.00
O258   O     0.25028   0.37939   0.21063   0.00000  Uiso   1.00
O259   O     0.25312   0.64413   0.15914   0.00000  Uiso   1.00
O260   O     0.27426   0.38237   0.00612   0.00000  Uiso   1.00
O261   O     0.20834   0.34667   0.48847   0.00000  Uiso   1.00
O262   O     0.25974   0.39563   0.43073   0.00000  Uiso   1.00
O263   O     0.17930   0.41352   0.28213   0.00000  Uiso   1.00
O264   O     0.05554   0.61587   0.02189   0.00000  Uiso   1.00
O265   O     0.11465   0.63277   0.05844   0.00000  Uiso   1.00
O266   O     0.12284   0.66417   0.48276   0.00000  Uiso   1.00
O267   O     0.08709   0.44846   0.39170   0.00000  Uiso   1.00
O268   O     0.14013   0.39855   0.36855   0.00000  Uiso   1.00
O269   O     0.08348   0.39114   0.44441   0.00000  Uiso   1.00
O270   O     0.14632   0.59418   0.27014   0.00000  Uiso   1.00
O271   O     0.07412   0.46625   0.23413   0.00000  Uiso   1.00
O272   O     0.26693   0.52605   0.21360   0.00000  Uiso   1.00
O273   O     0.07071   0.52211   0.28213   0.00000  Uiso   1.00
O274   O     0.25491   0.48559   0.27013   0.00000  Uiso   1.00
O275   O     0.13760   0.40277   0.23413   0.00000  Uiso   1.00
O276   O     0.20345   0.58953   0.21360   0.00000  Uiso   1.00
S277   S     0.22233   0.34590   0.19042   0.00000  Uiso   1.00
S278   S     0.23860   0.38657   0.48510   0.00000  Uiso   1.00
S279   S     0.10359   0.62310   0.01398   0.00000  Uiso   1.00
S280   S     0.11524   0.42393   0.40743   0.00000  Uiso   1.00
Zn281  Zn    0.19338   0.47327   0.28734   0.00000  Uiso   1.00
Zn282  Zn    0.13379   0.45791   0.21875   0.00000  Uiso   1.00
Zn283  Zn    0.21056   0.53109   0.20657   0.00000  Uiso   1.00
Zn284  Zn    0.12893   0.53773   0.28734   0.00000  Uiso   1.00
C285   C     0.38608   0.49303   0.25992   0.00000  Uiso   1.00
C286   C     0.50835   0.49938   0.05902   0.00000  Uiso   1.00
C287   C     0.54442   0.43951   0.05822   0.00000  Uiso   1.00
C288   C     0.61419   0.50718   0.23993   0.00000  Uiso   1.00
C289   C     0.47222   0.52629   0.42099   0.00000  Uiso   1.00
C290   C     0.66010   0.50997   0.23576   0.00000  Uiso   1.00
C291   C     0.34078   0.49057   0.26383   0.00000  Uiso   1.00
C292   C     0.51420   0.65596   0.23444   0.00000  Uiso   1.00
C293   C     0.48611   0.34512   0.26330   0.00000  Uiso   1.00
C294   C     0.48891   0.38931   0.26078   0.00000  Uiso   1.00
C295   C     0.51006   0.61135   0.23972   0.00000  Uiso   1.00
C296   C     0.45838   0.57738   0.48583   0.00000  Uiso   1.00
C297   C     0.51894   0.48126   0.12930   0.00000  Uiso   1.00
C298   C     0.48140   0.51793   0.37126   0.00000  Uiso   1.00
C299   C     0.54364   0.42826   0.01360   0.00000  Uiso   1.00
C300   C     0.52555   0.47405   0.08103   0.00000  Uiso   1.00
C301   C     0.45789   0.56487   0.44103   0.00000  Uiso   1.00
C302   C     0.47577   0.55316   0.00910   0.00000  Uiso   1.00
C303   C     0.48802   0.51370   0.49099   0.00000  Uiso   1.00
C304   C     0.48173   0.49844   0.44819   0.00000  Uiso   1.00
C305   C     0.50611   0.48874   0.01435   0.00000  Uiso   1.00
C306   C     0.52109   0.45085   0.49281   0.00000  Uiso   1.00
C307   C     0.50871   0.43419   0.45392   0.00000  Uiso   1.00
C308   C     0.48499   0.45571   0.43465   0.00000  Uiso   1.00
H309   H     0.55879   0.42080   0.07567   0.00000  Uiso   1.00
H310   H     0.46491   0.61935   0.41185   0.00000  Uiso   1.00
H311   H     0.41284   0.59794   0.43184   0.00000  Uiso   1.00
H312   H     0.44892   0.35558   0.00362   0.00000  Uiso   1.00
H313   H     0.40162   0.37021   0.42638   0.00000  Uiso   1.00
H314   H     0.65228   0.47268   0.29014   0.00000  Uiso   1.00
H315   H     0.46101   0.66451   0.29028   0.00000  Uiso   1.00
H316   H     0.51257   0.40218   0.44164   0.00000  Uiso   1.00
H317   H     0.49408   0.52530   0.07903   0.00000  Uiso   1.00
H318   H     0.47904   0.56603   0.04161   0.00000  Uiso   1.00
H319   H     0.34925   0.52784   0.20979   0.00000  Uiso   1.00
H320   H     0.60756   0.66013   0.13568   0.00000  Uiso   1.00
H321   H     0.60639   0.37029   0.41691   0.00000  Uiso   1.00
N322   N     0.44391   0.59158   0.41532   0.00000  Uiso   1.00
O323   O     0.50000   0.50000   0.25000   0.00000  Uiso   1.00
O324   O     0.48784   0.45970   0.15458   0.00000  Uiso   1.00
O325   O     0.46274   0.53724   0.34968   0.00000  Uiso   1.00
O326   O     0.54157   0.51092   0.14606   0.00000  Uiso   1.00
O327   O     0.50785   0.49213   0.34968   0.00000  Uiso   1.00
O328   O     0.53548   0.36528   0.16060   0.00000  Uiso   1.00
O329   O     0.58362   0.37939   0.21063   0.00000  Uiso   1.00
O330   O     0.58645   0.64413   0.15914   0.00000  Uiso   1.00
O331   O     0.60759   0.38237   0.00612   0.00000  Uiso   1.00
O332   O     0.54168   0.34667   0.48847   0.00000  Uiso   1.00
O333   O     0.59307   0.39563   0.43073   0.00000  Uiso   1.00
O334   O     0.51264   0.41352   0.28213   0.00000  Uiso   1.00
O335   O     0.38888   0.61587   0.02189   0.00000  Uiso   1.00
O336   O     0.44798   0.63277   0.05844   0.00000  Uiso   1.00
O337   O     0.45617   0.66417   0.48276   0.00000  Uiso   1.00
O338   O     0.42042   0.44846   0.39170   0.00000  Uiso   1.00
O339   O     0.47346   0.39855   0.36855   0.00000  Uiso   1.00
O340   O     0.41682   0.39114   0.44441   0.00000  Uiso   1.00
O341   O     0.47965   0.59418   0.27014   0.00000  Uiso   1.00
O342   O     0.40745   0.46625   0.23413   0.00000  Uiso   1.00
O343   O     0.60026   0.52605   0.21360   0.00000  Uiso   1.00
O344   O     0.40405   0.52211   0.28213   0.00000  Uiso   1.00
O345   O     0.58824   0.48559   0.27013   0.00000  Uiso   1.00
O346   O     0.47093   0.40277   0.23413   0.00000  Uiso   1.00
O347   O     0.53678   0.58953   0.21360   0.00000  Uiso   1.00
S348   S     0.55566   0.34590   0.19042   0.00000  Uiso   1.00
S349   S     0.57193   0.38657   0.48510   0.00000  Uiso   1.00
S350   S     0.43692   0.62310   0.01398   0.00000  Uiso   1.00
S351   S     0.44857   0.42393   0.40743   0.00000  Uiso   1.00
Zn352  Zn    0.52672   0.47327   0.28734   0.00000  Uiso   1.00
Zn353  Zn    0.46713   0.45791   0.21875   0.00000  Uiso   1.00
Zn354  Zn    0.54389   0.53109   0.20657   0.00000  Uiso   1.00
Zn355  Zn    0.46226   0.53773   0.28734   0.00000  Uiso   1.00
C356   C     0.71942   0.49303   0.25992   0.00000  Uiso   1.00
C357   C     0.84169   0.49938   0.05902   0.00000  Uiso   1.00
C358   C     0.87776   0.43951   0.05822   0.00000  Uiso   1.00
C359   C     0.94752   0.50718   0.23993   0.00000  Uiso   1.00
C360   C     0.80555   0.52629   0.42099   0.00000  Uiso   1.00
C361   C     0.99343   0.50997   0.23576   0.00000  Uiso   1.00
C362   C     0.67411   0.49057   0.26383   0.00000  Uiso   1.00
C363   C     0.84753   0.65596   0.23444   0.00000  Uiso   1.00
C364   C     0.81944   0.34512   0.26330   0.00000  Uiso   1.00
C365   C     0.82224   0.38931   0.26078   0.00000  Uiso   1.00
C366   C     0.84339   0.61135   0.23972   0.00000  Uiso   1.00
C367   C     0.79172   0.57738   0.48583   0.00000  Uiso   1.00
C368   C     0.85227   0.48126   0.12930   0.00000  Uiso   1.00
C369   C     0.81473   0.51793   0.37126   0.00000  Uiso   1.00
C370   C     0.87698   0.42826   0.01360   0.00000  Uiso   1.00
C371   C     0.85888   0.47405   0.08103   0.00000  Uiso   1.00
C372   C     0.79123   0.56487   0.44103   0.00000  Uiso   1.00
C373   C     0.80910   0.55316   0.00910   0.00000  Uiso   1.00
C374   C     0.82136   0.51370   0.49099   0.00000  Uiso   1.00
C375   C     0.81506   0.49844   0.44819   0.00000  Uiso   1.00
C376   C     0.83944   0.48874   0.01435   0.00000  Uiso   1.00
C377   C     0.85442   0.45085   0.49281   0.00000  Uiso   1.00
C378   C     0.84204   0.43419   0.45392   0.00000  Uiso   1.00
C379   C     0.81833   0.45571   0.43465   0.00000  Uiso   1.00
H380   H     0.89212   0.42080   0.07567   0.00000  Uiso   1.00
H381   H     0.79824   0.61935   0.41185   0.00000  Uiso   1.00
H382   H     0.74617   0.59794   0.43184   0.00000  Uiso   1.00
H383   H     0.78225   0.35558   0.00362   0.00000  Uiso   1.00
H384   H     0.73496   0.37021   0.42638   0.00000  Uiso   1.00
H385   H     0.98561   0.47268   0.29014   0.00000  Uiso   1.00
H386   H     0.79435   0.66451   0.29028   0.00000  Uiso   1.00
H387   H     0.84591   0.40218   0.44164   0.00000  Uiso   1.00
H388   H     0.82741   0.52530   0.07903   0.00000  Uiso   1.00
H389   H     0.81237   0.56603   0.04161   0.00000  Uiso   1.00
H390   H     0.68259   0.52784   0.20979   0.00000  Uiso   1.00
H391   H     0.94090   0.66013   0.13568   0.00000  Uiso   1.00
H392   H     0.93973   0.37029   0.41691   0.00000  Uiso   1.00
N393   N     0.77725   0.59158   0.41532   0.00000  Uiso   1.00
O394   O     0.83333   0.50000   0.25000   0.00000  Uiso   1.00
O395   O     0.82118   0.45970   0.15458   0.00000  Uiso   1.00
O396   O     0.79607   0.53724   0.34968   0.00000  Uiso   1.00
O397   O     0.87491   0.51092   0.14606   0.00000  Uiso   1.00
O398   O     0.84118   0.49213   0.34968   0.00000  Uiso   1.00
O399   O     0.86882   0.36528   0.16060   0.00000  Uiso   1.00
O400   O     0.91695   0.37939   0.21063   0.00000  Uiso   1.00
O401   O     0.91979   0.64413   0.15914   0.00000  Uiso   1.00
O402   O     0.94093   0.38237   0.00612   0.00000  Uiso   1.00
O403   O     0.87501   0.34667   0.48847   0.00000  Uiso   1.00
O404   O     0.92640   0.39563   0.43073   0.00000  Uiso   1.00
O405   O     0.84597   0.41352   0.28213   0.00000  Uiso   1.00
O406   O     0.72221   0.61587   0.02189   0.00000  Uiso   1.00
O407   O     0.78132   0.63277   0.05844   0.00000  Uiso   1.00
O408   O     0.78950   0.66417   0.48276   0.00000  Uiso   1.00
O409   O     0.75376   0.44846   0.39170   0.00000  Uiso   1.00
O410   O     0.80680   0.39855   0.36855   0.00000  Uiso   1.00
O411   O     0.75015   0.39114   0.44441   0.00000  Uiso   1.00
O412   O     0.81298   0.59418   0.27014   0.00000  Uiso   1.00
O413   O     0.74078   0.46625   0.23413   0.00000  Uiso   1.00
O414   O     0.93360   0.52605   0.21360   0.00000  Uiso   1.00
O415   O     0.73738   0.52211   0.28213   0.00000  Uiso   1.00
O416   O     0.92158   0.48559   0.27013   0.00000  Uiso   1.00
O417   O     0.80426   0.40277   0.23413   0.00000  Uiso   1.00
O418   O     0.87012   0.58953   0.21360   0.00000  Uiso   1.00
S419   S     0.88900   0.34590   0.19042   0.00000  Uiso   1.00
S420   S     0.90527   0.38657   0.48510   0.00000  Uiso   1.00
S421   S     0.77025   0.62310   0.01398   0.00000  Uiso   1.00
S422   S     0.78190   0.42393   0.40743   0.00000  Uiso   1.00
Zn423  Zn    0.86005   0.47327   0.28734   0.00000  Uiso   1.00
Zn424  Zn    0.80046   0.45791   0.21875   0.00000  Uiso   1.00
Zn425  Zn    0.87723   0.53109   0.20657   0.00000  Uiso   1.00
Zn426  Zn    0.79560   0.53773   0.28734   0.00000  Uiso   1.00
C427   C     0.05275   0.82637   0.25992   0.00000  Uiso   1.00
C428   C     0.17502   0.83271   0.05902   0.00000  Uiso   1.00
C429   C     0.21109   0.77284   0.05822   0.00000  Uiso   1.00
C430   C     0.28085   0.84052   0.23993   0.00000  Uiso   1.00
C431   C     0.13889   0.85963   0.42099   0.00000  Uiso   1.00
C432   C     0.32677   0.84331   0.23576   0.00000  Uiso   1.00
C433   C     0.00745   0.82390   0.26383   0.00000  Uiso   1.00
C434   C     0.18086   0.98929   0.23444   0.00000  Uiso   1.00
C435   C     0.15277   0.67846   0.26330   0.00000  Uiso   1.00
C436   C     0.15557   0.72264   0.26078   0.00000  Uiso   1.00
C437   C     0.17673   0.94468   0.23972   0.00000  Uiso   1.00
C438   C     0.12505   0.91071   0.48583   0.00000  Uiso   1.00
C439   C     0.18560   0.81459   0.12930   0.00000  Uiso   1.00
C440   C     0.14806   0.85126   0.37126   0.00000  Uiso   1.00
C441   C     0.21031   0.76159   0.01360   0.00000  Uiso   1.00
C442   C     0.19221   0.80738   0.08103   0.00000  Uiso   1.00
C443   C     0.12456   0.89821   0.44103   0.00000  Uiso   1.00
C444   C     0.14243   0.88649   0.00910   0.00000  Uiso   1.00
C445   C     0.15469   0.84704   0.49099   0.00000  Uiso   1.00
C446   C     0.14839   0.83178   0.44819   0.00000  Uiso   1.00
C447   C     0.17278   0.82208   0.01435   0.00000  Uiso   1.00
C448   C     0.18775   0.78419   0.49281   0.00000  Uiso   1.00
C449   C     0.17537   0.76752   0.45392   0.00000  Uiso   1.00
C450   C     0.15166   0.78904   0.43465   0.00000  Uiso   1.00
H451   H     0.22545   0.75413   0.07567   0.00000  Uiso   1.00
H452   H     0.13158   0.95268   0.41185   0.00000  Uiso   1.00
H453   H     0.07950   0.93128   0.43184   0.00000  Uiso   1.00
H454   H     0.11559   0.68891   0.00362   0.00000  Uiso   1.00
H455   H     0.06829   0.70355   0.42638   0.00000  Uiso   1.00
H456   H     0.31894   0.80601   0.29014   0.00000  Uiso   1.00
H457   H     0.12768   0.99784   0.29028   0.00000  Uiso   1.00
H458   H     0.17924   0.73551   0.44164   0.00000  Uiso   1.00
H459   H     0.16074   0.85864   0.07903   0.00000  Uiso   1.00
H460   H     0.14570   0.89936   0.04161   0.00000  Uiso   1.00
H461   H     0.01592   0.86117   0.20979   0.00000  Uiso   1.00
H462   H     0.27423   0.99346   0.13568   0.00000  Uiso   1.00
H463   H     0.27306   0.70362   0.41691   0.00000  Uiso   1.00
N464   N     0.11058   0.92491   0.41532   0.00000  Uiso   1.00
O465   O     0.16667   0.83333   0.25000   0.00000  Uiso   1.00
O466   O     0.15451   0.79304   0.15458   0.00000  Uiso   1.00
O467   O     0.12940   0.87058   0.34968   0.00000  Uiso   1.00
O468   O     0.20824   0.84425   0.14606   0.00000  Uiso   1.00
O469   O     0.17451   0.82546   0.34968   0.00000  Uiso   1.00
O470   O     0.20215   0.69862   0.16060   0.00000  Uiso   1.00
O471   O     0.25028   0.71273   0.21063   0.00000  Uiso   1.00
O472   O     0.25312   0.97746   0.15914   0.00000  Uiso   1.00
O473   O     0.27426   0.71571   0.00612   0.00000  Uiso   1.00
O474   O     0.20834   0.68001   0.48847   0.00000  Uiso   1.00
O475   O     0.25974   0.72896   0.43073   0.00000  Uiso   1.00
O476   O     0.17930   0.74686   0.28213   0.00000  Uiso   1.00
O477   O     0.05554   0.94921   0.02189   0.00000  Uiso   1.00
O478   O     0.11465   0.96610   0.05844   0.00000  Uiso   1.00
O479   O     0.12284   0.99751   0.48276   0.00000  Uiso   1.00
O480   O     0.08709   0.78179   0.39170   0.00000  Uiso   1.00
O481   O     0.14013   0.73189   0.36855   0.00000  Uiso   1.00
O482   O     0.08348   0.72447   0.44441   0.00000  Uiso   1.00
O483   O     0.14632   0.92751   0.27014   0.00000  Uiso   1.00
O484   O     0.07412   0.79958   0.23413   0.00000  Uiso   1.00
O485   O     0.26693   0.85939   0.21360   0.00000  Uiso   1.00
O486   O     0.07071   0.85544   0.28213   0.00000  Uiso   1.00
O487   O     0.25491   0.81892   0.27013   0.00000  Uiso   1.00
O488   O     0.13760   0.73610   0.23413   0.00000  Uiso   1.00
O489   O     0.20345   0.92286   0.21360   0.00000  Uiso   1.00
S490   S     0.22233   0.67924   0.19042   0.00000  Uiso   1.00
S491   S     0.23860   0.71991   0.48510   0.00000  Uiso   1.00
S492   S     0.10359   0.95643   0.01398   0.00000  Uiso   1.00
S493   S     0.11524   0.75727   0.40743   0.00000  Uiso   1.00
Zn494  Zn    0.19338   0.80661   0.28734   0.00000  Uiso   1.00
Zn495  Zn    0.13379   0.79124   0.21875   0.00000  Uiso   1.00
Zn496  Zn    0.21056   0.86442   0.20657   0.00000  Uiso   1.00
Zn497  Zn    0.12893   0.87106   0.28734   0.00000  Uiso   1.00
C498   C     0.38608   0.82637   0.25992   0.00000  Uiso   1.00
C499   C     0.50835   0.83271   0.05902   0.00000  Uiso   1.00
C500   C     0.54442   0.77284   0.05822   0.00000  Uiso   1.00
C501   C     0.61419   0.84052   0.23993   0.00000  Uiso   1.00
C502   C     0.47222   0.85963   0.42099   0.00000  Uiso   1.00
C503   C     0.66010   0.84331   0.23576   0.00000  Uiso   1.00
C504   C     0.34078   0.82390   0.26383   0.00000  Uiso   1.00
C505   C     0.51420   0.98929   0.23444   0.00000  Uiso   1.00
C506   C     0.48611   0.67846   0.26330   0.00000  Uiso   1.00
C507   C     0.48891   0.72264   0.26078   0.00000  Uiso   1.00
C508   C     0.51006   0.94468   0.23972   0.00000  Uiso   1.00
C509   C     0.45838   0.91071   0.48583   0.00000  Uiso   1.00
C510   C     0.51894   0.81459   0.12930   0.00000  Uiso   1.00
C511   C     0.48140   0.85126   0.37126   0.00000  Uiso   1.00
C512   C     0.54364   0.76159   0.01360   0.00000  Uiso   1.00
C513   C     0.52555   0.80738   0.08103   0.00000  Uiso   1.00
C514   C     0.45789   0.89821   0.44103   0.00000  Uiso   1.00
C515   C     0.47577   0.88649   0.00910   0.00000  Uiso   1.00
C516   C     0.48802   0.84704   0.49099   0.00000  Uiso   1.00
C517   C     0.48173   0.83178   0.44819   0.00000  Uiso   1.00
C518   C     0.50611   0.82208   0.01435   0.00000  Uiso   1.00
C519   C     0.52109   0.78419   0.49281   0.00000  Uiso   1.00
C520   C     0.50871   0.76752   0.45392   0.00000  Uiso   1.00
C521   C     0.48499   0.78904   0.43465   0.00000  Uiso   1.00
H522   H     0.55879   0.75413   0.07567   0.00000  Uiso   1.00
H523   H     0.46491   0.95268   0.41185   0.00000  Uiso   1.00
H524   H     0.41284   0.93128   0.43184   0.00000  Uiso   1.00
H525   H     0.44892   0.68891   0.00362   0.00000  Uiso   1.00
H526   H     0.40162   0.70355   0.42638   0.00000  Uiso   1.00
H527   H     0.65228   0.80601   0.29014   0.00000  Uiso   1.00
H528   H     0.46101   0.99784   0.29028   0.00000  Uiso   1.00
H529   H     0.51257   0.73551   0.44164   0.00000  Uiso   1.00
H530   H     0.49408   0.85864   0.07903   0.00000  Uiso   1.00
H531   H     0.47904   0.89936   0.04161   0.00000  Uiso   1.00
H532   H     0.34925   0.86117   0.20979   0.00000  Uiso   1.00
H533   H     0.60756   0.99346   0.13568   0.00000  Uiso   1.00
H534   H     0.60639   0.70362   0.41691   0.00000  Uiso   1.00
N535   N     0.44391   0.92491   0.41532   0.00000  Uiso   1.00
O536   O     0.50000   0.83333   0.25000   0.00000  Uiso   1.00
O537   O     0.48784   0.79304   0.15458   0.00000  Uiso   1.00
O538   O     0.46274   0.87058   0.34968   0.00000  Uiso   1.00
O539   O     0.54157   0.84425   0.14606   0.00000  Uiso   1.00
O540   O     0.50785   0.82546   0.34968   0.00000  Uiso   1.00
O541   O     0.53548   0.69862   0.16060   0.00000  Uiso   1.00
O542   O     0.58362   0.71273   0.21063   0.00000  Uiso   1.00
O543   O     0.58645   0.97746   0.15914   0.00000  Uiso   1.00
O544   O     0.60759   0.71571   0.00612   0.00000  Uiso   1.00
O545   O     0.54168   0.68001   0.48847   0.00000  Uiso   1.00
O546   O     0.59307   0.72896   0.43073   0.00000  Uiso   1.00
O547   O     0.51264   0.74686   0.28213   0.00000  Uiso   1.00
O548   O     0.38888   0.94921   0.02189   0.00000  Uiso   1.00
O549   O     0.44798   0.96610   0.05844   0.00000  Uiso   1.00
O550   O     0.45617   0.99751   0.48276   0.00000  Uiso   1.00
O551   O     0.42042   0.78179   0.39170   0.00000  Uiso   1.00
O552   O     0.47346   0.73189   0.36855   0.00000  Uiso   1.00
O553   O     0.41682   0.72447   0.44441   0.00000  Uiso   1.00
O554   O     0.47965   0.92751   0.27014   0.00000  Uiso   1.00
O555   O     0.40745   0.79958   0.23413   0.00000  Uiso   1.00
O556   O     0.60026   0.85939   0.21360   0.00000  Uiso   1.00
O557   O     0.40405   0.85544   0.28213   0.00000  Uiso   1.00
O558   O     0.58824   0.81892   0.27013   0.00000  Uiso   1.00
O559   O     0.47093   0.73610   0.23413   0.00000  Uiso   1.00
O560   O     0.53678   0.92286   0.21360   0.00000  Uiso   1.00
S561   S     0.55566   0.67924   0.19042   0.00000  Uiso   1.00
S562   S     0.57193   0.71991   0.48510   0.00000  Uiso   1.00
S563   S     0.43692   0.95643   0.01398   0.00000  Uiso   1.00
S564   S     0.44857   0.75727   0.40743   0.00000  Uiso   1.00
Zn565  Zn    0.52672   0.80661   0.28734   0.00000  Uiso   1.00
Zn566  Zn    0.46713   0.79124   0.21875   0.00000  Uiso   1.00
Zn567  Zn    0.54389   0.86442   0.20657   0.00000  Uiso   1.00
Zn568  Zn    0.46226   0.87106   0.28734   0.00000  Uiso   1.00
C569   C     0.71942   0.82637   0.25992   0.00000  Uiso   1.00
C570   C     0.84169   0.83271   0.05902   0.00000  Uiso   1.00
C571   C     0.87776   0.77284   0.05822   0.00000  Uiso   1.00
C572   C     0.94752   0.84052   0.23993   0.00000  Uiso   1.00
C573   C     0.80555   0.85963   0.42099   0.00000  Uiso   1.00
C574   C     0.99343   0.84331   0.23576   0.00000  Uiso   1.00
C575   C     0.67411   0.82390   0.26383   0.00000  Uiso   1.00
C576   C     0.84753   0.98929   0.23444   0.00000  Uiso   1.00
C577   C     0.81944   0.67846   0.26330   0.00000  Uiso   1.00
C578   C     0.82224   0.72264   0.26078   0.00000  Uiso   1.00
C579   C     0.84339   0.94468   0.23972   0.00000  Uiso   1.00
C580   C     0.79172   0.91071   0.48583   0.00000  Uiso   1.00
C581   C     0.85227   0.81459   0.12930   0.00000  Uiso   1.00
C582   C     0.81473   0.85126   0.37126   0.00000  Uiso   1.00
C583   C     0.87698   0.76159   0.01360   0.00000  Uiso   1.00
C584   C     0.85888   0.80738   0.08103   0.00000  Uiso   1.00
C585   C     0.79123   0.89821   0.44103   0.00000  Uiso   1.00
C586   C     0.80910   0.88649   0.00910   0.00000  Uiso   1.00
C587   C     0.82136   0.84704   0.49099   0.00000  Uiso   1.00
C588   C     0.81506   0.83178   0.44819   0.00000  Uiso   1.00
C589   C     0.83944   0.82208   0.01435   0.00000  Uiso   1.00
C590   C     0.85442   0.78419   0.49281   0.00000  Uiso   1.00
C591   C     0.84204   0.76752   0.45392   0.00000  Uiso   1.00
C592   C     0.81833   0.78904   0.43465   0.00000  Uiso   1.00
H593   H     0.89212   0.75413   0.07567   0.00000  Uiso   1.00
H594   H     0.79824   0.95268   0.41185   0.00000  Uiso   1.00
H595   H     0.74617   0.93128   0.43184   0.00000  Uiso   1.00
H596   H     0.78225   0.68891   0.00362   0.00000  Uiso   1.00
H597   H     0.73496   0.70355   0.42638   0.00000  Uiso   1.00
H598   H     0.98561   0.80601   0.29014   0.00000  Uiso   1.00
H599   H     0.79435   0.99784   0.29028   0.00000  Uiso   1.00
H600   H     0.84591   0.73551   0.44164   0.00000  Uiso   1.00
H601   H     0.82741   0.85864   0.07903   0.00000  Uiso   1.00
H602   H     0.81237   0.89936   0.04161   0.00000  Uiso   1.00
H603   H     0.68259   0.86117   0.20979   0.00000  Uiso   1.00
H604   H     0.94090   0.99346   0.13568   0.00000  Uiso   1.00
H605   H     0.93973   0.70362   0.41691   0.00000  Uiso   1.00
N606   N     0.77725   0.92491   0.41532   0.00000  Uiso   1.00
O607   O     0.83333   0.83333   0.25000   0.00000  Uiso   1.00
O608   O     0.82118   0.79304   0.15458   0.00000  Uiso   1.00
O609   O     0.79607   0.87058   0.34968   0.00000  Uiso   1.00
O610   O     0.87491   0.84425   0.14606   0.00000  Uiso   1.00
O611   O     0.84118   0.82546   0.34968   0.00000  Uiso   1.00
O612   O     0.86882   0.69862   0.16060   0.00000  Uiso   1.00
O613   O     0.91695   0.71273   0.21063   0.00000  Uiso   1.00
O614   O     0.91979   0.97746   0.15914   0.00000  Uiso   1.00
O615   O     0.94093   0.71571   0.00612   0.00000  Uiso   1.00
O616   O     0.87501   0.68001   0.48847   0.00000  Uiso   1.00
O617   O     0.92640   0.72896   0.43073   0.00000  Uiso   1.00
O618   O     0.84597   0.74686   0.28213   0.00000  Uiso   1.00
O619   O     0.72221   0.94921   0.02189   0.00000  Uiso   1.00
O620   O     0.78132   0.96610   0.05844   0.00000  Uiso   1.00
O621   O     0.78950   0.99751   0.48276   0.00000  Uiso   1.00
O622   O     0.75376   0.78179   0.39170   0.00000  Uiso   1.00
O623   O     0.80680   0.73189   0.36855   0.00000  Uiso   1.00
O624   O     0.75015   0.72447   0.44441   0.00000  Uiso   1.00
O625   O     0.81298   0.92751   0.27014   0.00000  Uiso   1.00
O626   O     0.74078   0.79958   0.23413   0.00000  Uiso   1.00
O627   O     0.93360   0.85939   0.21360   0.00000  Uiso   1.00
O628   O     0.73738   0.85544   0.28213   0.00000  Uiso   1.00
O629   O     0.92158   0.81892   0.27013   0.00000  Uiso   1.00
O630   O     0.80426   0.73610   0.23413   0.00000  Uiso   1.00
O631   O     0.87012   0.92286   0.21360   0.00000  Uiso   1.00
S632   S     0.88900   0.67924   0.19042   0.00000  Uiso   1.00
S633   S     0.90527   0.71991   0.48510   0.00000  Uiso   1.00
S634   S     0.77025   0.95643   0.01398   0.00000  Uiso   1.00
S635   S     0.78190   0.75727   0.40743   0.00000  Uiso   1.00
Zn636  Zn    0.86005   0.80661   0.28734   0.00000  Uiso   1.00
Zn637  Zn    0.80046   0.79124   0.21875   0.00000  Uiso   1.00
Zn638  Zn    0.87723   0.86442   0.20657   0.00000  Uiso   1.00
Zn639  Zn    0.79560   0.87106   0.28734   0.00000  Uiso   1.00
C640   C     0.05275   0.15970   0.75992   0.00000  Uiso   1.00
C641   C     0.17502   0.16605   0.55902   0.00000  Uiso   1.00
C642   C     0.21109   0.10618   0.55822   0.00000  Uiso   1.00
C643   C     0.28085   0.17385   0.73993   0.00000  Uiso   1.00
C644   C     0.13889   0.19296   0.92099   0.00000  Uiso   1.00
C645   C     0.32677   0.17664   0.73576   0.00000  Uiso   1.00
C646   C     0.00745   0.15724   0.76383   0.00000  Uiso   1.00
C647   C     0.18086   0.32262   0.73444   0.00000  Uiso   1.00
C648   C     0.15277   0.01179   0.76330   0.00000  Uiso   1.00
C649   C     0.15557   0.05598   0.76078   0.00000  Uiso   1.00
C650   C     0.17673   0.27801   0.73972   0.00000  Uiso   1.00
C651   C     0.12505   0.24404   0.98583   0.00000  Uiso   1.00
C652   C     0.18560   0.14793   0.62930   0.00000  Uiso   1.00
C653   C     0.14806   0.18460   0.87126   0.00000  Uiso   1.00
C654   C     0.21031   0.09492   0.51360   0.00000  Uiso   1.00
C655   C     0.19221   0.14071   0.58103   0.00000  Uiso   1.00
C656   C     0.12456   0.23154   0.94103   0.00000  Uiso   1.00
C657   C     0.14243   0.21983   0.50910   0.00000  Uiso   1.00
C658   C     0.15469   0.18037   0.99099   0.00000  Uiso   1.00
C659   C     0.14839   0.16511   0.94819   0.00000  Uiso   1.00
C660   C     0.17278   0.15541   0.51435   0.00000  Uiso   1.00
C661   C     0.18775   0.11752   0.99281   0.00000  Uiso   1.00
C662   C     0.17537   0.10086   0.95392   0.00000  Uiso   1.00
C663   C     0.15166   0.12237   0.93465   0.00000  Uiso   1.00
H664   H     0.22545   0.08746   0.57567   0.00000  Uiso   1.00
H665   H     0.13158   0.28602   0.91185   0.00000  Uiso   1.00
H666   H     0.07950   0.26461   0.93184   0.00000  Uiso   1.00
H667   H     0.11559   0.02224   0.50362   0.00000  Uiso   1.00
H668   H     0.06829   0.03688   0.92638   0.00000  Uiso   1.00
H669   H     0.31894   0.13935   0.79014   0.00000  Uiso   1.00
H670   H     0.12768   0.33118   0.79028   0.00000  Uiso   1.00
H671   H     0.17924   0.06884   0.94164   0.00000  Uiso   1.00
H672   H     0.16074   0.19197   0.57903   0.00000  Uiso   1.00
H673   H     0.14570   0.23269   0.54161   0.00000  Uiso   1.00
H674   H     0.01592   0.19451   0.70979   0.00000  Uiso   1.00
H675   H     0.27423   0.32679   0.63568   0.00000  Uiso   1.00
H676   H     0.27306   0.03696   0.91691   0.00000  Uiso   1.00
N677   N     0.11058   0.25824   0.91532   0.00000  Uiso   1.00
O678   O     0.16667   0.16667   0.75000   0.00000  Uiso   1.00
O679   O     0.15451   0.12637   0.65458   0.00000  Uiso   1.00
O680   O     0.12940   0.20391   0.84968   0.00000  Uiso   1.00
O681   O     0.20824   0.17759   0.64606   0.00000  Uiso   1.00
O682   O     0.17451   0.15880   0.84968   0.00000  Uiso   1.00
O683   O     0.20215   0.03195   0.66060   0.00000  Uiso   1.00
O684   O     0.25028   0.04606   0.71063   0.00000  Uiso   1.00
O685   O     0.25312   0.31079   0.65914   0.00000  Uiso   1.00
O686   O     0.27426   0.04904   0.50612   0.00000  Uiso   1.00
O687   O     0.20834   0.01334   0.98847   0.00000  Uiso   1.00
O688   O     0.25974   0.06230   0.93073   0.00000  Uiso   1.00
O689   O     0.17930   0.08019   0.78213   0.00000  Uiso   1.00
O690   O     0.05554   0.28254   0.52189   0.00000  Uiso   1.00
O691   O     0.11465   0.29943   0.55844   0.00000  Uiso   1.00
O692   O     0.12284   0.33084   0.98276   0.00000  Uiso   1.00
O693   O     0.08709   0.11513   0.89170   0.00000  Uiso   1.00
O694   O     0.14013   0.06522   0.86855   0.00000  Uiso   1.00
O695   O     0.08348   0.05780   0.94441   0.00000  Uiso   1.00
O696   O     0.14632   0.26085   0.77014   0.00000  Uiso   1.00
O697   O     0.07412   0.13291   0.73413   0.00000  Uiso   1.00
O698   O     0.26693   0.19272   0.71360   0.00000  Uiso   1.00
O699   O     0.07071   0.18878   0.78213   0.00000  Uiso   1.00
O700   O     0.25491   0.15226   0.77013   0.00000  Uiso   1.00
O701   O     0.13760   0.06944   0.73413   0.00000  Uiso   1.00
O702   O     0.20345   0.25620   0.71360   0.00000  Uiso   1.00
S703   S     0.22233   0.01257   0.69042   0.00000  Uiso   1.00
S704   S     0.23860   0.05324   0.98510   0.00000  Uiso   1.00
S705   S     0.10359   0.28976   0.51398   0.00000  Uiso   1.00
S706   S     0.11524   0.09060   0.90743   0.00000  Uiso   1.00
Zn707  Zn    0.19338   0.13994   0.78734   0.00000  Uiso   1.00
Zn708  Zn    0.13379   0.12458   0.71875   0.00000  Uiso   1.00
Zn709  Zn    0.21056   0.19775   0.70657   0.00000  Uiso   1.00
Zn710  Zn    0.12893   0.20439   0.78734   0.00000  Uiso   1.00
C711   C     0.38608   0.15970   0.75992   0.00000  Uiso   1.00
C712   C     0.50835   0.16605   0.55902   0.00000  Uiso   1.00
C713   C     0.54442   0.10618   0.55822   0.00000  Uiso   1.00
C714   C     0.61419   0.17385   0.73993   0.00000  Uiso   1.00
C715   C     0.47222   0.19296   0.92099   0.00000  Uiso   1.00
C716   C     0.66010   0.17664   0.73576   0.00000  Uiso   1.00
C717   C     0.34078   0.15724   0.76383   0.00000  Uiso   1.00
C718   C     0.51420   0.32262   0.73444   0.00000  Uiso   1.00
C719   C     0.48611   0.01179   0.76330   0.00000  Uiso   1.00
C720   C     0.48891   0.05598   0.76078   0.00000  Uiso   1.00
C721   C     0.51006   0.27801   0.73972   0.00000  Uiso   1.00
C722   C     0.45838   0.24404   0.98583   0.00000  Uiso   1.00
C723   C     0.51894   0.14793   0.62930   0.00000  Uiso   1.00
C724   C     0.48140   0.18460   0.87126   0.00000  Uiso   1.00
C725   C     0.54364   0.09492   0.51360   0.00000  Uiso   1.00
C726   C     0.52555   0.14071   0.58103   0.00000  Uiso   1.00
C727   C     0.45789   0.23154   0.94103   0.00000  Uiso   1.00
C728   C     0.47577   0.21983   0.50910   0.00000  Uiso   1.00
C729   C     0.48802   0.18037   0.99099   0.00000  Uiso   1.00
C730   C     0.48173   0.16511   0.94819   0.00000  Uiso   1.00
C731   C     0.50611   0.15541   0.51435   0.00000  Uiso   1.00
C732   C     0.52109   0.11752   0.99281   0.00000  Uiso   1.00
C733   C     0.50871   0.10086   0.95392   0.00000  Uiso   1.00
C734   C     0.48499   0.12237   0.93465   0.00000  Uiso   1.00
H735   H     0.55879   0.08746   0.57567   0.00000  Uiso   1.00
H736   H     0.46491   0.28602   0.91185   0.00000  Uiso   1.00
H737   H     0.41284   0.26461   0.93184   0.00000  Uiso   1.00
H738   H     0.44892   0.02224   0.50362   0.00000  Uiso   1.00
H739   H     0.40162   0.03688   0.92638   0.00000  Uiso   1.00
H740   H     0.65228   0.13935   0.79014   0.00000  Uiso   1.00
H741   H     0.46101   0.33118   0.79028   0.00000  Uiso   1.00
H742   H     0.51257   0.06884   0.94164   0.00000  Uiso   1.00
H743   H     0.49408   0.19197   0.57903   0.00000  Uiso   1.00
H744   H     0.47904   0.23269   0.54161   0.00000  Uiso   1.00
H745   H     0.34925   0.19451   0.70979   0.00000  Uiso   1.00
H746   H     0.60756   0.32679   0.63568   0.00000  Uiso   1.00
H747   H     0.60639   0.03696   0.91691   0.00000  Uiso   1.00
N748   N     0.44391   0.25824   0.91532   0.00000  Uiso   1.00
O749   O     0.50000   0.16667   0.75000   0.00000  Uiso   1.00
O750   O     0.48784   0.12637   0.65458   0.00000  Uiso   1.00
O751   O     0.46274   0.20391   0.84968   0.00000  Uiso   1.00
O752   O     0.54157   0.17759   0.64606   0.00000  Uiso   1.00
O753   O     0.50785   0.15880   0.84968   0.00000  Uiso   1.00
O754   O     0.53548   0.03195   0.66060   0.00000  Uiso   1.00
O755   O     0.58362   0.04606   0.71063   0.00000  Uiso   1.00
O756   O     0.58645   0.31079   0.65914   0.00000  Uiso   1.00
O757   O     0.60759   0.04904   0.50612   0.00000  Uiso   1.00
O758   O     0.54168   0.01334   0.98847   0.00000  Uiso   1.00
O759   O     0.59307   0.06230   0.93073   0.00000  Uiso   1.00
O760   O     0.51264   0.08019   0.78213   0.00000  Uiso   1.00
O761   O     0.38888   0.28254   0.52189   0.00000  Uiso   1.00
O762   O     0.44798   0.29943   0.55844   0.00000  Uiso   1.00
O763   O     0.45617   0.33084   0.98276   0.00000  Uiso   1.00
O764   O     0.42042   0.11513   0.89170   0.00000  Uiso   1.00
O765   O     0.47346   0.06522   0.86855   0.00000  Uiso   1.00
O766   O     0.41682   0.05780   0.94441   0.00000  Uiso   1.00
O767   O     0.47965   0.26085   0.77014   0.00000  Uiso   1.00
O768   O     0.40745   0.13291   0.73413   0.00000  Uiso   1.00
O769   O     0.60026   0.19272   0.71360   0.00000  Uiso   1.00
O770   O     0.40405   0.18878   0.78213   0.00000  Uiso   1.00
O771   O     0.58824   0.15226   0.77013   0.00000  Uiso   1.00
O772   O     0.47093   0.06944   0.73413   0.00000  Uiso   1.00
O773   O     0.53678   0.25620   0.71360   0.00000  Uiso   1.00
S774   S     0.55566   0.01257   0.69042   0.00000  Uiso   1.00
S775   S     0.57193   0.05324   0.98510   0.00000  Uiso   1.00
S776   S     0.43692   0.28976   0.51398   0.00000  Uiso   1.00
S777   S     0.44857   0.09060   0.90743   0.00000  Uiso   1.00
Zn778  Zn    0.52672   0.13994   0.78734   0.00000  Uiso   1.00
Zn779  Zn    0.46713   0.12458   0.71875   0.00000  Uiso   1.00
Zn780  Zn    0.54389   0.19775   0.70657   0.00000  Uiso   1.00
Zn781  Zn    0.46226   0.20439   0.78734   0.00000  Uiso   1.00
C782   C     0.71942   0.15970   0.75992   0.00000  Uiso   1.00
C783   C     0.84169   0.16605   0.55902   0.00000  Uiso   1.00
C784   C     0.87776   0.10618   0.55822   0.00000  Uiso   1.00
C785   C     0.94752   0.17385   0.73993   0.00000  Uiso   1.00
C786   C     0.80555   0.19296   0.92099   0.00000  Uiso   1.00
C787   C     0.99343   0.17664   0.73576   0.00000  Uiso   1.00
C788   C     0.67411   0.15724   0.76383   0.00000  Uiso   1.00
C789   C     0.84753   0.32262   0.73444   0.00000  Uiso   1.00
C790   C     0.81944   0.01179   0.76330   0.00000  Uiso   1.00
C791   C     0.82224   0.05598   0.76078   0.00000  Uiso   1.00
C792   C     0.84339   0.27801   0.73972   0.00000  Uiso   1.00
C793   C     0.79172   0.24404   0.98583   0.00000  Uiso   1.00
C794   C     0.85227   0.14793   0.62930   0.00000  Uiso   1.00
C795   C     0.81473   0.18460   0.87126   0.00000  Uiso   1.00
C796   C     0.87698   0.09492   0.51360   0.00000  Uiso   1.00
C797   C     0.85888   0.14071   0.58103   0.00000  Uiso   1.00
C798   C     0.79123   0.23154   0.94103   0.00000  Uiso   1.00
C799   C     0.80910   0.21983   0.50910   0.00000  Uiso   1.00
C800   C     0.82136   0.18037   0.99099   0.00000  Uiso   1.00
C801   C     0.81506   0.16511   0.94819   0.00000  Uiso   1.00
C802   C     0.83944   0.15541   0.51435   0.00000  Uiso   1.00
C803   C     0.85442   0.11752   0.99281   0.00000  Uiso   1.00
C804   C     0.84204   0.10086   0.95392   0.00000  Uiso   1.00
C805   C     0.81833   0.12237   0.93465   0.00000  Uiso   1.00
H806   H     0.89212   0.08746   0.57567   0.00000  Uiso   1.00
H807   H     0.79824   0.28602   0.91185   0.00000  Uiso   1.00
H808   H     0.74617   0.26461   0.93184   0.00000  Uiso   1.00
H809   H     0.78225   0.02224   0.50362   0.00000  Uiso   1.00
H810   H     0.73496   0.03688   0.92638   0.00000  Uiso   1.00
H811   H     0.98561   0.13935   0.79014   0.00000  Uiso   1.00
H812   H     0.79435   0.33118   0.79028   0.00000  Uiso   1.00
H813   H     0.84591   0.06884   0.94164   0.00000  Uiso   1.00
H814   H     0.82741   0.19197   0.57903   0.00000  Uiso   1.00
H815   H     0.81237   0.23269   0.54161   0.00000  Uiso   1.00
H816   H     0.68259   0.19451   0.70979   0.00000  Uiso   1.00
H817   H     0.94090   0.32679   0.63568   0.00000  Uiso   1.00
H818   H     0.93973   0.03696   0.91691   0.00000  Uiso   1.00
N819   N     0.77725   0.25824   0.91532   0.00000  Uiso   1.00
O820   O     0.83333   0.16667   0.75000   0.00000  Uiso   1.00
O821   O     0.82118   0.12637   0.65458   0.00000  Uiso   1.00
O822   O     0.79607   0.20391   0.84968   0.00000  Uiso   1.00
O823   O     0.87491   0.17759   0.64606   0.00000  Uiso   1.00
O824   O     0.84118   0.15880   0.84968   0.00000  Uiso   1.00
O825   O     0.86882   0.03195   0.66060   0.00000  Uiso   1.00
O826   O     0.91695   0.04606   0.71063   0.00000  Uiso   1.00
O827   O     0.91979   0.31079   0.65914   0.00000  Uiso   1.00
O828   O     0.94093   0.04904   0.50612   0.00000  Uiso   1.00
O829   O     0.87501   0.01334   0.98847   0.00000  Uiso   1.00
O830   O     0.92640   0.06230   0.93073   0.00000  Uiso   1.00
O831   O     0.84597   0.08019   0.78213   0.00000  Uiso   1.00
O832   O     0.72221   0.28254   0.52189   0.00000  Uiso   1.00
O833   O     0.78132   0.29943   0.55844   0.00000  Uiso   1.00
O834   O     0.78950   0.33084   0.98276   0.00000  Uiso   1.00
O835   O     0.75376   0.11513   0.89170   0.00000  Uiso   1.00
O836   O     0.80680   0.06522   0.86855   0.00000  Uiso   1.00
O837   O     0.75015   0.05780   0.94441   0.00000  Uiso   1.00
O838   O     0.81298   0.26085   0.77014   0.00000  Uiso   1.00
O839   O     0.74078   0.13291   0.73413   0.00000  Uiso   1.00
O840   O     0.93360   0.19272   0.71360   0.00000  Uiso   1.00
O841   O     0.73738   0.18878   0.78213   0.00000  Uiso   1.00
O842   O     0.92158   0.15226   0.77013   0.00000  Uiso   1.00
O843   O     0.80426   0.06944   0.73413   0.00000  Uiso   1.00
O844   O     0.87012   0.25620   0.71360   0.00000  Uiso   1.00
S845   S     0.88900   0.01257   0.69042   0.00000  Uiso   1.00
S846   S     0.90527   0.05324   0.98510   0.00000  Uiso   1.00
S847   S     0.77025   0.28976   0.51398   0.00000  Uiso   1.00
S848   S     0.78190   0.09060   0.90743   0.00000  Uiso   1.00
Zn849  Zn    0.86005   0.13994   0.78734   0.00000  Uiso   1.00
Zn850  Zn    0.80046   0.12458   0.71875   0.00000  Uiso   1.00
Zn851  Zn    0.87723   0.19775   0.70657   0.00000  Uiso   1.00
Zn852  Zn    0.79560   0.20439   0.78734   0.00000  Uiso   1.00
C853   C     0.05275   0.49303   0.75992   0.00000  Uiso   1.00
C854   C     0.17502   0.49938   0.55902   0.00000  Uiso   1.00
C855   C     0.21109   0.43951   0.55822   0.00000  Uiso   1.00
C856   C     0.28085   0.50718   0.73993   0.00000  Uiso   1.00
C857   C     0.13889   0.52629   0.92099   0.00000  Uiso   1.00
C858   C     0.32677   0.50997   0.73576   0.00000  Uiso   1.00
C859   C     0.00745   0.49057   0.76383   0.00000  Uiso   1.00
C860   C     0.18086   0.65596   0.73444   0.00000  Uiso   1.00
C861   C     0.15277   0.34512   0.76330   0.00000  Uiso   1.00
C862   C     0.15557   0.38931   0.76078   0.00000  Uiso   1.00
C863   C     0.17673   0.61135   0.73972   0.00000  Uiso   1.00
C864   C     0.12505   0.57738   0.98583   0.00000  Uiso   1.00
C865   C     0.18560   0.48126   0.62930   0.00000  Uiso   1.00
C866   C     0.14806   0.51793   0.87126   0.00000  Uiso   1.00
C867   C     0.21031   0.42826   0.51360   0.00000  Uiso   1.00
C868   C     0.19221   0.47405   0.58103   0.00000  Uiso   1.00
C869   C     0.12456   0.56487   0.94103   0.00000  Uiso   1.00
C870   C     0.14243   0.55316   0.50910   0.00000  Uiso   1.00
C871   C     0.15469   0.51370   0.99099   0.00000  Uiso   1.00
C872   C     0.14839   0.49844   0.94819   0.00000  Uiso   1.00
C873   C     0.17278   0.48874   0.51435   0.00000  Uiso   1.00
C874   C     0.18775   0.45085   0.99281   0.00000  Uiso   1.00
C875   C     0.17537   0.43419   0.95392   0.00000  Uiso   1.00
C876   C     0.15166   0.45571   0.93465   0.00000  Uiso   1.00
H877   H     0.22545   0.42080   0.57567   0.00000  Uiso   1.00
H878   H     0.13158   0.61935   0.91185   0.00000  Uiso   1.00
H879   H     0.07950   0.59794   0.93184   0.00000  Uiso   1.00
H880   H     0.11559   0.35558   0.50362   0.00000  Uiso   1.00
H881   H     0.06829   0.37021   0.92638   0.00000  Uiso   1.00
H882   H     0.31894   0.47268   0.79014   0.00000  Uiso   1.00
H883   H     0.12768   0.66451   0.79028   0.00000  Uiso   1.00
H884   H     0.17924   0.40218   0.94164   0.00000  Uiso   1.00
H885   H     0.16074   0.52530   0.57903   0.00000  Uiso   1.00
H886   H     0.14570   0.56603   0.54161   0.00000  Uiso   1.00
H887   H     0.01592   0.52784   0.70979   0.00000  Uiso   1.00
H888   H     0.27423   0.66013   0.63568   0.00000  Uiso   1.00
H889   H     0.27306   0.37029   0.91691   0.00000  Uiso   1.00
N890   N     0.11058   0.59158   0.91532   0.00000  Uiso   1.00
O891   O     0.16667   0.50000   0.75000   0.00000  Uiso   1.00
O892   O     0.15451   0.45970   0.65458   0.00000  Uiso   1.00
O893   O     0.12940   0.53724   0.84968   0.00000  Uiso   1.00
O894   O     0.20824   0.51092   0.64606   0.00000  Uiso   1.00
O895   O     0.17451   0.49213   0.84968   0.00000  Uiso   1.00
O896   O     0.20215   0.36528   0.66060   0.00000  Uiso   1.00
O897   O     0.25028   0.37939   0.71063   0.00000  Uiso   1.00
O898   O     0.25312   0.64413   0.65914   0.00000  Uiso   1.00
O899   O     0.27426   0.38237   0.50612   0.00000  Uiso   1.00
O900   O     0.20834   0.34667   0.98847   0.00000  Uiso   1.00
O901   O     0.25974   0.39563   0.93073   0.00000  Uiso   1.00
O902   O     0.17930   0.41352   0.78213   0.00000  Uiso   1.00
O903   O     0.05554   0.61587   0.52189   0.00000  Uiso   1.00
O904   O     0.11465   0.63277   0.55844   0.00000  Uiso   1.00
O905   O     0.12284   0.66417   0.98276   0.00000  Uiso   1.00
O906   O     0.08709   0.44846   0.89170   0.00000  Uiso   1.00
O907   O     0.14013   0.39855   0.86855   0.00000  Uiso   1.00
O908   O     0.08348   0.39114   0.94441   0.00000  Uiso   1.00
O909   O     0.14632   0.59418   0.77014   0.00000  Uiso   1.00
O910   O     0.07412   0.46625   0.73413   0.00000  Uiso   1.00
O911   O     0.26693   0.52605   0.71360   0.00000  Uiso   1.00
O912   O     0.07071   0.52211   0.78213   0.00000  Uiso   1.00
O913   O     0.25491   0.48559   0.77013   0.00000  Uiso   1.00
O914   O     0.13760   0.40277   0.73413   0.00000  Uiso   1.00
O915   O     0.20345   0.58953   0.71360   0.00000  Uiso   1.00
S916   S     0.22233   0.34590   0.69042   0.00000  Uiso   1.00
S917   S     0.23860   0.38657   0.98510   0.00000  Uiso   1.00
S918   S     0.10359   0.62310   0.51398   0.00000  Uiso   1.00
S919   S     0.11524   0.42393   0.90743   0.00000  Uiso   1.00
Zn920  Zn    0.19338   0.47327   0.78734   0.00000  Uiso   1.00
Zn921  Zn    0.13379   0.45791   0.71875   0.00000  Uiso   1.00
Zn922  Zn    0.21056   0.53109   0.70657   0.00000  Uiso   1.00
Zn923  Zn    0.12893   0.53773   0.78734   0.00000  Uiso   1.00
C924   C     0.38608   0.49303   0.75992   0.00000  Uiso   1.00
C925   C     0.50835   0.49938   0.55902   0.00000  Uiso   1.00
C926   C     0.54442   0.43951   0.55822   0.00000  Uiso   1.00
C927   C     0.61419   0.50718   0.73993   0.00000  Uiso   1.00
C928   C     0.47222   0.52629   0.92099   0.00000  Uiso   1.00
C929   C     0.66010   0.50997   0.73576   0.00000  Uiso   1.00
C930   C     0.34078   0.49057   0.76383   0.00000  Uiso   1.00
C931   C     0.51420   0.65596   0.73444   0.00000  Uiso   1.00
C932   C     0.48611   0.34512   0.76330   0.00000  Uiso   1.00
C933   C     0.48891   0.38931   0.76078   0.00000  Uiso   1.00
C934   C     0.51006   0.61135   0.73972   0.00000  Uiso   1.00
C935   C     0.45838   0.57738   0.98583   0.00000  Uiso   1.00
C936   C     0.51894   0.48126   0.62930   0.00000  Uiso   1.00
C937   C     0.48140   0.51793   0.87126   0.00000  Uiso   1.00
C938   C     0.54364   0.42826   0.51360   0.00000  Uiso   1.00
C939   C     0.52555   0.47405   0.58103   0.00000  Uiso   1.00
C940   C     0.45789   0.56487   0.94103   0.00000  Uiso   1.00
C941   C     0.47577   0.55316   0.50910   0.00000  Uiso   1.00
C942   C     0.48802   0.51370   0.99099   0.00000  Uiso   1.00
C943   C     0.48173   0.49844   0.94819   0.00000  Uiso   1.00
C944   C     0.50611   0.48874   0.51435   0.00000  Uiso   1.00
C945   C     0.52109   0.45085   0.99281   0.00000  Uiso   1.00
C946   C     0.50871   0.43419   0.95392   0.00000  Uiso   1.00
C947   C     0.48499   0.45571   0.93465   0.00000  Uiso   1.00
H948   H     0.55879   0.42080   0.57567   0.00000  Uiso   1.00
H949   H     0.46491   0.61935   0.91185   0.00000  Uiso   1.00
H950   H     0.41284   0.59794   0.93184   0.00000  Uiso   1.00
H951   H     0.44892   0.35558   0.50362   0.00000  Uiso   1.00
H952   H     0.40162   0.37021   0.92638   0.00000  Uiso   1.00
H953   H     0.65228   0.47268   0.79014   0.00000  Uiso   1.00
H954   H     0.46101   0.66451   0.79028   0.00000  Uiso   1.00
H955   H     0.51257   0.40218   0.94164   0.00000  Uiso   1.00
H956   H     0.49408   0.52530   0.57903   0.00000  Uiso   1.00
H957   H     0.47904   0.56603   0.54161   0.00000  Uiso   1.00
H958   H     0.34925   0.52784   0.70979   0.00000  Uiso   1.00
H959   H     0.60756   0.66013   0.63568   0.00000  Uiso   1.00
H960   H     0.60639   0.37029   0.91691   0.00000  Uiso   1.00
N961   N     0.44391   0.59158   0.91532   0.00000  Uiso   1.00
O962   O     0.50000   0.50000   0.75000   0.00000  Uiso   1.00
O963   O     0.48784   0.45970   0.65458   0.00000  Uiso   1.00
O964   O     0.46274   0.53724   0.84968   0.00000  Uiso   1.00
O965   O     0.54157   0.51092   0.64606   0.00000  Uiso   1.00
O966   O     0.50785   0.49213   0.84968   0.00000  Uiso   1.00
O967   O     0.53548   0.36528   0.66060   0.00000  Uiso   1.00
O968   O     0.58362   0.37939   0.71063   0.00000  Uiso   1.00
O969   O     0.58645   0.64413   0.65914   0.00000  Uiso   1.00
O970   O     0.60759   0.38237   0.50612   0.00000  Uiso   1.00
O971   O     0.54168   0.34667   0.98847   0.00000  Uiso   1.00
O972   O     0.59307   0.39563   0.93073   0.00000  Uiso   1.00
O973   O     0.51264   0.41352   0.78213   0.00000  Uiso   1.00
O974   O     0.38888   0.61587   0.52189   0.00000  Uiso   1.00
O975   O     0.44798   0.63277   0.55844   0.00000  Uiso   1.00
O976   O     0.45617   0.66417   0.98276   0.00000  Uiso   1.00
O977   O     0.42042   0.44846   0.89170   0.00000  Uiso   1.00
O978   O     0.47346   0.39855   0.86855   0.00000  Uiso   1.00
O979   O     0.41682   0.39114   0.94441   0.00000  Uiso   1.00
O980   O     0.47965   0.59418   0.77014   0.00000  Uiso   1.00
O981   O     0.40745   0.46625   0.73413   0.00000  Uiso   1.00
O982   O     0.60026   0.52605   0.71360   0.00000  Uiso   1.00
O983   O     0.40405   0.52211   0.78213   0.00000  Uiso   1.00
O984   O     0.58824   0.48559   0.77013   0.00000  Uiso   1.00
O985   O     0.47093   0.40277   0.73413   0.00000  Uiso   1.00
O986   O     0.53678   0.58953   0.71360   0.00000  Uiso   1.00
S987   S     0.55566   0.34590   0.69042   0.00000  Uiso   1.00
S988   S     0.57193   0.38657   0.98510   0.00000  Uiso   1.00
S989   S     0.43692   0.62310   0.51398   0.00000  Uiso   1.00
S990   S     0.44857   0.42393   0.90743   0.00000  Uiso   1.00
Zn991  Zn    0.52672   0.47327   0.78734   0.00000  Uiso   1.00
Zn992  Zn    0.46713   0.45791   0.71875   0.00000  Uiso   1.00
Zn993  Zn    0.54389   0.53109   0.70657   0.00000  Uiso   1.00
Zn994  Zn    0.46226   0.53773   0.78734   0.00000  Uiso   1.00
C995   C     0.71942   0.49303   0.75992   0.00000  Uiso   1.00
C996   C     0.84169   0.49938   0.55902   0.00000  Uiso   1.00
C997   C     0.87776   0.43951   0.55822   0.00000  Uiso   1.00
C998   C     0.94752   0.50718   0.73993   0.00000  Uiso   1.00
C999   C     0.80555   0.52629   0.92099   0.00000  Uiso   1.00
C1000  C     0.99343   0.50997   0.73576   0.00000  Uiso   1.00
C1001  C     0.67411   0.49057   0.76383   0.00000  Uiso   1.00
C1002  C     0.84753   0.65596   0.73444   0.00000  Uiso   1.00
C1003  C     0.81944   0.34512   0.76330   0.00000  Uiso   1.00
C1004  C     0.82224   0.38931   0.76078   0.00000  Uiso   1.00
C1005  C     0.84339   0.61135   0.73972   0.00000  Uiso   1.00
C1006  C     0.79172   0.57738   0.98583   0.00000  Uiso   1.00
C1007  C     0.85227   0.48126   0.62930   0.00000  Uiso   1.00
C1008  C     0.81473   0.51793   0.87126   0.00000  Uiso   1.00
C1009  C     0.87698   0.42826   0.51360   0.00000  Uiso   1.00
C1010  C     0.85888   0.47405   0.58103   0.00000  Uiso   1.00
C1011  C     0.79123   0.56487   0.94103   0.00000  Uiso   1.00
C1012  C     0.80910   0.55316   0.50910   0.00000  Uiso   1.00
C1013  C     0.82136   0.51370   0.99099   0.00000  Uiso   1.00
C1014  C     0.81506   0.49844   0.94819   0.00000  Uiso   1.00
C1015  C     0.83944   0.48874   0.51435   0.00000  Uiso   1.00
C1016  C     0.85442   0.45085   0.99281   0.00000  Uiso   1.00
C1017  C     0.84204   0.43419   0.95392   0.00000  Uiso   1.00
C1018  C     0.81833   0.45571   0.93465   0.00000  Uiso   1.00
H1019  H     0.89212   0.42080   0.57567   0.00000  Uiso   1.00
H1020  H     0.79824   0.61935   0.91185   0.00000  Uiso   1.00
H1021  H     0.74617   0.59794   0.93184   0.00000  Uiso   1.00
H1022  H     0.78225   0.35558   0.50362   0.00000  Uiso   1.00
H1023  H     0.73496   0.37021   0.92638   0.00000  Uiso   1.00
H1024  H     0.98561   0.47268   0.79014   0.00000  Uiso   1.00
H1025  H     0.79435   0.66451   0.79028   0.00000  Uiso   1.00
H1026  H     0.84591   0.40218   0.94164   0.00000  Uiso   1.00
H1027  H     0.82741   0.52530   0.57903   0.00000  Uiso   1.00
H1028  H     0.81237   0.56603   0.54161   0.00000  Uiso   1.00
H1029  H     0.68259   0.52784   0.70979   0.00000  Uiso   1.00
H1030  H     0.94090   0.66013   0.63568   0.00000  Uiso   1.00
H1031  H     0.93973   0.37029   0.91691   0.00000  Uiso   1.00
N1032  N     0.77725   0.59158   0.91532   0.00000  Uiso   1.00
O1033  O     0.83333   0.50000   0.75000   0.00000  Uiso   1.00
O1034  O     0.82118   0.45970   0.65458   0.00000  Uiso   1.00
O1035  O     0.79607   0.53724   0.84968   0.00000  Uiso   1.00
O1036  O     0.87491   0.51092   0.64606   0.00000  Uiso   1.00
O1037  O     0.84118   0.49213   0.84968   0.00000  Uiso   1.00
O1038  O     0.86882   0.36528   0.66060   0.00000  Uiso   1.00
O1039  O     0.91695   0.37939   0.71063   0.00000  Uiso   1.00
O1040  O     0.91979   0.64413   0.65914   0.00000  Uiso   1.00
O1041  O     0.94093   0.38237   0.50612   0.00000  Uiso   1.00
O1042  O     0.87501   0.34667   0.98847   0.00000  Uiso   1.00
O1043  O     0.92640   0.39563   0.93073   0.00000  Uiso   1.00
O1044  O     0.84597   0.41352   0.78213   0.00000  Uiso   1.00
O1045  O     0.72221   0.61587   0.52189   0.00000  Uiso   1.00
O1046  O     0.78132   0.63277   0.55844   0.00000  Uiso   1.00
O1047  O     0.78950   0.66417   0.98276   0.00000  Uiso   1.00
O1048  O     0.75376   0.44846   0.89170   0.00000  Uiso   1.00
O1049  O     0.80680   0.39855   0.86855   0.00000  Uiso   1.00
O1050  O     0.75015   0.39114   0.94441   0.00000  Uiso   1.00
O1051  O     0.81298   0.59418   0.77014   0.00000  Uiso   1.00
O1052  O     0.74078   0.46625   0.73413   0.00000  Uiso   1.00
O1053  O     0.93360   0.52605   0.71360   0.00000  Uiso   1.00
O1054  O     0.73738   0.52211   0.78213   0.00000  Uiso   1.00
O1055  O     0.92158   0.48559   0.77013   0.00000  Uiso   1.00
O1056  O     0.80426   0.40277   0.73413   0.00000  Uiso   1.00
O1057  O     0.87012   0.58953   0.71360   0.00000  Uiso   1.00
S1058  S     0.88900   0.34590   0.69042   0.00000  Uiso   1.00
S1059  S     0.90527   0.38657   0.98510   0.00000  Uiso   1.00
S1060  S     0.77025   0.62310   0.51398   0.00000  Uiso   1.00
S1061  S     0.78190   0.42393   0.90743   0.00000  Uiso   1.00
Zn1062 Zn    0.86005   0.47327   0.78734   0.00000  Uiso   1.00
Zn1063 Zn    0.80046   0.45791   0.71875   0.00000  Uiso   1.00
Zn1064 Zn    0.87723   0.53109   0.70657   0.00000  Uiso   1.00
Zn1065 Zn    0.79560   0.53773   0.78734   0.00000  Uiso   1.00
C1066  C     0.05275   0.82637   0.75992   0.00000  Uiso   1.00
C1067  C     0.17502   0.83271   0.55902   0.00000  Uiso   1.00
C1068  C     0.21109   0.77284   0.55822   0.00000  Uiso   1.00
C1069  C     0.28085   0.84052   0.73993   0.00000  Uiso   1.00
C1070  C     0.13889   0.85963   0.92099   0.00000  Uiso   1.00
C1071  C     0.32677   0.84331   0.73576   0.00000  Uiso   1.00
C1072  C     0.00745   0.82390   0.76383   0.00000  Uiso   1.00
C1073  C     0.18086   0.98929   0.73444   0.00000  Uiso   1.00
C1074  C     0.15277   0.67846   0.76330   0.00000  Uiso   1.00
C1075  C     0.15557   0.72264   0.76078   0.00000  Uiso   1.00
C1076  C     0.17673   0.94468   0.73972   0.00000  Uiso   1.00
C1077  C     0.12505   0.91071   0.98583   0.00000  Uiso   1.00
C1078  C     0.18560   0.81459   0.62930   0.00000  Uiso   1.00
C1079  C     0.14806   0.85126   0.87126   0.00000  Uiso   1.00
C1080  C     0.21031   0.76159   0.51360   0.00000  Uiso   1.00
C1081  C     0.19221   0.80738   0.58103   0.00000  Uiso   1.00
C1082  C     0.12456   0.89821   0.94103   0.00000  Uiso   1.00
C1083  C     0.14243   0.88649   0.50910   0.00000  Uiso   1.00
C1084  C     0.15469   0.84704   0.99099   0.00000  Uiso   1.00
C1085  C     0.14839   0.83178   0.94819   0.00000  Uiso   1.00
C1086  C     0.17278   0.82208   0.51435   0.00000  Uiso   1.00
C1087  C     0.18775   0.78419   0.99281   0.00000  Uiso   1.00
C1088  C     0.17537   0.76752   0.95392   0.00000  Uiso   1.00
C1089  C     0.15166   0.78904   0.93465   0.00000  Uiso   1.00
H1090  H     0.22545   0.75413   0.57567   0.00000  Uiso   1.00
H1091  H     0.13158   0.95268   0.91185   0.00000  Uiso   1.00
H1092  H     0.07950   0.93128   0.93184   0.00000  Uiso   1.00
H1093  H     0.11559   0.68891   0.50362   0.00000  Uiso   1.00
H1094  H     0.06829   0.70355   0.92638   0.00000  Uiso   1.00
H1095  H     0.31894   0.80601   0.79014   0.00000  Uiso   1.00
H1096  H     0.12768   0.99784   0.79028   0.00000  Uiso   1.00
H1097  H     0.17924   0.73551   0.94164   0.00000  Uiso   1.00
H1098  H     0.16074   0.85864   0.57903   0.00000  Uiso   1.00
H1099  H     0.14570   0.89936   0.54161   0.00000  Uiso   1.00
H1100  H     0.01592   0.86117   0.70979   0.00000  Uiso   1.00
H1101  H     0.27423   0.99346   0.63568   0.00000  Uiso   1.00
H1102  H     0.27306   0.70362   0.91691   0.00000  Uiso   1.00
N1103  N     0.11058   0.92491   0.91532   0.00000  Uiso   1.00
O1104  O     0.16667   0.83333   0.75000   0.00000  Uiso   1.00
O1105  O     0.15451   0.79304   0.65458   0.00000  Uiso   1.00
O1106  O     0.12940   0.87058   0.84968   0.00000  Uiso   1.00
O1107  O     0.20824   0.84425   0.64606   0.00000  Uiso   1.00
O1108  O     0.17451   0.82546   0.84968   0.00000  Uiso   1.00
O1109  O     0.20215   0.69862   0.66060   0.00000  Uiso   1.00
O1110  O     0.25028   0.71273   0.71063   0.00000  Uiso   1.00
O1111  O     0.25312   0.97746   0.65914   0.00000  Uiso   1.00
O1112  O     0.27426   0.71571   0.50612   0.00000  Uiso   1.00
O1113  O     0.20834   0.68001   0.98847   0.00000  Uiso   1.00
O1114  O     0.25974   0.72896   0.93073   0.00000  Uiso   1.00
O1115  O     0.17930   0.74686   0.78213   0.00000  Uiso   1.00
O1116  O     0.05554   0.94921   0.52189   0.00000  Uiso   1.00
O1117  O     0.11465   0.96610   0.55844   0.00000  Uiso   1.00
O1118  O     0.12284   0.99751   0.98276   0.00000  Uiso   1.00
O1119  O     0.08709   0.78179   0.89170   0.00000  Uiso   1.00
O1120  O     0.14013   0.73189   0.86855   0.00000  Uiso   1.00
O1121  O     0.08348   0.72447   0.94441   0.00000  Uiso   1.00
O1122  O     0.14632   0.92751   0.77014   0.00000  Uiso   1.00
O1123  O     0.07412   0.79958   0.73413   0.00000  Uiso   1.00
O1124  O     0.26693   0.85939   0.71360   0.00000  Uiso   1.00
O1125  O     0.07071   0.85544   0.78213   0.00000  Uiso   1.00
O1126  O     0.25491   0.81892   0.77013   0.00000  Uiso   1.00
O1127  O     0.13760   0.73610   0.73413   0.00000  Uiso   1.00
O1128  O     0.20345   0.92286   0.71360   0.00000  Uiso   1.00
S1129  S     0.22233   0.67924   0.69042   0.00000  Uiso   1.00
S1130  S     0.23860   0.71991   0.98510   0.00000  Uiso   1.00
S1131  S     0.10359   0.95643   0.51398   0.00000  Uiso   1.00
S1132  S     0.11524   0.75727   0.90743   0.00000  Uiso   1.00
Zn1133 Zn    0.19338   0.80661   0.78734   0.00000  Uiso   1.00
Zn1134 Zn    0.13379   0.79124   0.71875   0.00000  Uiso   1.00
Zn1135 Zn    0.21056   0.86442   0.70657   0.00000  Uiso   1.00
Zn1136 Zn    0.12893   0.87106   0.78734   0.00000  Uiso   1.00
C1137  C     0.38608   0.82637   0.75992   0.00000  Uiso   1.00
C1138  C     0.50835   0.83271   0.55902   0.00000  Uiso   1.00
C1139  C     0.54442   0.77284   0.55822   0.00000  Uiso   1.00
C1140  C     0.61419   0.84052   0.73993   0.00000  Uiso   1.00
C1141  C     0.47222   0.85963   0.92099   0.00000  Uiso   1.00
C1142  C     0.66010   0.84331   0.73576   0.00000  Uiso   1.00
C1143  C     0.34078   0.82390   0.76383   0.00000  Uiso   1.00
C1144  C     0.51420   0.98929   0.73444   0.00000  Uiso   1.00
C1145  C     0.48611   0.67846   0.76330   0.00000  Uiso   1.00
C1146  C     0.48891   0.72264   0.76078   0.00000  Uiso   1.00
C1147  C     0.51006   0.94468   0.73972   0.00000  Uiso   1.00
C1148  C     0.45838   0.91071   0.98583   0.00000  Uiso   1.00
C1149  C     0.51894   0.81459   0.62930   0.00000  Uiso   1.00
C1150  C     0.48140   0.85126   0.87126   0.00000  Uiso   1.00
C1151  C     0.54364   0.76159   0.51360   0.00000  Uiso   1.00
C1152  C     0.52555   0.80738   0.58103   0.00000  Uiso   1.00
C1153  C     0.45789   0.89821   0.94103   0.00000  Uiso   1.00
C1154  C     0.47577   0.88649   0.50910   0.00000  Uiso   1.00
C1155  C     0.48802   0.84704   0.99099   0.00000  Uiso   1.00
C1156  C     0.48173   0.83178   0.94819   0.00000  Uiso   1.00
C1157  C     0.50611   0.82208   0.51435   0.00000  Uiso   1.00
C1158  C     0.52109   0.78419   0.99281   0.00000  Uiso   1.00
C1159  C     0.50871   0.76752   0.95392   0.00000  Uiso   1.00
C1160  C     0.48499   0.78904   0.93465   0.00000  Uiso   1.00
H1161  H     0.55879   0.75413   0.57567   0.00000  Uiso   1.00
H1162  H     0.46491   0.95268   0.91185   0.00000  Uiso   1.00
H1163  H     0.41284   0.93128   0.93184   0.00000  Uiso   1.00
H1164  H     0.44892   0.68891   0.50362   0.00000  Uiso   1.00
H1165  H     0.40162   0.70355   0.92638   0.00000  Uiso   1.00
H1166  H     0.65228   0.80601   0.79014   0.00000  Uiso   1.00
H1167  H     0.46101   0.99784   0.79028   0.00000  Uiso   1.00
H1168  H     0.51257   0.73551   0.94164   0.00000  Uiso   1.00
H1169  H     0.49408   0.85864   0.57903   0.00000  Uiso   1.00
H1170  H     0.47904   0.89936   0.54161   0.00000  Uiso   1.00
H1171  H     0.34925   0.86117   0.70979   0.00000  Uiso   1.00
H1172  H     0.60756   0.99346   0.63568   0.00000  Uiso   1.00
H1173  H     0.60639   0.70362   0.91691   0.00000  Uiso   1.00
N1174  N     0.44391   0.92491   0.91532   0.00000  Uiso   1.00
O1175  O     0.50000   0.83333   0.75000   0.00000  Uiso   1.00
O1176  O     0.48784   0.79304   0.65458   0.00000  Uiso   1.00
O1177  O     0.46274   0.87058   0.84968   0.00000  Uiso   1.00
O1178  O     0.54157   0.84425   0.64606   0.00000  Uiso   1.00
O1179  O     0.50785   0.82546   0.84968   0.00000  Uiso   1.00
O1180  O     0.53548   0.69862   0.66060   0.00000  Uiso   1.00
O1181  O     0.58362   0.71273   0.71063   0.00000  Uiso   1.00
O1182  O     0.58645   0.97746   0.65914   0.00000  Uiso   1.00
O1183  O     0.60759   0.71571   0.50612   0.00000  Uiso   1.00
O1184  O     0.54168   0.68001   0.98847   0.00000  Uiso   1.00
O1185  O     0.59307   0.72896   0.93073   0.00000  Uiso   1.00
O1186  O     0.51264   0.74686   0.78213   0.00000  Uiso   1.00
O1187  O     0.38888   0.94921   0.52189   0.00000  Uiso   1.00
O1188  O     0.44798   0.96610   0.55844   0.00000  Uiso   1.00
O1189  O     0.45617   0.99751   0.98276   0.00000  Uiso   1.00
O1190  O     0.42042   0.78179   0.89170   0.00000  Uiso   1.00
O1191  O     0.47346   0.73189   0.86855   0.00000  Uiso   1.00
O1192  O     0.41682   0.72447   0.94441   0.00000  Uiso   1.00
O1193  O     0.47965   0.92751   0.77014   0.00000  Uiso   1.00
O1194  O     0.40745   0.79958   0.73413   0.00000  Uiso   1.00
O1195  O     0.60026   0.85939   0.71360   0.00000  Uiso   1.00
O1196  O     0.40405   0.85544   0.78213   0.00000  Uiso   1.00
O1197  O     0.58824   0.81892   0.77013   0.00000  Uiso   1.00
O1198  O     0.47093   0.73610   0.73413   0.00000  Uiso   1.00
O1199  O     0.53678   0.92286   0.71360   0.00000  Uiso   1.00
S1200  S     0.55566   0.67924   0.69042   0.00000  Uiso   1.00
S1201  S     0.57193   0.71991   0.98510   0.00000  Uiso   1.00
S1202  S     0.43692   0.95643   0.51398   0.00000  Uiso   1.00
S1203  S     0.44857   0.75727   0.90743   0.00000  Uiso   1.00
Zn1204 Zn    0.52672   0.80661   0.78734   0.00000  Uiso   1.00
Zn1205 Zn    0.46713   0.79124   0.71875   0.00000  Uiso   1.00
Zn1206 Zn    0.54389   0.86442   0.70657   0.00000  Uiso   1.00
Zn1207 Zn    0.46226   0.87106   0.78734   0.00000  Uiso   1.00
C1208  C     0.71942   0.82637   0.75992   0.00000  Uiso   1.00
C1209  C     0.84169   0.83271   0.55902   0.00000  Uiso   1.00
C1210  C     0.87776   0.77284   0.55822   0.00000  Uiso   1.00
C1211  C     0.94752   0.84052   0.73993   0.00000  Uiso   1.00
C1212  C     0.80555   0.85963   0.92099   0.00000  Uiso   1.00
C1213  C     0.99343   0.84331   0.73576   0.00000  Uiso   1.00
C1214  C     0.67411   0.82390   0.76383   0.00000  Uiso   1.00
C1215  C     0.84753   0.98929   0.73444   0.00000  Uiso   1.00
C1216  C     0.81944   0.67846   0.76330   0.00000  Uiso   1.00
C1217  C     0.82224   0.72264   0.76078   0.00000  Uiso   1.00
C1218  C     0.84339   0.94468   0.73972   0.00000  Uiso   1.00
C1219  C     0.79172   0.91071   0.98583   0.00000  Uiso   1.00
C1220  C     0.85227   0.81459   0.62930   0.00000  Uiso   1.00
C1221  C     0.81473   0.85126   0.87126   0.00000  Uiso   1.00
C1222  C     0.87698   0.76159   0.51360   0.00000  Uiso   1.00
C1223  C     0.85888   0.80738   0.58103   0.00000  Uiso   1.00
C1224  C     0.79123   0.89821   0.94103   0.00000  Uiso   1.00
C1225  C     0.80910   0.88649   0.50910   0.00000  Uiso   1.00
C1226  C     0.82136   0.84704   0.99099   0.00000  Uiso   1.00
C1227  C     0.81506   0.83178   0.94819   0.00000  Uiso   1.00
C1228  C     0.83944   0.82208   0.51435   0.00000  Uiso   1.00
C1229  C     0.85442   0.78419   0.99281   0.00000  Uiso   1.00
C1230  C     0.84204   0.76752   0.95392   0.00000  Uiso   1.00
C1231  C     0.81833   0.78904   0.93465   0.00000  Uiso   1.00
H1232  H     0.89212   0.75413   0.57567   0.00000  Uiso   1.00
H1233  H     0.79824   0.95268   0.91185   0.00000  Uiso   1.00
H1234  H     0.74617   0.93128   0.93184   0.00000  Uiso   1.00
H1235  H     0.78225   0.68891   0.50362   0.00000  Uiso   1.00
H1236  H     0.73496   0.70355   0.92638   0.00000  Uiso   1.00
H1237  H     0.98561   0.80601   0.79014   0.00000  Uiso   1.00
H1238  H     0.79435   0.99784   0.79028   0.00000  Uiso   1.00
H1239  H     0.84591   0.73551   0.94164   0.00000  Uiso   1.00
H1240  H     0.82741   0.85864   0.57903   0.00000  Uiso   1.00
H1241  H     0.81237   0.89936   0.54161   0.00000  Uiso   1.00
H1242  H     0.68259   0.86117   0.70979   0.00000  Uiso   1.00
H1243  H     0.94090   0.99346   0.63568   0.00000  Uiso   1.00
H1244  H     0.93973   0.70362   0.91691   0.00000  Uiso   1.00
N1245  N     0.77725   0.92491   0.91532   0.00000  Uiso   1.00
O1246  O     0.83333   0.83333   0.75000   0.00000  Uiso   1.00
O1247  O     0.82118   0.79304   0.65458   0.00000  Uiso   1.00
O1248  O     0.79607   0.87058   0.84968   0.00000  Uiso   1.00
O1249  O     0.87491   0.84425   0.64606   0.00000  Uiso   1.00
O1250  O     0.84118   0.82546   0.84968   0.00000  Uiso   1.00
O1251  O     0.86882   0.69862   0.66060   0.00000  Uiso   1.00
O1252  O     0.91695   0.71273   0.71063   0.00000  Uiso   1.00
O1253  O     0.91979   0.97746   0.65914   0.00000  Uiso   1.00
O1254  O     0.94093   0.71571   0.50612   0.00000  Uiso   1.00
O1255  O     0.87501   0.68001   0.98847   0.00000  Uiso   1.00
O1256  O     0.92640   0.72896   0.93073   0.00000  Uiso   1.00
O1257  O     0.84597   0.74686   0.78213   0.00000  Uiso   1.00
O1258  O     0.72221   0.94921   0.52189   0.00000  Uiso   1.00
O1259  O     0.78132   0.96610   0.55844   0.00000  Uiso   1.00
O1260  O     0.78950   0.99751   0.98276   0.00000  Uiso   1.00
O1261  O     0.75376   0.78179   0.89170   0.00000  Uiso   1.00
O1262  O     0.80680   0.73189   0.86855   0.00000  Uiso   1.00
O1263  O     0.75015   0.72447   0.94441   0.00000  Uiso   1.00
O1264  O     0.81298   0.92751   0.77014   0.00000  Uiso   1.00
O1265  O     0.74078   0.79958   0.73413   0.00000  Uiso   1.00
O1266  O     0.93360   0.85939   0.71360   0.00000  Uiso   1.00
O1267  O     0.73738   0.85544   0.78213   0.00000  Uiso   1.00
O1268  O     0.92158   0.81892   0.77013   0.00000  Uiso   1.00
O1269  O     0.80426   0.73610   0.73413   0.00000  Uiso   1.00
O1270  O     0.87012   0.92286   0.71360   0.00000  Uiso   1.00
S1271  S     0.88900   0.67924   0.69042   0.00000  Uiso   1.00
S1272  S     0.90527   0.71991   0.98510   0.00000  Uiso   1.00
S1273  S     0.77025   0.95643   0.51398   0.00000  Uiso   1.00
S1274  S     0.78190   0.75727   0.90743   0.00000  Uiso   1.00
Zn1275 Zn    0.86005   0.80661   0.78734   0.00000  Uiso   1.00
Zn1276 Zn    0.80046   0.79124   0.71875   0.00000  Uiso   1.00
Zn1277 Zn    0.87723   0.86442   0.70657   0.00000  Uiso   1.00
Zn1278 Zn    0.79560   0.87106   0.78734   0.00000  Uiso   1.00
loop_
_geom_bond_atom_site_label_1
_geom_bond_atom_site_label_2
_geom_bond_distance
_geom_bond_site_symmetry_2
_ccdc_geom_bond_type
C1     C7      1.438   .     S
C1     O58     1.270   .     A
C1     O60     1.270   .     A
C2     C21     1.408   .     A
C2     H33     1.077   .     S
C2     C16     1.387   .     A
C3     C15     1.397   .     A
C3     H25     1.084   .     S
C3     C16     1.393   .     A
C4     O59     1.280   .     A
C4     C6      1.455   .     S
C4     O61     1.276   .     A
C5     C14     1.492   .     S
C5     C17     1.423   .     A
C5     C20     1.421   .     A
C6     C78     1.335   .     S
C6     H106    1.088   .     S
C7     C148    1.335   1_455 S
C7     H172    1.086   1_455 S
C8     C11     1.460   .     S
C8     C222    1.339   .     S
C8     S277    1.788   .     S
C9     C10     1.435   .     S
C9     C434    1.339   1_545 S
C9     H457    1.086   1_545 S
C10    O62     1.277   .     A
C10    O50     1.276   .     A
C11    O63     1.264   .     A
C11    O57     1.278   .     A
C12    C17     1.406   .     A
C12    C657    1.392   .     S
C12    S705    1.778   .     S
C13    O42     1.273   .     A
C13    C16     1.451   .     S
C13    O40     1.271   .     A
C14    O41     1.279   .     A
C14    O43     1.296   .     A
C15    C661    1.419   1_554 S
C15    S704    1.773   1_554 S
C17    N38     1.436   .     S
C18    H34     1.073   .     S
C18    C651    1.392   1_554 S
C18    C658    1.413   1_554 S
C19    C20     1.420   .     A
C19    C657    1.413   .     S
C19    C660    1.425   .     S
C20    C24     1.418   .     A
C21    C658    1.425   1_554 S
C21    C661    1.424   1_554 S
C22    C23     1.399   .     A
C22    C660    1.424   .     S
C22    C654    1.419   .     S
C23    C24     1.394   .     A
C23    H32     1.082   .     S
C24    S67     1.776   .     S
H26    N38     1.044   .     S
H27    N38     1.045   .     S
H28    O1118   0.991   1_544 S
H29    O56     0.991   .     S
H30    C78     1.086   .     S
H31    C222    1.086   .     S
H35    C148    1.088   1_455 S
H36    O46     0.991   .     S
H37    O49     0.991   .     S
O39    Zn68    1.959   .     S
O39    Zn69    1.942   .     S
O39    Zn70    1.928   .     S
O39    Zn71    1.933   .     S
O40    Zn69    1.927   .     S
O41    Zn71    1.938   .     S
O42    Zn70    1.934   .     S
O43    Zn68    1.925   .     S
O44    S64     1.503   .     D
O45    S64     1.503   .     D
O46    S277    1.682   .     S
O47    S704    1.504   1_554 S
O48    S65     1.501   .     D
O49    S65     1.682   .     S
O50    Zn68    1.927   .     S
O51    S66     1.503   .     D
O52    S66     1.504   .     D
O53    H880    0.991   .     S
O53    S705    1.680   .     S
O54    S67     1.502   .     D
O55    S67     1.500   .     D
O56    S67     1.681   .     S
O57    Zn71    1.928   .     S
O58    Zn69    1.926   .     S
O59    Zn70    1.937   .     S
O60    Zn71    1.931   .     S
O61    Zn68    1.921   .     S
O62    Zn69    1.935   .     S
O63    Zn70    1.930   .     S
S64    O472    1.682   1_545 S
S64    C434    1.788   1_545 S
S65    C654    1.773   .     S
S65    O686    1.504   .     S
S66    O692    1.680   1_554 S
S66    C651    1.778   1_554 S
C72    C78     1.438   .     S
C72    O129    1.270   .     A
C72    O131    1.270   .     A
C73    C92     1.408   .     A
C73    H104    1.077   .     S
C73    C87     1.387   .     A
C74    C86     1.397   .     A
C74    H96     1.084   .     S
C74    C87     1.393   .     A
C75    O130    1.280   .     A
C75    C77     1.455   .     S
C75    O132    1.276   .     A
C76    C85     1.492   .     S
C76    C88     1.423   .     A
C76    C91     1.421   .     A
C77    C149    1.335   .     S
C77    H177    1.088   .     S
C79    C82     1.460   .     S
C79    C293    1.339   .     S
C79    S348    1.788   .     S
C80    C81     1.435   .     S
C80    C505    1.339   1_545 S
C80    H528    1.086   1_545 S
C81    O133    1.277   .     A
C81    O121    1.276   .     A
C82    O134    1.264   .     A
C82    O128    1.278   .     A
C83    C88     1.406   .     A
C83    C728    1.392   .     S
C83    S776    1.778   .     S
C84    O113    1.273   .     A
C84    C87     1.451   .     S
C84    O111    1.271   .     A
C85    O112    1.279   .     A
C85    O114    1.296   .     A
C86    C732    1.419   1_554 S
C86    S775    1.773   1_554 S
C88    N109    1.436   .     S
C89    H105    1.073   .     S
C89    C722    1.392   1_554 S
C89    C729    1.413   1_554 S
C90    C91     1.420   .     A
C90    C728    1.413   .     S
C90    C731    1.425   .     S
C91    C95     1.418   .     A
C92    C729    1.425   1_554 S
C92    C732    1.424   1_554 S
C93    C94     1.399   .     A
C93    C731    1.424   .     S
C93    C725    1.419   .     S
C94    C95     1.394   .     A
C94    H103    1.082   .     S
C95    S138    1.776   .     S
H97    N109    1.044   .     S
H98    N109    1.045   .     S
H99    O1189   0.991   1_544 S
H100   O127    0.991   .     S
H101   C149    1.086   .     S
H102   C293    1.086   .     S
H107   O117    0.991   .     S
H108   O120    0.991   .     S
O110   Zn139   1.959   .     S
O110   Zn140   1.942   .     S
O110   Zn141   1.928   .     S
O110   Zn142   1.933   .     S
O111   Zn140   1.927   .     S
O112   Zn142   1.938   .     S
O113   Zn141   1.934   .     S
O114   Zn139   1.925   .     S
O115   S135    1.503   .     D
O116   S135    1.503   .     D
O117   S348    1.682   .     S
O118   S775    1.504   1_554 S
O119   S136    1.501   .     D
O120   S136    1.682   .     S
O121   Zn139   1.927   .     S
O122   S137    1.503   .     D
O123   S137    1.504   .     D
O124   H951    0.991   .     S
O124   S776    1.680   .     S
O125   S138    1.502   .     D
O126   S138    1.500   .     D
O127   S138    1.681   .     S
O128   Zn142   1.928   .     S
O129   Zn140   1.926   .     S
O130   Zn141   1.937   .     S
O131   Zn142   1.931   .     S
O132   Zn139   1.921   .     S
O133   Zn140   1.935   .     S
O134   Zn141   1.930   .     S
S135   O543    1.682   1_545 S
S135   C505    1.788   1_545 S
S136   C725    1.773   .     S
S136   O757    1.504   .     S
S137   O763    1.680   1_554 S
S137   C722    1.778   1_554 S
C143   C149    1.438   .     S
C143   O200    1.270   .     A
C143   O202    1.270   .     A
C144   C163    1.408   .     A
C144   H175    1.077   .     S
C144   C158    1.387   .     A
C145   C157    1.397   .     A
C145   H167    1.084   .     S
C145   C158    1.393   .     A
C146   O201    1.280   .     A
C146   C148    1.455   .     S
C146   O203    1.276   .     A
C147   C156    1.492   .     S
C147   C159    1.423   .     A
C147   C162    1.421   .     A
C148   C7      1.335   1_655 S
C148   H35     1.088   1_655 S
C150   C153    1.460   .     S
C150   C364    1.339   .     S
C150   S419    1.788   .     S
C151   C152    1.435   .     S
C151   C576    1.339   1_545 S
C151   H599    1.086   1_545 S
C152   O204    1.277   .     A
C152   O192    1.276   .     A
C153   O205    1.264   .     A
C153   O199    1.278   .     A
C154   C159    1.406   .     A
C154   C799    1.392   .     S
C154   S847    1.778   .     S
C155   O184    1.273   .     A
C155   C158    1.451   .     S
C155   O182    1.271   .     A
C156   O183    1.279   .     A
C156   O185    1.296   .     A
C157   C803    1.419   1_554 S
C157   S846    1.773   1_554 S
C159   N180    1.436   .     S
C160   H176    1.073   .     S
C160   C793    1.392   1_554 S
C160   C800    1.413   1_554 S
C161   C162    1.420   .     A
C161   C799    1.413   .     S
C161   C802    1.425   .     S
C162   C166    1.418   .     A
C163   C800    1.425   1_554 S
C163   C803    1.424   1_554 S
C164   C165    1.399   .     A
C164   C802    1.424   .     S
C164   C796    1.419   .     S
C165   C166    1.394   .     A
C165   H174    1.082   .     S
C166   S209    1.776   .     S
H168   N180    1.044   .     S
H169   N180    1.045   .     S
H170   O1260   0.991   1_544 S
H171   O198    0.991   .     S
H172   C7      1.086   1_655 S
H173   C364    1.086   .     S
H178   O188    0.991   .     S
H179   O191    0.991   .     S
O181   Zn210   1.959   .     S
O181   Zn211   1.942   .     S
O181   Zn212   1.928   .     S
O181   Zn213   1.933   .     S
O182   Zn211   1.927   .     S
O183   Zn213   1.938   .     S
O184   Zn212   1.934   .     S
O185   Zn210   1.925   .     S
O186   S206    1.503   .     D
O187   S206    1.503   .     D
O188   S419    1.682   .     S
O189   S846    1.504   1_554 S
O190   S207    1.501   .     D
O191   S207    1.682   .     S
O192   Zn210   1.927   .     S
O193   S208    1.503   .     D
O194   S208    1.504   .     D
O195   H1022   0.991   .     S
O195   S847    1.680   .     S
O196   S209    1.502   .     D
O197   S209    1.500   .     D
O198   S209    1.681   .     S
O199   Zn213   1.928   .     S
O200   Zn211   1.926   .     S
O201   Zn212   1.937   .     S
O202   Zn213   1.931   .     S
O203   Zn210   1.921   .     S
O204   Zn211   1.935   .     S
O205   Zn212   1.930   .     S
S206   O614    1.682   1_545 S
S206   C576    1.788   1_545 S
S207   C796    1.773   .     S
S207   O828    1.504   .     S
S208   O834    1.680   1_554 S
S208   C793    1.778   1_554 S
C214   C220    1.438   .     S
C214   O271    1.270   .     A
C214   O273    1.270   .     A
C215   C234    1.408   .     A
C215   H246    1.077   .     S
C215   C229    1.387   .     A
C216   C228    1.397   .     A
C216   H238    1.084   .     S
C216   C229    1.393   .     A
C217   O272    1.280   .     A
C217   C219    1.455   .     S
C217   O274    1.276   .     A
C218   C227    1.492   .     S
C218   C230    1.423   .     A
C218   C233    1.421   .     A
C219   C291    1.335   .     S
C219   H319    1.088   .     S
C220   C361    1.335   1_455 S
C220   H385    1.086   1_455 S
C221   C224    1.460   .     S
C221   C435    1.339   .     S
C221   S490    1.788   .     S
C222   C223    1.435   .     S
C223   O275    1.277   .     A
C223   O263    1.276   .     A
C224   O276    1.264   .     A
C224   O270    1.278   .     A
C225   C230    1.406   .     A
C225   C870    1.392   .     S
C225   S918    1.778   .     S
C226   O255    1.273   .     A
C226   C229    1.451   .     S
C226   O253    1.271   .     A
C227   O254    1.279   .     A
C227   O256    1.296   .     A
C228   C874    1.419   1_554 S
C228   S917    1.773   1_554 S
C230   N251    1.436   .     S
C231   H247    1.073   .     S
C231   C864    1.392   1_554 S
C231   C871    1.413   1_554 S
C232   C233    1.420   .     A
C232   C870    1.413   .     S
C232   C873    1.425   .     S
C233   C237    1.418   .     A
C234   C871    1.425   1_554 S
C234   C874    1.424   1_554 S
C235   C236    1.399   .     A
C235   C873    1.424   .     S
C235   C867    1.419   .     S
C236   C237    1.394   .     A
C236   H245    1.082   .     S
C237   S280    1.776   .     S
H239   N251    1.044   .     S
H240   N251    1.045   .     S
H241   O692    0.991   1_554 S
H242   O269    0.991   .     S
H243   C291    1.086   .     S
H244   C435    1.086   .     S
H248   C361    1.088   1_455 S
H249   O259    0.991   .     S
H250   O262    0.991   .     S
O252   Zn281   1.959   .     S
O252   Zn282   1.942   .     S
O252   Zn283   1.928   .     S
O252   Zn284   1.933   .     S
O253   Zn282   1.927   .     S
O254   Zn284   1.938   .     S
O255   Zn283   1.934   .     S
O256   Zn281   1.925   .     S
O257   S277    1.503   .     D
O258   S277    1.503   .     D
O259   S490    1.682   .     S
O260   S917    1.504   1_554 S
O261   S278    1.501   .     D
O262   S278    1.682   .     S
O263   Zn281   1.927   .     S
O264   S279    1.503   .     D
O265   S279    1.504   .     D
O266   H1093   0.991   .     S
O266   S918    1.680   .     S
O267   S280    1.502   .     D
O268   S280    1.500   .     D
O269   S280    1.681   .     S
O270   Zn284   1.928   .     S
O271   Zn282   1.926   .     S
O272   Zn283   1.937   .     S
O273   Zn284   1.931   .     S
O274   Zn281   1.921   .     S
O275   Zn282   1.935   .     S
O276   Zn283   1.930   .     S
S278   C867    1.773   .     S
S278   O899    1.504   .     S
S279   O905    1.680   1_554 S
S279   C864    1.778   1_554 S
C285   C291    1.438   .     S
C285   O342    1.270   .     A
C285   O344    1.270   .     A
C286   C305    1.408   .     A
C286   H317    1.077   .     S
C286   C300    1.387   .     A
C287   C299    1.397   .     A
C287   H309    1.084   .     S
C287   C300    1.393   .     A
C288   O343    1.280   .     A
C288   C290    1.455   .     S
C288   O345    1.276   .     A
C289   C298    1.492   .     S
C289   C301    1.423   .     A
C289   C304    1.421   .     A
C290   C362    1.335   .     S
C290   H390    1.088   .     S
C292   C295    1.460   .     S
C292   C506    1.339   .     S
C292   S561    1.788   .     S
C293   C294    1.435   .     S
C294   O346    1.277   .     A
C294   O334    1.276   .     A
C295   O347    1.264   .     A
C295   O341    1.278   .     A
C296   C301    1.406   .     A
C296   C941    1.392   .     S
C296   S989    1.778   .     S
C297   O326    1.273   .     A
C297   C300    1.451   .     S
C297   O324    1.271   .     A
C298   O325    1.279   .     A
C298   O327    1.296   .     A
C299   C945    1.419   1_554 S
C299   S988    1.773   1_554 S
C301   N322    1.436   .     S
C302   H318    1.073   .     S
C302   C935    1.392   1_554 S
C302   C942    1.413   1_554 S
C303   C304    1.420   .     A
C303   C941    1.413   .     S
C303   C944    1.425   .     S
C304   C308    1.418   .     A
C305   C942    1.425   1_554 S
C305   C945    1.424   1_554 S
C306   C307    1.399   .     A
C306   C944    1.424   .     S
C306   C938    1.419   .     S
C307   C308    1.394   .     A
C307   H316    1.082   .     S
C308   S351    1.776   .     S
H310   N322    1.044   .     S
H311   N322    1.045   .     S
H312   O763    0.991   1_554 S
H313   O340    0.991   .     S
H314   C362    1.086   .     S
H315   C506    1.086   .     S
H320   O330    0.991   .     S
H321   O333    0.991   .     S
O323   Zn352   1.959   .     S
O323   Zn353   1.942   .     S
O323   Zn354   1.928   .     S
O323   Zn355   1.933   .     S
O324   Zn353   1.927   .     S
O325   Zn355   1.938   .     S
O326   Zn354   1.934   .     S
O327   Zn352   1.925   .     S
O328   S348    1.503   .     D
O329   S348    1.503   .     D
O330   S561    1.682   .     S
O331   S988    1.504   1_554 S
O332   S349    1.501   .     D
O333   S349    1.682   .     S
O334   Zn352   1.927   .     S
O335   S350    1.503   .     D
O336   S350    1.504   .     D
O337   H1164   0.991   .     S
O337   S989    1.680   .     S
O338   S351    1.502   .     D
O339   S351    1.500   .     D
O340   S351    1.681   .     S
O341   Zn355   1.928   .     S
O342   Zn353   1.926   .     S
O343   Zn354   1.937   .     S
O344   Zn355   1.931   .     S
O345   Zn352   1.921   .     S
O346   Zn353   1.935   .     S
O347   Zn354   1.930   .     S
S349   C938    1.773   .     S
S349   O970    1.504   .     S
S350   O976    1.680   1_554 S
S350   C935    1.778   1_554 S
C356   C362    1.438   .     S
C356   O413    1.270   .     A
C356   O415    1.270   .     A
C357   C376    1.408   .     A
C357   H388    1.077   .     S
C357   C371    1.387   .     A
C358   C370    1.397   .     A
C358   H380    1.084   .     S
C358   C371    1.393   .     A
C359   O414    1.280   .     A
C359   C361    1.455   .     S
C359   O416    1.276   .     A
C360   C369    1.492   .     S
C360   C372    1.423   .     A
C360   C375    1.421   .     A
C361   C220    1.335   1_655 S
C361   H248    1.088   1_655 S
C363   C366    1.460   .     S
C363   C577    1.339   .     S
C363   S632    1.788   .     S
C364   C365    1.435   .     S
C365   O417    1.277   .     A
C365   O405    1.276   .     A
C366   O418    1.264   .     A
C366   O412    1.278   .     A
C367   C372    1.406   .     A
C367   C1012   1.392   .     S
C367   S1060   1.778   .     S
C368   O397    1.273   .     A
C368   C371    1.451   .     S
C368   O395    1.271   .     A
C369   O396    1.279   .     A
C369   O398    1.296   .     A
C370   C1016   1.419   1_554 S
C370   S1059   1.773   1_554 S
C372   N393    1.436   .     S
C373   H389    1.073   .     S
C373   C1006   1.392   1_554 S
C373   C1013   1.413   1_554 S
C374   C375    1.420   .     A
C374   C1012   1.413   .     S
C374   C1015   1.425   .     S
C375   C379    1.418   .     A
C376   C1013   1.425   1_554 S
C376   C1016   1.424   1_554 S
C377   C378    1.399   .     A
C377   C1015   1.424   .     S
C377   C1009   1.419   .     S
C378   C379    1.394   .     A
C378   H387    1.082   .     S
C379   S422    1.776   .     S
H381   N393    1.044   .     S
H382   N393    1.045   .     S
H383   O834    0.991   1_554 S
H384   O411    0.991   .     S
H385   C220    1.086   1_655 S
H386   C577    1.086   .     S
H391   O401    0.991   .     S
H392   O404    0.991   .     S
O394   Zn423   1.959   .     S
O394   Zn424   1.942   .     S
O394   Zn425   1.928   .     S
O394   Zn426   1.933   .     S
O395   Zn424   1.927   .     S
O396   Zn426   1.938   .     S
O397   Zn425   1.934   .     S
O398   Zn423   1.925   .     S
O399   S419    1.503   .     D
O400   S419    1.503   .     D
O401   S632    1.682   .     S
O402   S1059   1.504   1_554 S
O403   S420    1.501   .     D
O404   S420    1.682   .     S
O405   Zn423   1.927   .     S
O406   S421    1.503   .     D
O407   S421    1.504   .     D
O408   H1235   0.991   .     S
O408   S1060   1.680   .     S
O409   S422    1.502   .     D
O410   S422    1.500   .     D
O411   S422    1.681   .     S
O412   Zn426   1.928   .     S
O413   Zn424   1.926   .     S
O414   Zn425   1.937   .     S
O415   Zn426   1.931   .     S
O416   Zn423   1.921   .     S
O417   Zn424   1.935   .     S
O418   Zn425   1.930   .     S
S420   C1009   1.773   .     S
S420   O1041   1.504   .     S
S421   O1047   1.680   1_554 S
S421   C1006   1.778   1_554 S
C427   C433    1.438   .     S
C427   O484    1.270   .     A
C427   O486    1.270   .     A
C428   C447    1.408   .     A
C428   H459    1.077   .     S
C428   C442    1.387   .     A
C429   C441    1.397   .     A
C429   H451    1.084   .     S
C429   C442    1.393   .     A
C430   O485    1.280   .     A
C430   C432    1.455   .     S
C430   O487    1.276   .     A
C431   C440    1.492   .     S
C431   C443    1.423   .     A
C431   C446    1.421   .     A
C432   C504    1.335   .     S
C432   H532    1.088   .     S
C433   C574    1.335   1_455 S
C433   H598    1.086   1_455 S
C434   C437    1.460   .     S
C434   C9      1.339   1_565 S
C434   S64     1.788   1_565 S
C435   C436    1.435   .     S
C436   O488    1.277   .     A
C436   O476    1.276   .     A
C437   O489    1.264   .     A
C437   O483    1.278   .     A
C438   C443    1.406   .     A
C438   C1083   1.392   .     S
C438   S1131   1.778   .     S
C439   O468    1.273   .     A
C439   C442    1.451   .     S
C439   O466    1.271   .     A
C440   O467    1.279   .     A
C440   O469    1.296   .     A
C441   C1087   1.419   1_554 S
C441   S1130   1.773   1_554 S
C443   N464    1.436   .     S
C444   H460    1.073   .     S
C444   C1077   1.392   1_554 S
C444   C1084   1.413   1_554 S
C445   C446    1.420   .     A
C445   C1083   1.413   .     S
C445   C1086   1.425   .     S
C446   C450    1.418   .     A
C447   C1084   1.425   1_554 S
C447   C1087   1.424   1_554 S
C448   C449    1.399   .     A
C448   C1086   1.424   .     S
C448   C1080   1.419   .     S
C449   C450    1.394   .     A
C449   H458    1.082   .     S
C450   S493    1.776   .     S
H452   N464    1.044   .     S
H453   N464    1.045   .     S
H454   O905    0.991   1_554 S
H455   O482    0.991   .     S
H456   C504    1.086   .     S
H457   C9      1.086   1_565 S
H461   C574    1.088   1_455 S
H462   O472    0.991   .     S
H463   O475    0.991   .     S
O465   Zn494   1.959   .     S
O465   Zn495   1.942   .     S
O465   Zn496   1.928   .     S
O465   Zn497   1.933   .     S
O466   Zn495   1.927   .     S
O467   Zn497   1.938   .     S
O468   Zn496   1.934   .     S
O469   Zn494   1.925   .     S
O470   S490    1.503   .     D
O471   S490    1.503   .     D
O472   S64     1.682   1_565 S
O473   S1130   1.504   1_554 S
O474   S491    1.501   .     D
O475   S491    1.682   .     S
O476   Zn494   1.927   .     S
O477   S492    1.503   .     D
O478   S492    1.504   .     D
O479   H667    0.991   1_565 S
O479   S1131   1.680   .     S
O480   S493    1.502   .     D
O481   S493    1.500   .     D
O482   S493    1.681   .     S
O483   Zn497   1.928   .     S
O484   Zn495   1.926   .     S
O485   Zn496   1.937   .     S
O486   Zn497   1.931   .     S
O487   Zn494   1.921   .     S
O488   Zn495   1.935   .     S
O489   Zn496   1.930   .     S
S491   C1080   1.773   .     S
S491   O1112   1.504   .     S
S492   O1118   1.680   1_554 S
S492   C1077   1.778   1_554 S
C498   C504    1.438   .     S
C498   O555    1.270   .     A
C498   O557    1.270   .     A
C499   C518    1.408   .     A
C499   H530    1.077   .     S
C499   C513    1.387   .     A
C500   C512    1.397   .     A
C500   H522    1.084   .     S
C500   C513    1.393   .     A
C501   O556    1.280   .     A
C501   C503    1.455   .     S
C501   O558    1.276   .     A
C502   C511    1.492   .     S
C502   C514    1.423   .     A
C502   C517    1.421   .     A
C503   C575    1.335   .     S
C503   H603    1.088   .     S
C505   C508    1.460   .     S
C505   C80     1.339   1_565 S
C505   S135    1.788   1_565 S
C506   C507    1.435   .     S
C507   O559    1.277   .     A
C507   O547    1.276   .     A
C508   O560    1.264   .     A
C508   O554    1.278   .     A
C509   C514    1.406   .     A
C509   C1154   1.392   .     S
C509   S1202   1.778   .     S
C510   O539    1.273   .     A
C510   C513    1.451   .     S
C510   O537    1.271   .     A
C511   O538    1.279   .     A
C511   O540    1.296   .     A
C512   C1158   1.419   1_554 S
C512   S1201   1.773   1_554 S
C514   N535    1.436   .     S
C515   H531    1.073   .     S
C515   C1148   1.392   1_554 S
C515   C1155   1.413   1_554 S
C516   C517    1.420   .     A
C516   C1154   1.413   .     S
C516   C1157   1.425   .     S
C517   C521    1.418   .     A
C518   C1155   1.425   1_554 S
C518   C1158   1.424   1_554 S
C519   C520    1.399   .     A
C519   C1157   1.424   .     S
C519   C1151   1.419   .     S
C520   C521    1.394   .     A
C520   H529    1.082   .     S
C521   S564    1.776   .     S
H523   N535    1.044   .     S
H524   N535    1.045   .     S
H525   O976    0.991   1_554 S
H526   O553    0.991   .     S
H527   C575    1.086   .     S
H528   C80     1.086   1_565 S
H533   O543    0.991   .     S
H534   O546    0.991   .     S
O536   Zn565   1.959   .     S
O536   Zn566   1.942   .     S
O536   Zn567   1.928   .     S
O536   Zn568   1.933   .     S
O537   Zn566   1.927   .     S
O538   Zn568   1.938   .     S
O539   Zn567   1.934   .     S
O540   Zn565   1.925   .     S
O541   S561    1.503   .     D
O542   S561    1.503   .     D
O543   S135    1.682   1_565 S
O544   S1201   1.504   1_554 S
O545   S562    1.501   .     D
O546   S562    1.682   .     S
O547   Zn565   1.927   .     S
O548   S563    1.503   .     D
O549   S563    1.504   .     D
O550   H738    0.991   1_565 S
O550   S1202   1.680   .     S
O551   S564    1.502   .     D
O552   S564    1.500   .     D
O553   S564    1.681   .     S
O554   Zn568   1.928   .     S
O555   Zn566   1.926   .     S
O556   Zn567   1.937   .     S
O557   Zn568   1.931   .     S
O558   Zn565   1.921   .     S
O559   Zn566   1.935   .     S
O560   Zn567   1.930   .     S
S562   C1151   1.773   .     S
S562   O1183   1.504   .     S
S563   O1189   1.680   1_554 S
S563   C1148   1.778   1_554 S
C569   C575    1.438   .     S
C569   O626    1.270   .     A
C569   O628    1.270   .     A
C570   C589    1.408   .     A
C570   H601    1.077   .     S
C570   C584    1.387   .     A
C571   C583    1.397   .     A
C571   H593    1.084   .     S
C571   C584    1.393   .     A
C572   O627    1.280   .     A
C572   C574    1.455   .     S
C572   O629    1.276   .     A
C573   C582    1.492   .     S
C573   C585    1.423   .     A
C573   C588    1.421   .     A
C574   C433    1.335   1_655 S
C574   H461    1.088   1_655 S
C576   C579    1.460   .     S
C576   C151    1.339   1_565 S
C576   S206    1.788   1_565 S
C577   C578    1.435   .     S
C578   O630    1.277   .     A
C578   O618    1.276   .     A
C579   O631    1.264   .     A
C579   O625    1.278   .     A
C580   C585    1.406   .     A
C580   C1225   1.392   .     S
C580   S1273   1.778   .     S
C581   O610    1.273   .     A
C581   C584    1.451   .     S
C581   O608    1.271   .     A
C582   O609    1.279   .     A
C582   O611    1.296   .     A
C583   C1229   1.419   1_554 S
C583   S1272   1.773   1_554 S
C585   N606    1.436   .     S
C586   H602    1.073   .     S
C586   C1219   1.392   1_554 S
C586   C1226   1.413   1_554 S
C587   C588    1.420   .     A
C587   C1225   1.413   .     S
C587   C1228   1.425   .     S
C588   C592    1.418   .     A
C589   C1226   1.425   1_554 S
C589   C1229   1.424   1_554 S
C590   C591    1.399   .     A
C590   C1228   1.424   .     S
C590   C1222   1.419   .     S
C591   C592    1.394   .     A
C591   H600    1.082   .     S
C592   S635    1.776   .     S
H594   N606    1.044   .     S
H595   N606    1.045   .     S
H596   O1047   0.991   1_554 S
H597   O624    0.991   .     S
H598   C433    1.086   1_655 S
H599   C151    1.086   1_565 S
H604   O614    0.991   .     S
H605   O617    0.991   .     S
O607   Zn636   1.959   .     S
O607   Zn637   1.942   .     S
O607   Zn638   1.928   .     S
O607   Zn639   1.933   .     S
O608   Zn637   1.927   .     S
O609   Zn639   1.938   .     S
O610   Zn638   1.934   .     S
O611   Zn636   1.925   .     S
O612   S632    1.503   .     D
O613   S632    1.503   .     D
O614   S206    1.682   1_565 S
O615   S1272   1.504   1_554 S
O616   S633    1.501   .     D
O617   S633    1.682   .     S
O618   Zn636   1.927   .     S
O619   S634    1.503   .     D
O620   S634    1.504   .     D
O621   H809    0.991   1_565 S
O621   S1273   1.680   .     S
O622   S635    1.502   .     D
O623   S635    1.500   .     D
O624   S635    1.681   .     S
O625   Zn639   1.928   .     S
O626   Zn637   1.926   .     S
O627   Zn638   1.937   .     S
O628   Zn639   1.931   .     S
O629   Zn636   1.921   .     S
O630   Zn637   1.935   .     S
O631   Zn638   1.930   .     S
S633   C1222   1.773   .     S
S633   O1254   1.504   .     S
S634   O1260   1.680   1_554 S
S634   C1219   1.778   1_554 S
C640   C646    1.438   .     S
C640   O697    1.270   .     A
C640   O699    1.270   .     A
C641   C660    1.408   .     A
C641   H672    1.077   .     S
C641   C655    1.387   .     A
C642   C654    1.397   .     A
C642   H664    1.084   .     S
C642   C655    1.393   .     A
C643   O698    1.280   .     A
C643   C645    1.455   .     S
C643   O700    1.276   .     A
C644   C653    1.492   .     S
C644   C656    1.423   .     A
C644   C659    1.421   .     A
C645   C717    1.335   .     S
C645   H745    1.088   .     S
C646   C787    1.335   1_455 S
C646   H811    1.086   1_455 S
C647   C650    1.460   .     S
C647   C861    1.339   .     S
C647   S916    1.788   .     S
C648   C649    1.435   .     S
C648   C1073   1.339   1_545 S
C648   H1096   1.086   1_545 S
C649   O701    1.277   .     A
C649   O689    1.276   .     A
C650   O702    1.264   .     A
C650   O696    1.278   .     A
C651   C656    1.406   .     A
C651   C18     1.392   1_556 S
C651   S66     1.778   1_556 S
C652   O681    1.273   .     A
C652   C655    1.451   .     S
C652   O679    1.271   .     A
C653   O680    1.279   .     A
C653   O682    1.296   .     A
C656   N677    1.436   .     S
C657   H673    1.073   .     S
C658   C659    1.420   .     A
C658   C18     1.413   1_556 S
C658   C21     1.425   1_556 S
C659   C663    1.418   .     A
C661   C662    1.399   .     A
C661   C21     1.424   1_556 S
C661   C15     1.419   1_556 S
C662   C663    1.394   .     A
C662   H671    1.082   .     S
C663   S706    1.776   .     S
H665   N677    1.044   .     S
H666   N677    1.045   .     S
H667   O479    0.991   1_545 S
H668   O695    0.991   .     S
H669   C717    1.086   .     S
H670   C861    1.086   .     S
H674   C787    1.088   1_455 S
H675   O685    0.991   .     S
H676   O688    0.991   .     S
O678   Zn707   1.959   .     S
O678   Zn708   1.942   .     S
O678   Zn709   1.928   .     S
O678   Zn710   1.933   .     S
O679   Zn708   1.927   .     S
O680   Zn710   1.938   .     S
O681   Zn709   1.934   .     S
O682   Zn707   1.925   .     S
O683   S703    1.503   .     D
O684   S703    1.503   .     D
O685   S916    1.682   .     S
O687   S704    1.501   .     D
O688   S704    1.682   .     S
O689   Zn707   1.927   .     S
O690   S705    1.503   .     D
O691   S705    1.504   .     D
O692   H241    0.991   1_556 S
O692   S66     1.680   1_556 S
O693   S706    1.502   .     D
O694   S706    1.500   .     D
O695   S706    1.681   .     S
O696   Zn710   1.928   .     S
O697   Zn708   1.926   .     S
O698   Zn709   1.937   .     S
O699   Zn710   1.931   .     S
O700   Zn707   1.921   .     S
O701   Zn708   1.935   .     S
O702   Zn709   1.930   .     S
S703   O1111   1.682   1_545 S
S703   C1073   1.788   1_545 S
S704   C15     1.773   1_556 S
S704   O47     1.504   1_556 S
C711   C717    1.438   .     S
C711   O768    1.270   .     A
C711   O770    1.270   .     A
C712   C731    1.408   .     A
C712   H743    1.077   .     S
C712   C726    1.387   .     A
C713   C725    1.397   .     A
C713   H735    1.084   .     S
C713   C726    1.393   .     A
C714   O769    1.280   .     A
C714   C716    1.455   .     S
C714   O771    1.276   .     A
C715   C724    1.492   .     S
C715   C727    1.423   .     A
C715   C730    1.421   .     A
C716   C788    1.335   .     S
C716   H816    1.088   .     S
C718   C721    1.460   .     S
C718   C932    1.339   .     S
C718   S987    1.788   .     S
C719   C720    1.435   .     S
C719   C1144   1.339   1_545 S
C719   H1167   1.086   1_545 S
C720   O772    1.277   .     A
C720   O760    1.276   .     A
C721   O773    1.264   .     A
C721   O767    1.278   .     A
C722   C727    1.406   .     A
C722   C89     1.392   1_556 S
C722   S137    1.778   1_556 S
C723   O752    1.273   .     A
C723   C726    1.451   .     S
C723   O750    1.271   .     A
C724   O751    1.279   .     A
C724   O753    1.296   .     A
C727   N748    1.436   .     S
C728   H744    1.073   .     S
C729   C730    1.420   .     A
C729   C89     1.413   1_556 S
C729   C92     1.425   1_556 S
C730   C734    1.418   .     A
C732   C733    1.399   .     A
C732   C92     1.424   1_556 S
C732   C86     1.419   1_556 S
C733   C734    1.394   .     A
C733   H742    1.082   .     S
C734   S777    1.776   .     S
H736   N748    1.044   .     S
H737   N748    1.045   .     S
H738   O550    0.991   1_545 S
H739   O766    0.991   .     S
H740   C788    1.086   .     S
H741   C932    1.086   .     S
H746   O756    0.991   .     S
H747   O759    0.991   .     S
O749   Zn778   1.959   .     S
O749   Zn779   1.942   .     S
O749   Zn780   1.928   .     S
O749   Zn781   1.933   .     S
O750   Zn779   1.927   .     S
O751   Zn781   1.938   .     S
O752   Zn780   1.934   .     S
O753   Zn778   1.925   .     S
O754   S774    1.503   .     D
O755   S774    1.503   .     D
O756   S987    1.682   .     S
O758   S775    1.501   .     D
O759   S775    1.682   .     S
O760   Zn778   1.927   .     S
O761   S776    1.503   .     D
O762   S776    1.504   .     D
O763   H312    0.991   1_556 S
O763   S137    1.680   1_556 S
O764   S777    1.502   .     D
O765   S777    1.500   .     D
O766   S777    1.681   .     S
O767   Zn781   1.928   .     S
O768   Zn779   1.926   .     S
O769   Zn780   1.937   .     S
O770   Zn781   1.931   .     S
O771   Zn778   1.921   .     S
O772   Zn779   1.935   .     S
O773   Zn780   1.930   .     S
S774   O1182   1.682   1_545 S
S774   C1144   1.788   1_545 S
S775   C86     1.773   1_556 S
S775   O118    1.504   1_556 S
C782   C788    1.438   .     S
C782   O839    1.270   .     A
C782   O841    1.270   .     A
C783   C802    1.408   .     A
C783   H814    1.077   .     S
C783   C797    1.387   .     A
C784   C796    1.397   .     A
C784   H806    1.084   .     S
C784   C797    1.393   .     A
C785   O840    1.280   .     A
C785   C787    1.455   .     S
C785   O842    1.276   .     A
C786   C795    1.492   .     S
C786   C798    1.423   .     A
C786   C801    1.421   .     A
C787   C646    1.335   1_655 S
C787   H674    1.088   1_655 S
C789   C792    1.460   .     S
C789   C1003   1.339   .     S
C789   S1058   1.788   .     S
C790   C791    1.435   .     S
C790   C1215   1.339   1_545 S
C790   H1238   1.086   1_545 S
C791   O843    1.277   .     A
C791   O831    1.276   .     A
C792   O844    1.264   .     A
C792   O838    1.278   .     A
C793   C798    1.406   .     A
C793   C160    1.392   1_556 S
C793   S208    1.778   1_556 S
C794   O823    1.273   .     A
C794   C797    1.451   .     S
C794   O821    1.271   .     A
C795   O822    1.279   .     A
C795   O824    1.296   .     A
C798   N819    1.436   .     S
C799   H815    1.073   .     S
C800   C801    1.420   .     A
C800   C160    1.413   1_556 S
C800   C163    1.425   1_556 S
C801   C805    1.418   .     A
C803   C804    1.399   .     A
C803   C163    1.424   1_556 S
C803   C157    1.419   1_556 S
C804   C805    1.394   .     A
C804   H813    1.082   .     S
C805   S848    1.776   .     S
H807   N819    1.044   .     S
H808   N819    1.045   .     S
H809   O621    0.991   1_545 S
H810   O837    0.991   .     S
H811   C646    1.086   1_655 S
H812   C1003   1.086   .     S
H817   O827    0.991   .     S
H818   O830    0.991   .     S
O820   Zn849   1.959   .     S
O820   Zn850   1.942   .     S
O820   Zn851   1.928   .     S
O820   Zn852   1.933   .     S
O821   Zn850   1.927   .     S
O822   Zn852   1.938   .     S
O823   Zn851   1.934   .     S
O824   Zn849   1.925   .     S
O825   S845    1.503   .     D
O826   S845    1.503   .     D
O827   S1058   1.682   .     S
O829   S846    1.501   .     D
O830   S846    1.682   .     S
O831   Zn849   1.927   .     S
O832   S847    1.503   .     D
O833   S847    1.504   .     D
O834   H383    0.991   1_556 S
O834   S208    1.680   1_556 S
O835   S848    1.502   .     D
O836   S848    1.500   .     D
O837   S848    1.681   .     S
O838   Zn852   1.928   .     S
O839   Zn850   1.926   .     S
O840   Zn851   1.937   .     S
O841   Zn852   1.931   .     S
O842   Zn849   1.921   .     S
O843   Zn850   1.935   .     S
O844   Zn851   1.930   .     S
S845   O1253   1.682   1_545 S
S845   C1215   1.788   1_545 S
S846   C157    1.773   1_556 S
S846   O189    1.504   1_556 S
C853   C859    1.438   .     S
C853   O910    1.270   .     A
C853   O912    1.270   .     A
C854   C873    1.408   .     A
C854   H885    1.077   .     S
C854   C868    1.387   .     A
C855   C867    1.397   .     A
C855   H877    1.084   .     S
C855   C868    1.393   .     A
C856   O911    1.280   .     A
C856   C858    1.455   .     S
C856   O913    1.276   .     A
C857   C866    1.492   .     S
C857   C869    1.423   .     A
C857   C872    1.421   .     A
C858   C930    1.335   .     S
C858   H958    1.088   .     S
C859   C1000   1.335   1_455 S
C859   H1024   1.086   1_455 S
C860   C863    1.460   .     S
C860   C1074   1.339   .     S
C860   S1129   1.788   .     S
C861   C862    1.435   .     S
C862   O914    1.277   .     A
C862   O902    1.276   .     A
C863   O915    1.264   .     A
C863   O909    1.278   .     A
C864   C869    1.406   .     A
C864   C231    1.392   1_556 S
C864   S279    1.778   1_556 S
C865   O894    1.273   .     A
C865   C868    1.451   .     S
C865   O892    1.271   .     A
C866   O893    1.279   .     A
C866   O895    1.296   .     A
C869   N890    1.436   .     S
C870   H886    1.073   .     S
C871   C872    1.420   .     A
C871   C231    1.413   1_556 S
C871   C234    1.425   1_556 S
C872   C876    1.418   .     A
C874   C875    1.399   .     A
C874   C234    1.424   1_556 S
C874   C228    1.419   1_556 S
C875   C876    1.394   .     A
C875   H884    1.082   .     S
C876   S919    1.776   .     S
H878   N890    1.044   .     S
H879   N890    1.045   .     S
H881   O908    0.991   .     S
H882   C930    1.086   .     S
H883   C1074   1.086   .     S
H887   C1000   1.088   1_455 S
H888   O898    0.991   .     S
H889   O901    0.991   .     S
O891   Zn920   1.959   .     S
O891   Zn921   1.942   .     S
O891   Zn922   1.928   .     S
O891   Zn923   1.933   .     S
O892   Zn921   1.927   .     S
O893   Zn923   1.938   .     S
O894   Zn922   1.934   .     S
O895   Zn920   1.925   .     S
O896   S916    1.503   .     D
O897   S916    1.503   .     D
O898   S1129   1.682   .     S
O900   S917    1.501   .     D
O901   S917    1.682   .     S
O902   Zn920   1.927   .     S
O903   S918    1.503   .     D
O904   S918    1.504   .     D
O905   H454    0.991   1_556 S
O905   S279    1.680   1_556 S
O906   S919    1.502   .     D
O907   S919    1.500   .     D
O908   S919    1.681   .     S
O909   Zn923   1.928   .     S
O910   Zn921   1.926   .     S
O911   Zn922   1.937   .     S
O912   Zn923   1.931   .     S
O913   Zn920   1.921   .     S
O914   Zn921   1.935   .     S
O915   Zn922   1.930   .     S
S917   C228    1.773   1_556 S
S917   O260    1.504   1_556 S
C924   C930    1.438   .     S
C924   O981    1.270   .     A
C924   O983    1.270   .     A
C925   C944    1.408   .     A
C925   H956    1.077   .     S
C925   C939    1.387   .     A
C926   C938    1.397   .     A
C926   H948    1.084   .     S
C926   C939    1.393   .     A
C927   O982    1.280   .     A
C927   C929    1.455   .     S
C927   O984    1.276   .     A
C928   C937    1.492   .     S
C928   C940    1.423   .     A
C928   C943    1.421   .     A
C929   C1001   1.335   .     S
C929   H1029   1.088   .     S
C931   C934    1.460   .     S
C931   C1145   1.339   .     S
C931   S1200   1.788   .     S
C932   C933    1.435   .     S
C933   O985    1.277   .     A
C933   O973    1.276   .     A
C934   O986    1.264   .     A
C934   O980    1.278   .     A
C935   C940    1.406   .     A
C935   C302    1.392   1_556 S
C935   S350    1.778   1_556 S
C936   O965    1.273   .     A
C936   C939    1.451   .     S
C936   O963    1.271   .     A
C937   O964    1.279   .     A
C937   O966    1.296   .     A
C940   N961    1.436   .     S
C941   H957    1.073   .     S
C942   C943    1.420   .     A
C942   C302    1.413   1_556 S
C942   C305    1.425   1_556 S
C943   C947    1.418   .     A
C945   C946    1.399   .     A
C945   C305    1.424   1_556 S
C945   C299    1.419   1_556 S
C946   C947    1.394   .     A
C946   H955    1.082   .     S
C947   S990    1.776   .     S
H949   N961    1.044   .     S
H950   N961    1.045   .     S
H952   O979    0.991   .     S
H953   C1001   1.086   .     S
H954   C1145   1.086   .     S
H959   O969    0.991   .     S
H960   O972    0.991   .     S
O962   Zn991   1.959   .     S
O962   Zn992   1.942   .     S
O962   Zn993   1.928   .     S
O962   Zn994   1.933   .     S
O963   Zn992   1.927   .     S
O964   Zn994   1.938   .     S
O965   Zn993   1.934   .     S
O966   Zn991   1.925   .     S
O967   S987    1.503   .     D
O968   S987    1.503   .     D
O969   S1200   1.682   .     S
O971   S988    1.501   .     D
O972   S988    1.682   .     S
O973   Zn991   1.927   .     S
O974   S989    1.503   .     D
O975   S989    1.504   .     D
O976   H525    0.991   1_556 S
O976   S350    1.680   1_556 S
O977   S990    1.502   .     D
O978   S990    1.500   .     D
O979   S990    1.681   .     S
O980   Zn994   1.928   .     S
O981   Zn992   1.926   .     S
O982   Zn993   1.937   .     S
O983   Zn994   1.931   .     S
O984   Zn991   1.921   .     S
O985   Zn992   1.935   .     S
O986   Zn993   1.930   .     S
S988   C299    1.773   1_556 S
S988   O331    1.504   1_556 S
C995   C1001   1.438   .     S
C995   O1052   1.270   .     A
C995   O1054   1.270   .     A
C996   C1015   1.408   .     A
C996   H1027   1.077   .     S
C996   C1010   1.387   .     A
C997   C1009   1.397   .     A
C997   H1019   1.084   .     S
C997   C1010   1.393   .     A
C998   O1053   1.280   .     A
C998   C1000   1.455   .     S
C998   O1055   1.276   .     A
C999   C1008   1.492   .     S
C999   C1011   1.423   .     A
C999   C1014   1.421   .     A
C1000  C859    1.335   1_655 S
C1000  H887    1.088   1_655 S
C1002  C1005   1.460   .     S
C1002  C1216   1.339   .     S
C1002  S1271   1.788   .     S
C1003  C1004   1.435   .     S
C1004  O1056   1.277   .     A
C1004  O1044   1.276   .     A
C1005  O1057   1.264   .     A
C1005  O1051   1.278   .     A
C1006  C1011   1.406   .     A
C1006  C373    1.392   1_556 S
C1006  S421    1.778   1_556 S
C1007  O1036   1.273   .     A
C1007  C1010   1.451   .     S
C1007  O1034   1.271   .     A
C1008  O1035   1.279   .     A
C1008  O1037   1.296   .     A
C1011  N1032   1.436   .     S
C1012  H1028   1.073   .     S
C1013  C1014   1.420   .     A
C1013  C373    1.413   1_556 S
C1013  C376    1.425   1_556 S
C1014  C1018   1.418   .     A
C1016  C1017   1.399   .     A
C1016  C376    1.424   1_556 S
C1016  C370    1.419   1_556 S
C1017  C1018   1.394   .     A
C1017  H1026   1.082   .     S
C1018  S1061   1.776   .     S
H1020  N1032   1.044   .     S
H1021  N1032   1.045   .     S
H1023  O1050   0.991   .     S
H1024  C859    1.086   1_655 S
H1025  C1216   1.086   .     S
H1030  O1040   0.991   .     S
H1031  O1043   0.991   .     S
O1033  Zn1062  1.959   .     S
O1033  Zn1063  1.942   .     S
O1033  Zn1064  1.928   .     S
O1033  Zn1065  1.933   .     S
O1034  Zn1063  1.927   .     S
O1035  Zn1065  1.938   .     S
O1036  Zn1064  1.934   .     S
O1037  Zn1062  1.925   .     S
O1038  S1058   1.503   .     D
O1039  S1058   1.503   .     D
O1040  S1271   1.682   .     S
O1042  S1059   1.501   .     D
O1043  S1059   1.682   .     S
O1044  Zn1062  1.927   .     S
O1045  S1060   1.503   .     D
O1046  S1060   1.504   .     D
O1047  H596    0.991   1_556 S
O1047  S421    1.680   1_556 S
O1048  S1061   1.502   .     D
O1049  S1061   1.500   .     D
O1050  S1061   1.681   .     S
O1051  Zn1065  1.928   .     S
O1052  Zn1063  1.926   .     S
O1053  Zn1064  1.937   .     S
O1054  Zn1065  1.931   .     S
O1055  Zn1062  1.921   .     S
O1056  Zn1063  1.935   .     S
O1057  Zn1064  1.930   .     S
S1059  C370    1.773   1_556 S
S1059  O402    1.504   1_556 S
C1066  C1072   1.438   .     S
C1066  O1123   1.270   .     A
C1066  O1125   1.270   .     A
C1067  C1086   1.408   .     A
C1067  H1098   1.077   .     S
C1067  C1081   1.387   .     A
C1068  C1080   1.397   .     A
C1068  H1090   1.084   .     S
C1068  C1081   1.393   .     A
C1069  O1124   1.280   .     A
C1069  C1071   1.455   .     S
C1069  O1126   1.276   .     A
C1070  C1079   1.492   .     S
C1070  C1082   1.423   .     A
C1070  C1085   1.421   .     A
C1071  C1143   1.335   .     S
C1071  H1171   1.088   .     S
C1072  C1213   1.335   1_455 S
C1072  H1237   1.086   1_455 S
C1073  C1076   1.460   .     S
C1073  C648    1.339   1_565 S
C1073  S703    1.788   1_565 S
C1074  C1075   1.435   .     S
C1075  O1127   1.277   .     A
C1075  O1115   1.276   .     A
C1076  O1128   1.264   .     A
C1076  O1122   1.278   .     A
C1077  C1082   1.406   .     A
C1077  C444    1.392   1_556 S
C1077  S492    1.778   1_556 S
C1078  O1107   1.273   .     A
C1078  C1081   1.451   .     S
C1078  O1105   1.271   .     A
C1079  O1106   1.279   .     A
C1079  O1108   1.296   .     A
C1082  N1103   1.436   .     S
C1083  H1099   1.073   .     S
C1084  C1085   1.420   .     A
C1084  C444    1.413   1_556 S
C1084  C447    1.425   1_556 S
C1085  C1089   1.418   .     A
C1087  C1088   1.399   .     A
C1087  C447    1.424   1_556 S
C1087  C441    1.419   1_556 S
C1088  C1089   1.394   .     A
C1088  H1097   1.082   .     S
C1089  S1132   1.776   .     S
H1091  N1103   1.044   .     S
H1092  N1103   1.045   .     S
H1094  O1121   0.991   .     S
H1095  C1143   1.086   .     S
H1096  C648    1.086   1_565 S
H1100  C1213   1.088   1_455 S
H1101  O1111   0.991   .     S
H1102  O1114   0.991   .     S
O1104  Zn1133  1.959   .     S
O1104  Zn1134  1.942   .     S
O1104  Zn1135  1.928   .     S
O1104  Zn1136  1.933   .     S
O1105  Zn1134  1.927   .     S
O1106  Zn1136  1.938   .     S
O1107  Zn1135  1.934   .     S
O1108  Zn1133  1.925   .     S
O1109  S1129   1.503   .     D
O1110  S1129   1.503   .     D
O1111  S703    1.682   1_565 S
O1113  S1130   1.501   .     D
O1114  S1130   1.682   .     S
O1115  Zn1133  1.927   .     S
O1116  S1131   1.503   .     D
O1117  S1131   1.504   .     D
O1118  H28     0.991   1_566 S
O1118  S492    1.680   1_556 S
O1119  S1132   1.502   .     D
O1120  S1132   1.500   .     D
O1121  S1132   1.681   .     S
O1122  Zn1136  1.928   .     S
O1123  Zn1134  1.926   .     S
O1124  Zn1135  1.937   .     S
O1125  Zn1136  1.931   .     S
O1126  Zn1133  1.921   .     S
O1127  Zn1134  1.935   .     S
O1128  Zn1135  1.930   .     S
S1130  C441    1.773   1_556 S
S1130  O473    1.504   1_556 S
C1137  C1143   1.438   .     S
C1137  O1194   1.270   .     A
C1137  O1196   1.270   .     A
C1138  C1157   1.408   .     A
C1138  H1169   1.077   .     S
C1138  C1152   1.387   .     A
C1139  C1151   1.397   .     A
C1139  H1161   1.084   .     S
C1139  C1152   1.393   .     A
C1140  O1195   1.280   .     A
C1140  C1142   1.455   .     S
C1140  O1197   1.276   .     A
C1141  C1150   1.492   .     S
C1141  C1153   1.423   .     A
C1141  C1156   1.421   .     A
C1142  C1214   1.335   .     S
C1142  H1242   1.088   .     S
C1144  C1147   1.460   .     S
C1144  C719    1.339   1_565 S
C1144  S774    1.788   1_565 S
C1145  C1146   1.435   .     S
C1146  O1198   1.277   .     A
C1146  O1186   1.276   .     A
C1147  O1199   1.264   .     A
C1147  O1193   1.278   .     A
C1148  C1153   1.406   .     A
C1148  C515    1.392   1_556 S
C1148  S563    1.778   1_556 S
C1149  O1178   1.273   .     A
C1149  C1152   1.451   .     S
C1149  O1176   1.271   .     A
C1150  O1177   1.279   .     A
C1150  O1179   1.296   .     A
C1153  N1174   1.436   .     S
C1154  H1170   1.073   .     S
C1155  C1156   1.420   .     A
C1155  C515    1.413   1_556 S
C1155  C518    1.425   1_556 S
C1156  C1160   1.418   .     A
C1158  C1159   1.399   .     A
C1158  C518    1.424   1_556 S
C1158  C512    1.419   1_556 S
C1159  C1160   1.394   .     A
C1159  H1168   1.082   .     S
C1160  S1203   1.776   .     S
H1162  N1174   1.044   .     S
H1163  N1174   1.045   .     S
H1165  O1192   0.991   .     S
H1166  C1214   1.086   .     S
H1167  C719    1.086   1_565 S
H1172  O1182   0.991   .     S
H1173  O1185   0.991   .     S
O1175  Zn1204  1.959   .     S
O1175  Zn1205  1.942   .     S
O1175  Zn1206  1.928   .     S
O1175  Zn1207  1.933   .     S
O1176  Zn1205  1.927   .     S
O1177  Zn1207  1.938   .     S
O1178  Zn1206  1.934   .     S
O1179  Zn1204  1.925   .     S
O1180  S1200   1.503   .     D
O1181  S1200   1.503   .     D
O1182  S774    1.682   1_565 S
O1184  S1201   1.501   .     D
O1185  S1201   1.682   .     S
O1186  Zn1204  1.927   .     S
O1187  S1202   1.503   .     D
O1188  S1202   1.504   .     D
O1189  H99     0.991   1_566 S
O1189  S563    1.680   1_556 S
O1190  S1203   1.502   .     D
O1191  S1203   1.500   .     D
O1192  S1203   1.681   .     S
O1193  Zn1207  1.928   .     S
O1194  Zn1205  1.926   .     S
O1195  Zn1206  1.937   .     S
O1196  Zn1207  1.931   .     S
O1197  Zn1204  1.921   .     S
O1198  Zn1205  1.935   .     S
O1199  Zn1206  1.930   .     S
S1201  C512    1.773   1_556 S
S1201  O544    1.504   1_556 S
C1208  C1214   1.438   .     S
C1208  O1265   1.270   .     A
C1208  O1267   1.270   .     A
C1209  C1228   1.408   .     A
C1209  H1240   1.077   .     S
C1209  C1223   1.387   .     A
C1210  C1222   1.397   .     A
C1210  H1232   1.084   .     S
C1210  C1223   1.393   .     A
C1211  O1266   1.280   .     A
C1211  C1213   1.455   .     S
C1211  O1268   1.276   .     A
C1212  C1221   1.492   .     S
C1212  C1224   1.423   .     A
C1212  C1227   1.421   .     A
C1213  C1072   1.335   1_655 S
C1213  H1100   1.088   1_655 S
C1215  C1218   1.460   .     S
C1215  C790    1.339   1_565 S
C1215  S845    1.788   1_565 S
C1216  C1217   1.435   .     S
C1217  O1269   1.277   .     A
C1217  O1257   1.276   .     A
C1218  O1270   1.264   .     A
C1218  O1264   1.278   .     A
C1219  C1224   1.406   .     A
C1219  C586    1.392   1_556 S
C1219  S634    1.778   1_556 S
C1220  O1249   1.273   .     A
C1220  C1223   1.451   .     S
C1220  O1247   1.271   .     A
C1221  O1248   1.279   .     A
C1221  O1250   1.296   .     A
C1224  N1245   1.436   .     S
C1225  H1241   1.073   .     S
C1226  C1227   1.420   .     A
C1226  C586    1.413   1_556 S
C1226  C589    1.425   1_556 S
C1227  C1231   1.418   .     A
C1229  C1230   1.399   .     A
C1229  C589    1.424   1_556 S
C1229  C583    1.419   1_556 S
C1230  C1231   1.394   .     A
C1230  H1239   1.082   .     S
C1231  S1274   1.776   .     S
H1233  N1245   1.044   .     S
H1234  N1245   1.045   .     S
H1236  O1263   0.991   .     S
H1237  C1072   1.086   1_655 S
H1238  C790    1.086   1_565 S
H1243  O1253   0.991   .     S
H1244  O1256   0.991   .     S
O1246  Zn1275  1.959   .     S
O1246  Zn1276  1.942   .     S
O1246  Zn1277  1.928   .     S
O1246  Zn1278  1.933   .     S
O1247  Zn1276  1.927   .     S
O1248  Zn1278  1.938   .     S
O1249  Zn1277  1.934   .     S
O1250  Zn1275  1.925   .     S
O1251  S1271   1.503   .     D
O1252  S1271   1.503   .     D
O1253  S845    1.682   1_565 S
O1255  S1272   1.501   .     D
O1256  S1272   1.682   .     S
O1257  Zn1275  1.927   .     S
O1258  S1273   1.503   .     D
O1259  S1273   1.504   .     D
O1260  H170    0.991   1_566 S
O1260  S634    1.680   1_556 S
O1261  S1274   1.502   .     D
O1262  S1274   1.500   .     D
O1263  S1274   1.681   .     S
O1264  Zn1278  1.928   .     S
O1265  Zn1276  1.926   .     S
O1266  Zn1277  1.937   .     S
O1267  Zn1278  1.931   .     S
O1268  Zn1275  1.921   .     S
O1269  Zn1276  1.935   .     S
O1270  Zn1277  1.930   .     S
S1272  C583    1.773   1_556 S
S1272  O615    1.504   1_556 S
