data_str_m1_o1_o5_pcu_sym.3
_audit_creation_date              2020-01-03
_audit_creation_method            'Materials Studio'
_symmetry_space_group_name_H-M    'P1'
_symmetry_Int_Tables_number       1
_symmetry_cell_setting            triclinic
loop_
_symmetry_equiv_pos_as_xyz
  x,y,z
_cell_length_a                    36.7777
_cell_length_b                    36.7777
_cell_length_c                    22.3937
_cell_angle_alpha                 90.0000
_cell_angle_beta                  90.0000
_cell_angle_gamma                 90.0000
loop_
_atom_site_label
_atom_site_type_symbol
_atom_site_fract_x
_atom_site_fract_y
_atom_site_fract_z
_atom_site_U_iso_or_equiv
_atom_site_adp_type
_atom_site_occupancy
C1     C     0.00000   0.25000   0.02669   0.00000  Uiso   1.00
C2     C     0.00000   0.25000   0.58996   0.00000  Uiso   1.00
C3     C     0.25000   0.00000   0.41004   0.00000  Uiso   1.00
C4     C     0.25000   0.00000   0.58996   0.00000  Uiso   1.00
C5     C     0.25000   0.00000   0.91004   0.00000  Uiso   1.00
C6     C     0.25000   0.00000   0.08996   0.00000  Uiso   1.00
C7     C    -0.00000   0.25000   0.91004   0.00000  Uiso   1.00
C8     C     0.00000   0.25000   0.08996   0.00000  Uiso   1.00
C9     C     0.07007   0.17993   0.25000   0.00000  Uiso   1.00
C10    C     0.42993   0.32007   0.75000   0.00000  Uiso   1.00
C11    C     0.17993   0.42993   0.25000   0.00000  Uiso   1.00
C12    C    -0.00000   0.25000   0.97331   0.00000  Uiso   1.00
C13    C     0.32007   0.07007   0.75000   0.00000  Uiso   1.00
C14    C     0.42993   0.32007   0.25000   0.00000  Uiso   1.00
C15    C     0.07007   0.17993   0.75000   0.00000  Uiso   1.00
C16    C     0.32007   0.07007   0.25000   0.00000  Uiso   1.00
C17    C     0.17993   0.42993   0.75000   0.00000  Uiso   1.00
C18    C     0.07007   0.32007   0.75000   0.00000  Uiso   1.00
C19    C     0.42993   0.17993   0.25000   0.00000  Uiso   1.00
C20    C     0.17993   0.07007   0.75000   0.00000  Uiso   1.00
C21    C     0.32007   0.42993   0.25000   0.00000  Uiso   1.00
C22    C     0.42993   0.17993   0.75000   0.00000  Uiso   1.00
C23    C     0.25000   0.00000   0.02668   0.00000  Uiso   1.00
C24    C     0.07007   0.32007   0.25000   0.00000  Uiso   1.00
C25    C     0.32007   0.42993   0.75000   0.00000  Uiso   1.00
C26    C     0.17993   0.07007   0.25000   0.00000  Uiso   1.00
C27    C     0.12112   0.35220   0.20034   0.00000  Uiso   1.00
C28    C     0.37888   0.14780   0.79966   0.00000  Uiso   1.00
C29    C     0.35220   0.37888   0.20034   0.00000  Uiso   1.00
C30    C     0.14780   0.12112   0.79966   0.00000  Uiso   1.00
C31    C     0.37888   0.14780   0.20034   0.00000  Uiso   1.00
C32    C     0.12112   0.35220   0.79966   0.00000  Uiso   1.00
C33    C     0.14780   0.12112   0.20034   0.00000  Uiso   1.00
C34    C     0.25000   0.00000   0.97331   0.00000  Uiso   1.00
C35    C     0.35220   0.37888   0.79966   0.00000  Uiso   1.00
C36    C     0.12112   0.14780   0.79966   0.00000  Uiso   1.00
C37    C     0.37888   0.35220   0.20034   0.00000  Uiso   1.00
C38    C     0.35220   0.12112   0.79966   0.00000  Uiso   1.00
C39    C     0.14780   0.37888   0.20034   0.00000  Uiso   1.00
C40    C     0.37888   0.35220   0.79966   0.00000  Uiso   1.00
C41    C     0.12112   0.14780   0.20034   0.00000  Uiso   1.00
C42    C     0.14780   0.37888   0.79966   0.00000  Uiso   1.00
C43    C     0.35220   0.12112   0.20034   0.00000  Uiso   1.00
C44    C     0.37112   0.10220   0.70034   0.00000  Uiso   1.00
C45    C     0.25000   0.00000   0.52668   0.00000  Uiso   1.00
C46    C     0.12888   0.39780   0.29966   0.00000  Uiso   1.00
C47    C     0.10220   0.12888   0.70034   0.00000  Uiso   1.00
C48    C     0.39780   0.37112   0.29966   0.00000  Uiso   1.00
C49    C     0.12888   0.39780   0.70034   0.00000  Uiso   1.00
C50    C     0.37112   0.10220   0.29966   0.00000  Uiso   1.00
C51    C     0.39780   0.37112   0.70034   0.00000  Uiso   1.00
C52    C     0.10220   0.12888   0.29966   0.00000  Uiso   1.00
C53    C     0.37112   0.39780   0.29966   0.00000  Uiso   1.00
C54    C     0.12888   0.10220   0.70034   0.00000  Uiso   1.00
C55    C     0.10220   0.37112   0.29966   0.00000  Uiso   1.00
C56    C     0.25000   0.00000   0.47331   0.00000  Uiso   1.00
C57    C     0.39780   0.12888   0.70034   0.00000  Uiso   1.00
C58    C     0.12888   0.10220   0.29966   0.00000  Uiso   1.00
C59    C     0.37112   0.39780   0.70034   0.00000  Uiso   1.00
C60    C     0.39780   0.12888   0.29966   0.00000  Uiso   1.00
C61    C     0.10220   0.37112   0.70034   0.00000  Uiso   1.00
C62    C     0.15187   0.40187   0.25000   0.00000  Uiso   1.00
C63    C     0.34813   0.09813   0.75000   0.00000  Uiso   1.00
C64    C     0.40187   0.34813   0.25000   0.00000  Uiso   1.00
C65    C     0.09813   0.15187   0.75000   0.00000  Uiso   1.00
C66    C     0.34813   0.09813   0.25000   0.00000  Uiso   1.00
C67    C     0.00000   0.25000   0.52668   0.00000  Uiso   1.00
C68    C     0.15187   0.40187   0.75000   0.00000  Uiso   1.00
C69    C     0.09813   0.15187   0.25000   0.00000  Uiso   1.00
C70    C     0.40187   0.34813   0.75000   0.00000  Uiso   1.00
C71    C     0.15187   0.09813   0.75000   0.00000  Uiso   1.00
C72    C     0.34813   0.40187   0.25000   0.00000  Uiso   1.00
C73    C     0.40187   0.15187   0.75000   0.00000  Uiso   1.00
C74    C     0.09813   0.34813   0.25000   0.00000  Uiso   1.00
C75    C     0.34813   0.40187   0.75000   0.00000  Uiso   1.00
C76    C     0.15187   0.09813   0.25000   0.00000  Uiso   1.00
C77    C     0.09813   0.34813   0.75000   0.00000  Uiso   1.00
C78    C     0.00000   0.25000   0.47331   0.00000  Uiso   1.00
C79    C     0.40187   0.15187   0.25000   0.00000  Uiso   1.00
C80    C     0.00000   0.25000   0.41004   0.00000  Uiso   1.00
F81    F     0.11735   0.33095   0.15111   0.00000  Uiso   1.00
F82    F     0.38265   0.33095   0.15111   0.00000  Uiso   1.00
F83    F     0.33095   0.11735   0.84889   0.00000  Uiso   1.00
F84    F     0.16905   0.38265   0.15111   0.00000  Uiso   1.00
F85    F     0.38265   0.33095   0.84889   0.00000  Uiso   1.00
F86    F     0.11735   0.16905   0.15111   0.00000  Uiso   1.00
F87    F     0.16904   0.38265   0.84889   0.00000  Uiso   1.00
F88    F     0.33096   0.11735   0.15111   0.00000  Uiso   1.00
F89    F     0.36735   0.08095   0.65111   0.00000  Uiso   1.00
F90    F     0.13265   0.41905   0.34889   0.00000  Uiso   1.00
F91    F     0.08095   0.13265   0.65111   0.00000  Uiso   1.00
F92    F     0.38265   0.16905   0.84889   0.00000  Uiso   1.00
F93    F     0.41905   0.36735   0.34889   0.00000  Uiso   1.00
F94    F     0.13265   0.41904   0.65110   0.00000  Uiso   1.00
F95    F     0.36735   0.08096   0.34889   0.00000  Uiso   1.00
F96    F     0.41905   0.36735   0.65111   0.00000  Uiso   1.00
F97    F     0.08095   0.13265   0.34889   0.00000  Uiso   1.00
F98    F     0.36735   0.41905   0.34889   0.00000  Uiso   1.00
F99    F     0.13265   0.08095   0.65111   0.00000  Uiso   1.00
F100   F     0.08095   0.36735   0.34889   0.00000  Uiso   1.00
F101   F     0.41905   0.13265   0.65111   0.00000  Uiso   1.00
F102   F     0.13265   0.08095   0.34889   0.00000  Uiso   1.00
F103   F     0.33095   0.38265   0.15111   0.00000  Uiso   1.00
F104   F     0.36735   0.41905   0.65111   0.00000  Uiso   1.00
F105   F     0.41904   0.13265   0.34889   0.00000  Uiso   1.00
F106   F     0.08096   0.36735   0.65110   0.00000  Uiso   1.00
F107   F     0.16905   0.11735   0.84889   0.00000  Uiso   1.00
F108   F     0.38265   0.16904   0.15111   0.00000  Uiso   1.00
F109   F     0.11735   0.33096   0.84889   0.00000  Uiso   1.00
F110   F     0.16905   0.11735   0.15111   0.00000  Uiso   1.00
F111   F     0.33095   0.38265   0.84889   0.00000  Uiso   1.00
F112   F     0.11735   0.16905   0.84889   0.00000  Uiso   1.00
O113   O     0.00000   0.25000   0.25000   0.00000  Uiso   1.00
O114   O     0.00000   0.28035   0.61781   0.00000  Uiso   1.00
O115   O     0.21964   0.00000   0.38219   0.00000  Uiso   1.00
O116   O     0.28035   0.00000   0.61781   0.00000  Uiso   1.00
O117   O     0.25000   0.03036   0.88219   0.00000  Uiso   1.00
O118   O     0.25000   0.46965   0.11781   0.00000  Uiso   1.00
O119   O     0.03035   0.25000   0.88219   0.00000  Uiso   1.00
O120   O     0.46964   0.25000   0.11781   0.00000  Uiso   1.00
O121   O     0.25000   0.46965   0.88219   0.00000  Uiso   1.00
O122   O     0.25000   0.03036   0.11781   0.00000  Uiso   1.00
O123   O     0.46964   0.25000   0.88219   0.00000  Uiso   1.00
O124   O     0.00000   0.25000   0.75000   0.00000  Uiso   1.00
O125   O     0.03035   0.25000   0.11781   0.00000  Uiso   1.00
O126   O     0.04267   0.17693   0.28474   0.00000  Uiso   1.00
O127   O     0.45732   0.32308   0.71526   0.00000  Uiso   1.00
O128   O     0.17692   0.45733   0.28474   0.00000  Uiso   1.00
O129   O     0.32307   0.04268   0.71526   0.00000  Uiso   1.00
O130   O     0.45732   0.32308   0.28474   0.00000  Uiso   1.00
O131   O     0.04267   0.17693   0.71526   0.00000  Uiso   1.00
O132   O     0.32307   0.04268   0.28474   0.00000  Uiso   1.00
O133   O     0.17692   0.45733   0.71526   0.00000  Uiso   1.00
O134   O     0.04267   0.32307   0.71526   0.00000  Uiso   1.00
O135   O     0.25000   0.00000   0.25000   0.00000  Uiso   1.00
O136   O     0.45732   0.17693   0.28474   0.00000  Uiso   1.00
O137   O     0.17692   0.04268   0.71526   0.00000  Uiso   1.00
O138   O     0.32307   0.45733   0.28474   0.00000  Uiso   1.00
O139   O     0.45732   0.17693   0.71526   0.00000  Uiso   1.00
O140   O     0.04267   0.32307   0.28474   0.00000  Uiso   1.00
O141   O     0.32307   0.45733   0.71526   0.00000  Uiso   1.00
O142   O     0.17692   0.04268   0.28474   0.00000  Uiso   1.00
O143   O     0.29267   0.42693   0.78474   0.00000  Uiso   1.00
O144   O     0.20732   0.07308   0.21526   0.00000  Uiso   1.00
O145   O     0.42692   0.20733   0.78474   0.00000  Uiso   1.00
O146   O     0.25000   0.00000   0.75000   0.00000  Uiso   1.00
O147   O     0.07307   0.29268   0.21526   0.00000  Uiso   1.00
O148   O     0.20732   0.07308   0.78474   0.00000  Uiso   1.00
O149   O     0.29267   0.42693   0.21526   0.00000  Uiso   1.00
O150   O     0.07307   0.29268   0.78474   0.00000  Uiso   1.00
O151   O     0.42692   0.20733   0.21526   0.00000  Uiso   1.00
O152   O     0.29267   0.07308   0.21526   0.00000  Uiso   1.00
O153   O     0.20732   0.42693   0.78474   0.00000  Uiso   1.00
O154   O     0.42692   0.29268   0.21526   0.00000  Uiso   1.00
O155   O     0.07307   0.20733   0.78474   0.00000  Uiso   1.00
O156   O     0.20732   0.42693   0.21526   0.00000  Uiso   1.00
O157   O     0.00000   0.28035   0.38219   0.00000  Uiso   1.00
O158   O     0.29267   0.07308   0.78474   0.00000  Uiso   1.00
O159   O     0.07307   0.20733   0.21526   0.00000  Uiso   1.00
O160   O     0.42692   0.29268   0.78474   0.00000  Uiso   1.00
O161   O     0.00000   0.21964   0.61781   0.00000  Uiso   1.00
O162   O     0.28035   0.00000   0.38219   0.00000  Uiso   1.00
O163   O     0.21964   0.00000   0.61781   0.00000  Uiso   1.00
O164   O     0.00000   0.21964   0.38219   0.00000  Uiso   1.00
Zn165  Zn    0.04333   0.25000   0.20067   0.00000  Uiso   1.00
Zn166  Zn    0.20667   0.00000   0.29933   0.00000  Uiso   1.00
Zn167  Zn    0.00000   0.20667   0.70067   0.00000  Uiso   1.00
Zn168  Zn    0.00000   0.29333   0.29933   0.00000  Uiso   1.00
Zn169  Zn    0.20667   0.00000   0.70067   0.00000  Uiso   1.00
Zn170  Zn    0.29333   0.00000   0.29933   0.00000  Uiso   1.00
Zn171  Zn    0.00000   0.29333   0.70067   0.00000  Uiso   1.00
Zn172  Zn    0.00000   0.20667   0.29933   0.00000  Uiso   1.00
Zn173  Zn    0.45667   0.25000   0.79933   0.00000  Uiso   1.00
Zn174  Zn    0.25000   0.45667   0.20067   0.00000  Uiso   1.00
Zn175  Zn    0.25000   0.04333   0.79933   0.00000  Uiso   1.00
Zn176  Zn    0.45667   0.25000   0.20067   0.00000  Uiso   1.00
Zn177  Zn    0.04333   0.25000   0.79933   0.00000  Uiso   1.00
Zn178  Zn    0.25000   0.04333   0.20067   0.00000  Uiso   1.00
Zn179  Zn    0.25000   0.45667   0.79933   0.00000  Uiso   1.00
Zn180  Zn    0.29333   0.00000   0.70067   0.00000  Uiso   1.00
C181   C     0.50000   0.25000   0.02669   0.00000  Uiso   1.00
C182   C     0.50000   0.25000   0.58996   0.00000  Uiso   1.00
C183   C     0.75000   0.00000   0.41004   0.00000  Uiso   1.00
C184   C     0.75000   0.00000   0.58996   0.00000  Uiso   1.00
C185   C     0.75000   0.00000   0.91004   0.00000  Uiso   1.00
C186   C     0.75000   0.00000   0.08996   0.00000  Uiso   1.00
C187   C     0.50000   0.25000   0.91004   0.00000  Uiso   1.00
C188   C     0.50000   0.25000   0.08996   0.00000  Uiso   1.00
C189   C     0.57007   0.17993   0.25000   0.00000  Uiso   1.00
C190   C     0.92993   0.32007   0.75000   0.00000  Uiso   1.00
C191   C     0.67993   0.42993   0.25000   0.00000  Uiso   1.00
C192   C     0.50000   0.25000   0.97331   0.00000  Uiso   1.00
C193   C     0.82007   0.07007   0.75000   0.00000  Uiso   1.00
C194   C     0.92993   0.32007   0.25000   0.00000  Uiso   1.00
C195   C     0.57007   0.17993   0.75000   0.00000  Uiso   1.00
C196   C     0.82007   0.07007   0.25000   0.00000  Uiso   1.00
C197   C     0.67993   0.42993   0.75000   0.00000  Uiso   1.00
C198   C     0.57007   0.32007   0.75000   0.00000  Uiso   1.00
C199   C     0.92993   0.17993   0.25000   0.00000  Uiso   1.00
C200   C     0.67993   0.07007   0.75000   0.00000  Uiso   1.00
C201   C     0.82007   0.42993   0.25000   0.00000  Uiso   1.00
C202   C     0.92993   0.17993   0.75000   0.00000  Uiso   1.00
C203   C     0.75000   0.00000   0.02668   0.00000  Uiso   1.00
C204   C     0.57007   0.32007   0.25000   0.00000  Uiso   1.00
C205   C     0.82007   0.42993   0.75000   0.00000  Uiso   1.00
C206   C     0.67993   0.07007   0.25000   0.00000  Uiso   1.00
C207   C     0.62112   0.35220   0.20034   0.00000  Uiso   1.00
C208   C     0.87888   0.14780   0.79966   0.00000  Uiso   1.00
C209   C     0.85220   0.37888   0.20034   0.00000  Uiso   1.00
C210   C     0.64780   0.12112   0.79966   0.00000  Uiso   1.00
C211   C     0.87888   0.14780   0.20034   0.00000  Uiso   1.00
C212   C     0.62112   0.35220   0.79966   0.00000  Uiso   1.00
C213   C     0.64780   0.12112   0.20034   0.00000  Uiso   1.00
C214   C     0.75000   0.00000   0.97331   0.00000  Uiso   1.00
C215   C     0.85220   0.37888   0.79966   0.00000  Uiso   1.00
C216   C     0.62112   0.14780   0.79966   0.00000  Uiso   1.00
C217   C     0.87888   0.35220   0.20034   0.00000  Uiso   1.00
C218   C     0.85220   0.12112   0.79966   0.00000  Uiso   1.00
C219   C     0.64780   0.37888   0.20034   0.00000  Uiso   1.00
C220   C     0.87888   0.35220   0.79966   0.00000  Uiso   1.00
C221   C     0.62112   0.14780   0.20034   0.00000  Uiso   1.00
C222   C     0.64780   0.37888   0.79966   0.00000  Uiso   1.00
C223   C     0.85220   0.12112   0.20034   0.00000  Uiso   1.00
C224   C     0.87112   0.10220   0.70034   0.00000  Uiso   1.00
C225   C     0.75000   0.00000   0.52668   0.00000  Uiso   1.00
C226   C     0.62888   0.39780   0.29966   0.00000  Uiso   1.00
C227   C     0.60220   0.12888   0.70034   0.00000  Uiso   1.00
C228   C     0.89780   0.37112   0.29966   0.00000  Uiso   1.00
C229   C     0.62888   0.39780   0.70034   0.00000  Uiso   1.00
C230   C     0.87112   0.10220   0.29966   0.00000  Uiso   1.00
C231   C     0.89780   0.37112   0.70034   0.00000  Uiso   1.00
C232   C     0.60220   0.12888   0.29966   0.00000  Uiso   1.00
C233   C     0.87112   0.39780   0.29966   0.00000  Uiso   1.00
C234   C     0.62888   0.10220   0.70034   0.00000  Uiso   1.00
C235   C     0.60220   0.37112   0.29966   0.00000  Uiso   1.00
C236   C     0.75000   0.00000   0.47331   0.00000  Uiso   1.00
C237   C     0.89780   0.12888   0.70034   0.00000  Uiso   1.00
C238   C     0.62888   0.10220   0.29966   0.00000  Uiso   1.00
C239   C     0.87112   0.39780   0.70034   0.00000  Uiso   1.00
C240   C     0.89780   0.12888   0.29966   0.00000  Uiso   1.00
C241   C     0.60220   0.37112   0.70034   0.00000  Uiso   1.00
C242   C     0.65187   0.40187   0.25000   0.00000  Uiso   1.00
C243   C     0.84813   0.09813   0.75000   0.00000  Uiso   1.00
C244   C     0.90187   0.34813   0.25000   0.00000  Uiso   1.00
C245   C     0.59813   0.15187   0.75000   0.00000  Uiso   1.00
C246   C     0.84813   0.09813   0.25000   0.00000  Uiso   1.00
C247   C     0.50000   0.25000   0.52668   0.00000  Uiso   1.00
C248   C     0.65187   0.40187   0.75000   0.00000  Uiso   1.00
C249   C     0.59813   0.15187   0.25000   0.00000  Uiso   1.00
C250   C     0.90187   0.34813   0.75000   0.00000  Uiso   1.00
C251   C     0.65187   0.09813   0.75000   0.00000  Uiso   1.00
C252   C     0.84813   0.40187   0.25000   0.00000  Uiso   1.00
C253   C     0.90187   0.15187   0.75000   0.00000  Uiso   1.00
C254   C     0.59813   0.34813   0.25000   0.00000  Uiso   1.00
C255   C     0.84813   0.40187   0.75000   0.00000  Uiso   1.00
C256   C     0.65187   0.09813   0.25000   0.00000  Uiso   1.00
C257   C     0.59813   0.34813   0.75000   0.00000  Uiso   1.00
C258   C     0.50000   0.25000   0.47331   0.00000  Uiso   1.00
C259   C     0.90187   0.15187   0.25000   0.00000  Uiso   1.00
C260   C     0.50000   0.25000   0.41004   0.00000  Uiso   1.00
F261   F     0.61735   0.33095   0.15111   0.00000  Uiso   1.00
F262   F     0.88265   0.33095   0.15111   0.00000  Uiso   1.00
F263   F     0.83095   0.11735   0.84889   0.00000  Uiso   1.00
F264   F     0.66905   0.38265   0.15111   0.00000  Uiso   1.00
F265   F     0.88265   0.33095   0.84889   0.00000  Uiso   1.00
F266   F     0.61735   0.16905   0.15111   0.00000  Uiso   1.00
F267   F     0.66904   0.38265   0.84889   0.00000  Uiso   1.00
F268   F     0.83096   0.11735   0.15111   0.00000  Uiso   1.00
F269   F     0.86735   0.08095   0.65111   0.00000  Uiso   1.00
F270   F     0.63265   0.41905   0.34889   0.00000  Uiso   1.00
F271   F     0.58095   0.13265   0.65111   0.00000  Uiso   1.00
F272   F     0.88265   0.16905   0.84889   0.00000  Uiso   1.00
F273   F     0.91905   0.36735   0.34889   0.00000  Uiso   1.00
F274   F     0.63265   0.41904   0.65110   0.00000  Uiso   1.00
F275   F     0.86735   0.08096   0.34889   0.00000  Uiso   1.00
F276   F     0.91905   0.36735   0.65111   0.00000  Uiso   1.00
F277   F     0.58095   0.13265   0.34889   0.00000  Uiso   1.00
F278   F     0.86735   0.41905   0.34889   0.00000  Uiso   1.00
F279   F     0.63265   0.08095   0.65111   0.00000  Uiso   1.00
F280   F     0.58095   0.36735   0.34889   0.00000  Uiso   1.00
F281   F     0.91905   0.13265   0.65111   0.00000  Uiso   1.00
F282   F     0.63265   0.08095   0.34889   0.00000  Uiso   1.00
F283   F     0.83095   0.38265   0.15111   0.00000  Uiso   1.00
F284   F     0.86735   0.41905   0.65111   0.00000  Uiso   1.00
F285   F     0.91904   0.13265   0.34889   0.00000  Uiso   1.00
F286   F     0.58096   0.36735   0.65110   0.00000  Uiso   1.00
F287   F     0.66905   0.11735   0.84889   0.00000  Uiso   1.00
F288   F     0.88265   0.16904   0.15111   0.00000  Uiso   1.00
F289   F     0.61735   0.33096   0.84889   0.00000  Uiso   1.00
F290   F     0.66905   0.11735   0.15111   0.00000  Uiso   1.00
F291   F     0.83095   0.38265   0.84889   0.00000  Uiso   1.00
F292   F     0.61735   0.16905   0.84889   0.00000  Uiso   1.00
O293   O     0.50000   0.25000   0.25000   0.00000  Uiso   1.00
O294   O     0.50000   0.28035   0.61781   0.00000  Uiso   1.00
O295   O     0.71964   0.00000   0.38219   0.00000  Uiso   1.00
O296   O     0.78035   0.00000   0.61781   0.00000  Uiso   1.00
O297   O     0.75000   0.03036   0.88219   0.00000  Uiso   1.00
O298   O     0.75000   0.46965   0.11781   0.00000  Uiso   1.00
O299   O     0.53035   0.25000   0.88219   0.00000  Uiso   1.00
O300   O     0.96964   0.25000   0.11781   0.00000  Uiso   1.00
O301   O     0.75000   0.46965   0.88219   0.00000  Uiso   1.00
O302   O     0.75000   0.03036   0.11781   0.00000  Uiso   1.00
O303   O     0.96964   0.25000   0.88219   0.00000  Uiso   1.00
O304   O     0.50000   0.25000   0.75000   0.00000  Uiso   1.00
O305   O     0.53035   0.25000   0.11781   0.00000  Uiso   1.00
O306   O     0.54267   0.17693   0.28474   0.00000  Uiso   1.00
O307   O     0.95732   0.32308   0.71526   0.00000  Uiso   1.00
O308   O     0.67692   0.45733   0.28474   0.00000  Uiso   1.00
O309   O     0.82307   0.04268   0.71526   0.00000  Uiso   1.00
O310   O     0.95732   0.32308   0.28474   0.00000  Uiso   1.00
O311   O     0.54267   0.17693   0.71526   0.00000  Uiso   1.00
O312   O     0.82307   0.04268   0.28474   0.00000  Uiso   1.00
O313   O     0.67692   0.45733   0.71526   0.00000  Uiso   1.00
O314   O     0.54267   0.32307   0.71526   0.00000  Uiso   1.00
O315   O     0.75000   0.00000   0.25000   0.00000  Uiso   1.00
O316   O     0.95732   0.17693   0.28474   0.00000  Uiso   1.00
O317   O     0.67692   0.04268   0.71526   0.00000  Uiso   1.00
O318   O     0.82307   0.45733   0.28474   0.00000  Uiso   1.00
O319   O     0.95732   0.17693   0.71526   0.00000  Uiso   1.00
O320   O     0.54267   0.32307   0.28474   0.00000  Uiso   1.00
O321   O     0.82307   0.45733   0.71526   0.00000  Uiso   1.00
O322   O     0.67692   0.04268   0.28474   0.00000  Uiso   1.00
O323   O     0.79267   0.42693   0.78474   0.00000  Uiso   1.00
O324   O     0.70732   0.07308   0.21526   0.00000  Uiso   1.00
O325   O     0.92692   0.20733   0.78474   0.00000  Uiso   1.00
O326   O     0.75000   0.00000   0.75000   0.00000  Uiso   1.00
O327   O     0.57307   0.29268   0.21526   0.00000  Uiso   1.00
O328   O     0.70732   0.07308   0.78474   0.00000  Uiso   1.00
O329   O     0.79267   0.42693   0.21526   0.00000  Uiso   1.00
O330   O     0.57307   0.29268   0.78474   0.00000  Uiso   1.00
O331   O     0.92692   0.20733   0.21526   0.00000  Uiso   1.00
O332   O     0.79267   0.07308   0.21526   0.00000  Uiso   1.00
O333   O     0.70732   0.42693   0.78474   0.00000  Uiso   1.00
O334   O     0.92692   0.29268   0.21526   0.00000  Uiso   1.00
O335   O     0.57307   0.20733   0.78474   0.00000  Uiso   1.00
O336   O     0.70732   0.42693   0.21526   0.00000  Uiso   1.00
O337   O     0.50000   0.28035   0.38219   0.00000  Uiso   1.00
O338   O     0.79267   0.07308   0.78474   0.00000  Uiso   1.00
O339   O     0.57307   0.20733   0.21526   0.00000  Uiso   1.00
O340   O     0.92692   0.29268   0.78474   0.00000  Uiso   1.00
O341   O     0.50000   0.21964   0.61781   0.00000  Uiso   1.00
O342   O     0.78035   0.00000   0.38219   0.00000  Uiso   1.00
O343   O     0.71964   0.00000   0.61781   0.00000  Uiso   1.00
O344   O     0.50000   0.21964   0.38219   0.00000  Uiso   1.00
Zn345  Zn    0.54333   0.25000   0.20067   0.00000  Uiso   1.00
Zn346  Zn    0.70667   0.00000   0.29933   0.00000  Uiso   1.00
Zn347  Zn    0.50000   0.20667   0.70067   0.00000  Uiso   1.00
Zn348  Zn    0.50000   0.29333   0.29933   0.00000  Uiso   1.00
Zn349  Zn    0.70667   0.00000   0.70067   0.00000  Uiso   1.00
Zn350  Zn    0.79333   0.00000   0.29933   0.00000  Uiso   1.00
Zn351  Zn    0.50000   0.29333   0.70067   0.00000  Uiso   1.00
Zn352  Zn    0.50000   0.20667   0.29933   0.00000  Uiso   1.00
Zn353  Zn    0.95667   0.25000   0.79933   0.00000  Uiso   1.00
Zn354  Zn    0.75000   0.45667   0.20067   0.00000  Uiso   1.00
Zn355  Zn    0.75000   0.04333   0.79933   0.00000  Uiso   1.00
Zn356  Zn    0.95667   0.25000   0.20067   0.00000  Uiso   1.00
Zn357  Zn    0.54333   0.25000   0.79933   0.00000  Uiso   1.00
Zn358  Zn    0.75000   0.04333   0.20067   0.00000  Uiso   1.00
Zn359  Zn    0.75000   0.45667   0.79933   0.00000  Uiso   1.00
Zn360  Zn    0.79333   0.00000   0.70067   0.00000  Uiso   1.00
C361   C     0.00000   0.75000   0.02669   0.00000  Uiso   1.00
C362   C     0.00000   0.75000   0.58996   0.00000  Uiso   1.00
C363   C     0.25000   0.50000   0.41004   0.00000  Uiso   1.00
C364   C     0.25000   0.50000   0.58996   0.00000  Uiso   1.00
C365   C     0.25000   0.50000   0.91004   0.00000  Uiso   1.00
C366   C     0.25000   0.50000   0.08996   0.00000  Uiso   1.00
C367   C    -0.00000   0.75000   0.91004   0.00000  Uiso   1.00
C368   C     0.00000   0.75000   0.08996   0.00000  Uiso   1.00
C369   C     0.07007   0.67993   0.25000   0.00000  Uiso   1.00
C370   C     0.42993   0.82007   0.75000   0.00000  Uiso   1.00
C371   C     0.17993   0.92993   0.25000   0.00000  Uiso   1.00
C372   C    -0.00000   0.75000   0.97331   0.00000  Uiso   1.00
C373   C     0.32007   0.57007   0.75000   0.00000  Uiso   1.00
C374   C     0.42993   0.82007   0.25000   0.00000  Uiso   1.00
C375   C     0.07007   0.67993   0.75000   0.00000  Uiso   1.00
C376   C     0.32007   0.57007   0.25000   0.00000  Uiso   1.00
C377   C     0.17993   0.92993   0.75000   0.00000  Uiso   1.00
C378   C     0.07007   0.82007   0.75000   0.00000  Uiso   1.00
C379   C     0.42993   0.67993   0.25000   0.00000  Uiso   1.00
C380   C     0.17993   0.57007   0.75000   0.00000  Uiso   1.00
C381   C     0.32007   0.92993   0.25000   0.00000  Uiso   1.00
C382   C     0.42993   0.67993   0.75000   0.00000  Uiso   1.00
C383   C     0.25000   0.50000   0.02668   0.00000  Uiso   1.00
C384   C     0.07007   0.82007   0.25000   0.00000  Uiso   1.00
C385   C     0.32007   0.92993   0.75000   0.00000  Uiso   1.00
C386   C     0.17993   0.57007   0.25000   0.00000  Uiso   1.00
C387   C     0.12112   0.85220   0.20034   0.00000  Uiso   1.00
C388   C     0.37888   0.64780   0.79966   0.00000  Uiso   1.00
C389   C     0.35220   0.87888   0.20034   0.00000  Uiso   1.00
C390   C     0.14780   0.62112   0.79966   0.00000  Uiso   1.00
C391   C     0.37888   0.64780   0.20034   0.00000  Uiso   1.00
C392   C     0.12112   0.85220   0.79966   0.00000  Uiso   1.00
C393   C     0.14780   0.62112   0.20034   0.00000  Uiso   1.00
C394   C     0.25000   0.50000   0.97331   0.00000  Uiso   1.00
C395   C     0.35220   0.87888   0.79966   0.00000  Uiso   1.00
C396   C     0.12112   0.64780   0.79966   0.00000  Uiso   1.00
C397   C     0.37888   0.85220   0.20034   0.00000  Uiso   1.00
C398   C     0.35220   0.62112   0.79966   0.00000  Uiso   1.00
C399   C     0.14780   0.87888   0.20034   0.00000  Uiso   1.00
C400   C     0.37888   0.85220   0.79966   0.00000  Uiso   1.00
C401   C     0.12112   0.64780   0.20034   0.00000  Uiso   1.00
C402   C     0.14780   0.87888   0.79966   0.00000  Uiso   1.00
C403   C     0.35220   0.62112   0.20034   0.00000  Uiso   1.00
C404   C     0.37112   0.60220   0.70034   0.00000  Uiso   1.00
C405   C     0.25000   0.50000   0.52668   0.00000  Uiso   1.00
C406   C     0.12888   0.89780   0.29966   0.00000  Uiso   1.00
C407   C     0.10220   0.62888   0.70034   0.00000  Uiso   1.00
C408   C     0.39780   0.87112   0.29966   0.00000  Uiso   1.00
C409   C     0.12888   0.89780   0.70034   0.00000  Uiso   1.00
C410   C     0.37112   0.60220   0.29966   0.00000  Uiso   1.00
C411   C     0.39780   0.87112   0.70034   0.00000  Uiso   1.00
C412   C     0.10220   0.62888   0.29966   0.00000  Uiso   1.00
C413   C     0.37112   0.89780   0.29966   0.00000  Uiso   1.00
C414   C     0.12888   0.60220   0.70034   0.00000  Uiso   1.00
C415   C     0.10220   0.87112   0.29966   0.00000  Uiso   1.00
C416   C     0.25000   0.50000   0.47331   0.00000  Uiso   1.00
C417   C     0.39780   0.62888   0.70034   0.00000  Uiso   1.00
C418   C     0.12888   0.60220   0.29966   0.00000  Uiso   1.00
C419   C     0.37112   0.89780   0.70034   0.00000  Uiso   1.00
C420   C     0.39780   0.62888   0.29966   0.00000  Uiso   1.00
C421   C     0.10220   0.87112   0.70034   0.00000  Uiso   1.00
C422   C     0.15187   0.90187   0.25000   0.00000  Uiso   1.00
C423   C     0.34813   0.59813   0.75000   0.00000  Uiso   1.00
C424   C     0.40187   0.84813   0.25000   0.00000  Uiso   1.00
C425   C     0.09813   0.65187   0.75000   0.00000  Uiso   1.00
C426   C     0.34813   0.59813   0.25000   0.00000  Uiso   1.00
C427   C     0.00000   0.75000   0.52668   0.00000  Uiso   1.00
C428   C     0.15187   0.90187   0.75000   0.00000  Uiso   1.00
C429   C     0.09813   0.65187   0.25000   0.00000  Uiso   1.00
C430   C     0.40187   0.84813   0.75000   0.00000  Uiso   1.00
C431   C     0.15187   0.59813   0.75000   0.00000  Uiso   1.00
C432   C     0.34813   0.90187   0.25000   0.00000  Uiso   1.00
C433   C     0.40187   0.65187   0.75000   0.00000  Uiso   1.00
C434   C     0.09813   0.84813   0.25000   0.00000  Uiso   1.00
C435   C     0.34813   0.90187   0.75000   0.00000  Uiso   1.00
C436   C     0.15187   0.59813   0.25000   0.00000  Uiso   1.00
C437   C     0.09813   0.84813   0.75000   0.00000  Uiso   1.00
C438   C     0.00000   0.75000   0.47331   0.00000  Uiso   1.00
C439   C     0.40187   0.65187   0.25000   0.00000  Uiso   1.00
C440   C     0.00000   0.75000   0.41004   0.00000  Uiso   1.00
F441   F     0.11735   0.83095   0.15111   0.00000  Uiso   1.00
F442   F     0.38265   0.83095   0.15111   0.00000  Uiso   1.00
F443   F     0.33095   0.61735   0.84889   0.00000  Uiso   1.00
F444   F     0.16905   0.88265   0.15111   0.00000  Uiso   1.00
F445   F     0.38265   0.83095   0.84889   0.00000  Uiso   1.00
F446   F     0.11735   0.66905   0.15111   0.00000  Uiso   1.00
F447   F     0.16904   0.88265   0.84889   0.00000  Uiso   1.00
F448   F     0.33096   0.61735   0.15111   0.00000  Uiso   1.00
F449   F     0.36735   0.58095   0.65111   0.00000  Uiso   1.00
F450   F     0.13265   0.91905   0.34889   0.00000  Uiso   1.00
F451   F     0.08095   0.63265   0.65111   0.00000  Uiso   1.00
F452   F     0.38265   0.66905   0.84889   0.00000  Uiso   1.00
F453   F     0.41905   0.86735   0.34889   0.00000  Uiso   1.00
F454   F     0.13265   0.91904   0.65110   0.00000  Uiso   1.00
F455   F     0.36735   0.58096   0.34889   0.00000  Uiso   1.00
F456   F     0.41905   0.86735   0.65111   0.00000  Uiso   1.00
F457   F     0.08095   0.63265   0.34889   0.00000  Uiso   1.00
F458   F     0.36735   0.91905   0.34889   0.00000  Uiso   1.00
F459   F     0.13265   0.58095   0.65111   0.00000  Uiso   1.00
F460   F     0.08095   0.86735   0.34889   0.00000  Uiso   1.00
F461   F     0.41905   0.63265   0.65111   0.00000  Uiso   1.00
F462   F     0.13265   0.58095   0.34889   0.00000  Uiso   1.00
F463   F     0.33095   0.88265   0.15111   0.00000  Uiso   1.00
F464   F     0.36735   0.91905   0.65111   0.00000  Uiso   1.00
F465   F     0.41904   0.63265   0.34889   0.00000  Uiso   1.00
F466   F     0.08096   0.86735   0.65110   0.00000  Uiso   1.00
F467   F     0.16905   0.61735   0.84889   0.00000  Uiso   1.00
F468   F     0.38265   0.66904   0.15111   0.00000  Uiso   1.00
F469   F     0.11735   0.83096   0.84889   0.00000  Uiso   1.00
F470   F     0.16905   0.61735   0.15111   0.00000  Uiso   1.00
F471   F     0.33095   0.88265   0.84889   0.00000  Uiso   1.00
F472   F     0.11735   0.66905   0.84889   0.00000  Uiso   1.00
O473   O     0.00000   0.75000   0.25000   0.00000  Uiso   1.00
O474   O     0.00000   0.78035   0.61781   0.00000  Uiso   1.00
O475   O     0.21964   0.50000   0.38219   0.00000  Uiso   1.00
O476   O     0.28035   0.50000   0.61781   0.00000  Uiso   1.00
O477   O     0.25000   0.53036   0.88219   0.00000  Uiso   1.00
O478   O     0.25000   0.96965   0.11781   0.00000  Uiso   1.00
O479   O     0.03035   0.75000   0.88219   0.00000  Uiso   1.00
O480   O     0.46964   0.75000   0.11781   0.00000  Uiso   1.00
O481   O     0.25000   0.96965   0.88219   0.00000  Uiso   1.00
O482   O     0.25000   0.53036   0.11781   0.00000  Uiso   1.00
O483   O     0.46964   0.75000   0.88219   0.00000  Uiso   1.00
O484   O     0.00000   0.75000   0.75000   0.00000  Uiso   1.00
O485   O     0.03035   0.75000   0.11781   0.00000  Uiso   1.00
O486   O     0.04267   0.67693   0.28474   0.00000  Uiso   1.00
O487   O     0.45732   0.82308   0.71526   0.00000  Uiso   1.00
O488   O     0.17692   0.95733   0.28474   0.00000  Uiso   1.00
O489   O     0.32307   0.54268   0.71526   0.00000  Uiso   1.00
O490   O     0.45732   0.82308   0.28474   0.00000  Uiso   1.00
O491   O     0.04267   0.67693   0.71526   0.00000  Uiso   1.00
O492   O     0.32307   0.54268   0.28474   0.00000  Uiso   1.00
O493   O     0.17692   0.95733   0.71526   0.00000  Uiso   1.00
O494   O     0.04267   0.82307   0.71526   0.00000  Uiso   1.00
O495   O     0.25000   0.50000   0.25000   0.00000  Uiso   1.00
O496   O     0.45732   0.67693   0.28474   0.00000  Uiso   1.00
O497   O     0.17692   0.54268   0.71526   0.00000  Uiso   1.00
O498   O     0.32307   0.95733   0.28474   0.00000  Uiso   1.00
O499   O     0.45732   0.67693   0.71526   0.00000  Uiso   1.00
O500   O     0.04267   0.82307   0.28474   0.00000  Uiso   1.00
O501   O     0.32307   0.95733   0.71526   0.00000  Uiso   1.00
O502   O     0.17692   0.54268   0.28474   0.00000  Uiso   1.00
O503   O     0.29267   0.92693   0.78474   0.00000  Uiso   1.00
O504   O     0.20732   0.57308   0.21526   0.00000  Uiso   1.00
O505   O     0.42692   0.70733   0.78474   0.00000  Uiso   1.00
O506   O     0.25000   0.50000   0.75000   0.00000  Uiso   1.00
O507   O     0.07307   0.79268   0.21526   0.00000  Uiso   1.00
O508   O     0.20732   0.57308   0.78474   0.00000  Uiso   1.00
O509   O     0.29267   0.92693   0.21526   0.00000  Uiso   1.00
O510   O     0.07307   0.79268   0.78474   0.00000  Uiso   1.00
O511   O     0.42692   0.70733   0.21526   0.00000  Uiso   1.00
O512   O     0.29267   0.57308   0.21526   0.00000  Uiso   1.00
O513   O     0.20732   0.92693   0.78474   0.00000  Uiso   1.00
O514   O     0.42692   0.79268   0.21526   0.00000  Uiso   1.00
O515   O     0.07307   0.70733   0.78474   0.00000  Uiso   1.00
O516   O     0.20732   0.92693   0.21526   0.00000  Uiso   1.00
O517   O     0.00000   0.78035   0.38219   0.00000  Uiso   1.00
O518   O     0.29267   0.57308   0.78474   0.00000  Uiso   1.00
O519   O     0.07307   0.70733   0.21526   0.00000  Uiso   1.00
O520   O     0.42692   0.79268   0.78474   0.00000  Uiso   1.00
O521   O     0.00000   0.71964   0.61781   0.00000  Uiso   1.00
O522   O     0.28035   0.50000   0.38219   0.00000  Uiso   1.00
O523   O     0.21964   0.50000   0.61781   0.00000  Uiso   1.00
O524   O     0.00000   0.71964   0.38219   0.00000  Uiso   1.00
Zn525  Zn    0.04333   0.75000   0.20067   0.00000  Uiso   1.00
Zn526  Zn    0.20667   0.50000   0.29933   0.00000  Uiso   1.00
Zn527  Zn    0.00000   0.70667   0.70067   0.00000  Uiso   1.00
Zn528  Zn    0.00000   0.79333   0.29933   0.00000  Uiso   1.00
Zn529  Zn    0.20667   0.50000   0.70067   0.00000  Uiso   1.00
Zn530  Zn    0.29333   0.50000   0.29933   0.00000  Uiso   1.00
Zn531  Zn    0.00000   0.79333   0.70067   0.00000  Uiso   1.00
Zn532  Zn    0.00000   0.70667   0.29933   0.00000  Uiso   1.00
Zn533  Zn    0.45667   0.75000   0.79933   0.00000  Uiso   1.00
Zn534  Zn    0.25000   0.95667   0.20067   0.00000  Uiso   1.00
Zn535  Zn    0.25000   0.54333   0.79933   0.00000  Uiso   1.00
Zn536  Zn    0.45667   0.75000   0.20067   0.00000  Uiso   1.00
Zn537  Zn    0.04333   0.75000   0.79933   0.00000  Uiso   1.00
Zn538  Zn    0.25000   0.54333   0.20067   0.00000  Uiso   1.00
Zn539  Zn    0.25000   0.95667   0.79933   0.00000  Uiso   1.00
Zn540  Zn    0.29333   0.50000   0.70067   0.00000  Uiso   1.00
C541   C     0.50000   0.75000   0.02669   0.00000  Uiso   1.00
C542   C     0.50000   0.75000   0.58996   0.00000  Uiso   1.00
C543   C     0.75000   0.50000   0.41004   0.00000  Uiso   1.00
C544   C     0.75000   0.50000   0.58996   0.00000  Uiso   1.00
C545   C     0.75000   0.50000   0.91004   0.00000  Uiso   1.00
C546   C     0.75000   0.50000   0.08996   0.00000  Uiso   1.00
C547   C     0.50000   0.75000   0.91004   0.00000  Uiso   1.00
C548   C     0.50000   0.75000   0.08996   0.00000  Uiso   1.00
C549   C     0.57007   0.67993   0.25000   0.00000  Uiso   1.00
C550   C     0.92993   0.82007   0.75000   0.00000  Uiso   1.00
C551   C     0.67993   0.92993   0.25000   0.00000  Uiso   1.00
C552   C     0.50000   0.75000   0.97331   0.00000  Uiso   1.00
C553   C     0.82007   0.57007   0.75000   0.00000  Uiso   1.00
C554   C     0.92993   0.82007   0.25000   0.00000  Uiso   1.00
C555   C     0.57007   0.67993   0.75000   0.00000  Uiso   1.00
C556   C     0.82007   0.57007   0.25000   0.00000  Uiso   1.00
C557   C     0.67993   0.92993   0.75000   0.00000  Uiso   1.00
C558   C     0.57007   0.82007   0.75000   0.00000  Uiso   1.00
C559   C     0.92993   0.67993   0.25000   0.00000  Uiso   1.00
C560   C     0.67993   0.57007   0.75000   0.00000  Uiso   1.00
C561   C     0.82007   0.92993   0.25000   0.00000  Uiso   1.00
C562   C     0.92993   0.67993   0.75000   0.00000  Uiso   1.00
C563   C     0.75000   0.50000   0.02668   0.00000  Uiso   1.00
C564   C     0.57007   0.82007   0.25000   0.00000  Uiso   1.00
C565   C     0.82007   0.92993   0.75000   0.00000  Uiso   1.00
C566   C     0.67993   0.57007   0.25000   0.00000  Uiso   1.00
C567   C     0.62112   0.85220   0.20034   0.00000  Uiso   1.00
C568   C     0.87888   0.64780   0.79966   0.00000  Uiso   1.00
C569   C     0.85220   0.87888   0.20034   0.00000  Uiso   1.00
C570   C     0.64780   0.62112   0.79966   0.00000  Uiso   1.00
C571   C     0.87888   0.64780   0.20034   0.00000  Uiso   1.00
C572   C     0.62112   0.85220   0.79966   0.00000  Uiso   1.00
C573   C     0.64780   0.62112   0.20034   0.00000  Uiso   1.00
C574   C     0.75000   0.50000   0.97331   0.00000  Uiso   1.00
C575   C     0.85220   0.87888   0.79966   0.00000  Uiso   1.00
C576   C     0.62112   0.64780   0.79966   0.00000  Uiso   1.00
C577   C     0.87888   0.85220   0.20034   0.00000  Uiso   1.00
C578   C     0.85220   0.62112   0.79966   0.00000  Uiso   1.00
C579   C     0.64780   0.87888   0.20034   0.00000  Uiso   1.00
C580   C     0.87888   0.85220   0.79966   0.00000  Uiso   1.00
C581   C     0.62112   0.64780   0.20034   0.00000  Uiso   1.00
C582   C     0.64780   0.87888   0.79966   0.00000  Uiso   1.00
C583   C     0.85220   0.62112   0.20034   0.00000  Uiso   1.00
C584   C     0.87112   0.60220   0.70034   0.00000  Uiso   1.00
C585   C     0.75000   0.50000   0.52668   0.00000  Uiso   1.00
C586   C     0.62888   0.89780   0.29966   0.00000  Uiso   1.00
C587   C     0.60220   0.62888   0.70034   0.00000  Uiso   1.00
C588   C     0.89780   0.87112   0.29966   0.00000  Uiso   1.00
C589   C     0.62888   0.89780   0.70034   0.00000  Uiso   1.00
C590   C     0.87112   0.60220   0.29966   0.00000  Uiso   1.00
C591   C     0.89780   0.87112   0.70034   0.00000  Uiso   1.00
C592   C     0.60220   0.62888   0.29966   0.00000  Uiso   1.00
C593   C     0.87112   0.89780   0.29966   0.00000  Uiso   1.00
C594   C     0.62888   0.60220   0.70034   0.00000  Uiso   1.00
C595   C     0.60220   0.87112   0.29966   0.00000  Uiso   1.00
C596   C     0.75000   0.50000   0.47331   0.00000  Uiso   1.00
C597   C     0.89780   0.62888   0.70034   0.00000  Uiso   1.00
C598   C     0.62888   0.60220   0.29966   0.00000  Uiso   1.00
C599   C     0.87112   0.89780   0.70034   0.00000  Uiso   1.00
C600   C     0.89780   0.62888   0.29966   0.00000  Uiso   1.00
C601   C     0.60220   0.87112   0.70034   0.00000  Uiso   1.00
C602   C     0.65187   0.90187   0.25000   0.00000  Uiso   1.00
C603   C     0.84813   0.59813   0.75000   0.00000  Uiso   1.00
C604   C     0.90187   0.84813   0.25000   0.00000  Uiso   1.00
C605   C     0.59813   0.65187   0.75000   0.00000  Uiso   1.00
C606   C     0.84813   0.59813   0.25000   0.00000  Uiso   1.00
C607   C     0.50000   0.75000   0.52668   0.00000  Uiso   1.00
C608   C     0.65187   0.90187   0.75000   0.00000  Uiso   1.00
C609   C     0.59813   0.65187   0.25000   0.00000  Uiso   1.00
C610   C     0.90187   0.84813   0.75000   0.00000  Uiso   1.00
C611   C     0.65187   0.59813   0.75000   0.00000  Uiso   1.00
C612   C     0.84813   0.90187   0.25000   0.00000  Uiso   1.00
C613   C     0.90187   0.65187   0.75000   0.00000  Uiso   1.00
C614   C     0.59813   0.84813   0.25000   0.00000  Uiso   1.00
C615   C     0.84813   0.90187   0.75000   0.00000  Uiso   1.00
C616   C     0.65187   0.59813   0.25000   0.00000  Uiso   1.00
C617   C     0.59813   0.84813   0.75000   0.00000  Uiso   1.00
C618   C     0.50000   0.75000   0.47331   0.00000  Uiso   1.00
C619   C     0.90187   0.65187   0.25000   0.00000  Uiso   1.00
C620   C     0.50000   0.75000   0.41004   0.00000  Uiso   1.00
F621   F     0.61735   0.83095   0.15111   0.00000  Uiso   1.00
F622   F     0.88265   0.83095   0.15111   0.00000  Uiso   1.00
F623   F     0.83095   0.61735   0.84889   0.00000  Uiso   1.00
F624   F     0.66905   0.88265   0.15111   0.00000  Uiso   1.00
F625   F     0.88265   0.83095   0.84889   0.00000  Uiso   1.00
F626   F     0.61735   0.66905   0.15111   0.00000  Uiso   1.00
F627   F     0.66904   0.88265   0.84889   0.00000  Uiso   1.00
F628   F     0.83096   0.61735   0.15111   0.00000  Uiso   1.00
F629   F     0.86735   0.58095   0.65111   0.00000  Uiso   1.00
F630   F     0.63265   0.91905   0.34889   0.00000  Uiso   1.00
F631   F     0.58095   0.63265   0.65111   0.00000  Uiso   1.00
F632   F     0.88265   0.66905   0.84889   0.00000  Uiso   1.00
F633   F     0.91905   0.86735   0.34889   0.00000  Uiso   1.00
F634   F     0.63265   0.91904   0.65110   0.00000  Uiso   1.00
F635   F     0.86735   0.58096   0.34889   0.00000  Uiso   1.00
F636   F     0.91905   0.86735   0.65111   0.00000  Uiso   1.00
F637   F     0.58095   0.63265   0.34889   0.00000  Uiso   1.00
F638   F     0.86735   0.91905   0.34889   0.00000  Uiso   1.00
F639   F     0.63265   0.58095   0.65111   0.00000  Uiso   1.00
F640   F     0.58095   0.86735   0.34889   0.00000  Uiso   1.00
F641   F     0.91905   0.63265   0.65111   0.00000  Uiso   1.00
F642   F     0.63265   0.58095   0.34889   0.00000  Uiso   1.00
F643   F     0.83095   0.88265   0.15111   0.00000  Uiso   1.00
F644   F     0.86735   0.91905   0.65111   0.00000  Uiso   1.00
F645   F     0.91904   0.63265   0.34889   0.00000  Uiso   1.00
F646   F     0.58096   0.86735   0.65110   0.00000  Uiso   1.00
F647   F     0.66905   0.61735   0.84889   0.00000  Uiso   1.00
F648   F     0.88265   0.66904   0.15111   0.00000  Uiso   1.00
F649   F     0.61735   0.83096   0.84889   0.00000  Uiso   1.00
F650   F     0.66905   0.61735   0.15111   0.00000  Uiso   1.00
F651   F     0.83095   0.88265   0.84889   0.00000  Uiso   1.00
F652   F     0.61735   0.66905   0.84889   0.00000  Uiso   1.00
O653   O     0.50000   0.75000   0.25000   0.00000  Uiso   1.00
O654   O     0.50000   0.78035   0.61781   0.00000  Uiso   1.00
O655   O     0.71964   0.50000   0.38219   0.00000  Uiso   1.00
O656   O     0.78035   0.50000   0.61781   0.00000  Uiso   1.00
O657   O     0.75000   0.53036   0.88219   0.00000  Uiso   1.00
O658   O     0.75000   0.96965   0.11781   0.00000  Uiso   1.00
O659   O     0.53035   0.75000   0.88219   0.00000  Uiso   1.00
O660   O     0.96964   0.75000   0.11781   0.00000  Uiso   1.00
O661   O     0.75000   0.96965   0.88219   0.00000  Uiso   1.00
O662   O     0.75000   0.53036   0.11781   0.00000  Uiso   1.00
O663   O     0.96964   0.75000   0.88219   0.00000  Uiso   1.00
O664   O     0.50000   0.75000   0.75000   0.00000  Uiso   1.00
O665   O     0.53035   0.75000   0.11781   0.00000  Uiso   1.00
O666   O     0.54267   0.67693   0.28474   0.00000  Uiso   1.00
O667   O     0.95732   0.82308   0.71526   0.00000  Uiso   1.00
O668   O     0.67692   0.95733   0.28474   0.00000  Uiso   1.00
O669   O     0.82307   0.54268   0.71526   0.00000  Uiso   1.00
O670   O     0.95732   0.82308   0.28474   0.00000  Uiso   1.00
O671   O     0.54267   0.67693   0.71526   0.00000  Uiso   1.00
O672   O     0.82307   0.54268   0.28474   0.00000  Uiso   1.00
O673   O     0.67692   0.95733   0.71526   0.00000  Uiso   1.00
O674   O     0.54267   0.82307   0.71526   0.00000  Uiso   1.00
O675   O     0.75000   0.50000   0.25000   0.00000  Uiso   1.00
O676   O     0.95732   0.67693   0.28474   0.00000  Uiso   1.00
O677   O     0.67692   0.54268   0.71526   0.00000  Uiso   1.00
O678   O     0.82307   0.95733   0.28474   0.00000  Uiso   1.00
O679   O     0.95732   0.67693   0.71526   0.00000  Uiso   1.00
O680   O     0.54267   0.82307   0.28474   0.00000  Uiso   1.00
O681   O     0.82307   0.95733   0.71526   0.00000  Uiso   1.00
O682   O     0.67692   0.54268   0.28474   0.00000  Uiso   1.00
O683   O     0.79267   0.92693   0.78474   0.00000  Uiso   1.00
O684   O     0.70732   0.57308   0.21526   0.00000  Uiso   1.00
O685   O     0.92692   0.70733   0.78474   0.00000  Uiso   1.00
O686   O     0.75000   0.50000   0.75000   0.00000  Uiso   1.00
O687   O     0.57307   0.79268   0.21526   0.00000  Uiso   1.00
O688   O     0.70732   0.57308   0.78474   0.00000  Uiso   1.00
O689   O     0.79267   0.92693   0.21526   0.00000  Uiso   1.00
O690   O     0.57307   0.79268   0.78474   0.00000  Uiso   1.00
O691   O     0.92692   0.70733   0.21526   0.00000  Uiso   1.00
O692   O     0.79267   0.57308   0.21526   0.00000  Uiso   1.00
O693   O     0.70732   0.92693   0.78474   0.00000  Uiso   1.00
O694   O     0.92692   0.79268   0.21526   0.00000  Uiso   1.00
O695   O     0.57307   0.70733   0.78474   0.00000  Uiso   1.00
O696   O     0.70732   0.92693   0.21526   0.00000  Uiso   1.00
O697   O     0.50000   0.78035   0.38219   0.00000  Uiso   1.00
O698   O     0.79267   0.57308   0.78474   0.00000  Uiso   1.00
O699   O     0.57307   0.70733   0.21526   0.00000  Uiso   1.00
O700   O     0.92692   0.79268   0.78474   0.00000  Uiso   1.00
O701   O     0.50000   0.71964   0.61781   0.00000  Uiso   1.00
O702   O     0.78035   0.50000   0.38219   0.00000  Uiso   1.00
O703   O     0.71964   0.50000   0.61781   0.00000  Uiso   1.00
O704   O     0.50000   0.71964   0.38219   0.00000  Uiso   1.00
Zn705  Zn    0.54333   0.75000   0.20067   0.00000  Uiso   1.00
Zn706  Zn    0.70667   0.50000   0.29933   0.00000  Uiso   1.00
Zn707  Zn    0.50000   0.70667   0.70067   0.00000  Uiso   1.00
Zn708  Zn    0.50000   0.79333   0.29933   0.00000  Uiso   1.00
Zn709  Zn    0.70667   0.50000   0.70067   0.00000  Uiso   1.00
Zn710  Zn    0.79333   0.50000   0.29933   0.00000  Uiso   1.00
Zn711  Zn    0.50000   0.79333   0.70067   0.00000  Uiso   1.00
Zn712  Zn    0.50000   0.70667   0.29933   0.00000  Uiso   1.00
Zn713  Zn    0.95667   0.75000   0.79933   0.00000  Uiso   1.00
Zn714  Zn    0.75000   0.95667   0.20067   0.00000  Uiso   1.00
Zn715  Zn    0.75000   0.54333   0.79933   0.00000  Uiso   1.00
Zn716  Zn    0.95667   0.75000   0.20067   0.00000  Uiso   1.00
Zn717  Zn    0.54333   0.75000   0.79933   0.00000  Uiso   1.00
Zn718  Zn    0.75000   0.54333   0.20067   0.00000  Uiso   1.00
Zn719  Zn    0.75000   0.95667   0.79933   0.00000  Uiso   1.00
Zn720  Zn    0.79333   0.50000   0.70067   0.00000  Uiso   1.00
loop_
_geom_bond_atom_site_label_1
_geom_bond_atom_site_label_2
_geom_bond_distance
_geom_bond_site_symmetry_2
_ccdc_geom_bond_type
C1     C8      1.417   .     S
C1     C12     1.195   1_554 S
C2     O161    1.279   .     A
C2     C67     1.417   .     S
C2     O114    1.279   .     A
C3     C56     1.417   .     S
C3     O115    1.279   .     S
C3     O162    1.279   .     S
C4     C45     1.417   .     S
C4     O116    1.279   .     S
C4     O163    1.279   .     S
C5     C34     1.417   .     S
C5     O117    1.279   .     A
C5     O481    1.279   1_545 S
C6     O122    1.279   .     A
C6     C23     1.417   .     S
C6     O478    1.279   1_545 S
C7     C12     1.417   .     S
C7     O303    1.279   1_455 A
C7     O119    1.279   .     S
C8     O125    1.279   .     A
C8     O300    1.279   1_455 S
C9     C69     1.459   .     S
C9     O159    1.278   .     A
C9     O126    1.278   .     A
C10    O160    1.278   .     A
C10    C70     1.459   .     S
C10    O127    1.278   .     A
C11    C62     1.459   .     S
C11    O156    1.278   .     A
C11    O128    1.278   .     A
C12    C1      1.195   1_556 S
C13    C63     1.459   .     S
C13    O158    1.278   .     A
C13    O129    1.278   .     A
C14    C64     1.459   .     S
C14    O130    1.278   .     A
C14    O154    1.278   .     A
C15    O131    1.278   .     A
C15    O155    1.278   .     A
C15    C65     1.459   .     S
C16    O152    1.278   .     A
C16    O132    1.278   .     A
C16    C66     1.459   .     S
C17    O153    1.278   .     A
C17    O133    1.278   .     A
C17    C68     1.459   .     S
C18    C77     1.459   .     S
C18    O150    1.278   .     A
C18    O134    1.278   .     A
C19    O136    1.278   .     A
C19    O151    1.278   .     A
C19    C79     1.459   .     S
C20    O148    1.278   .     A
C20    C71     1.459   .     S
C20    O137    1.278   .     A
C21    O138    1.278   .     A
C21    C72     1.459   .     S
C21    O149    1.278   .     A
C22    O139    1.278   .     A
C22    O145    1.278   .     A
C22    C73     1.459   .     S
C23    C34     1.195   1_554 S
C24    O140    1.278   .     A
C24    O147    1.278   .     A
C24    C74     1.459   .     S
C25    O143    1.278   .     A
C25    C75     1.459   .     S
C25    O141    1.278   .     A
C26    C76     1.459   .     S
C26    O144    1.278   .     A
C26    O142    1.278   .     A
C27    C74     1.405   .     A
C27    F81     1.358   .     S
C27    C39     1.388   .     A
C28    C73     1.405   .     A
C28    C38     1.388   .     A
C28    F92     1.358   .     S
C29    F103    1.358   .     S
C29    C72     1.405   .     A
C29    C37     1.388   .     A
C30    C71     1.405   .     A
C30    F107    1.358   .     S
C30    C36     1.388   .     A
C31    C43     1.388   .     A
C31    F108    1.358   .     S
C31    C79     1.405   .     A
C32    C77     1.405   .     A
C32    F109    1.358   .     S
C32    C42     1.388   .     A
C33    C76     1.405   .     A
C33    C41     1.388   .     A
C33    F110    1.358   .     S
C34    C23     1.195   1_556 S
C35    C75     1.405   .     A
C35    F111    1.358   .     S
C35    C40     1.388   .     A
C36    F112    1.358   .     S
C36    C65     1.405   .     A
C37    C64     1.405   .     A
C37    F82     1.358   .     S
C38    F83     1.358   .     S
C38    C63     1.405   .     A
C39    F84     1.358   .     S
C39    C62     1.405   .     A
C40    C70     1.405   .     A
C40    F85     1.358   .     S
C41    F86     1.358   .     S
C41    C69     1.405   .     A
C42    C68     1.405   .     A
C42    F87     1.358   .     S
C43    F88     1.358   .     S
C43    C66     1.405   .     A
C44    C63     1.405   .     A
C44    C57     1.388   .     A
C44    F89     1.358   .     S
C45    C56     1.195   .     T
C46    C62     1.405   .     A
C46    C55     1.388   .     A
C46    F90     1.358   .     S
C47    F91     1.358   .     S
C47    C54     1.388   .     A
C47    C65     1.405   .     A
C48    C64     1.405   .     A
C48    F93     1.358   .     S
C48    C53     1.388   .     A
C49    C68     1.405   .     A
C49    F94     1.358   .     S
C49    C61     1.388   .     A
C50    F95     1.358   .     S
C50    C66     1.405   .     A
C50    C60     1.388   .     A
C51    C70     1.405   .     A
C51    F96     1.358   .     S
C51    C59     1.388   .     A
C52    F97     1.358   .     S
C52    C69     1.405   .     A
C52    C58     1.388   .     A
C53    F98     1.358   .     S
C53    C72     1.405   .     A
C54    C71     1.405   .     A
C54    F99     1.358   .     S
C55    C74     1.405   .     A
C55    F100    1.358   .     S
C57    C73     1.405   .     A
C57    F101    1.358   .     S
C58    C76     1.405   .     A
C58    F102    1.358   .     S
C59    F104    1.358   .     S
C59    C75     1.405   .     A
C60    C79     1.405   .     A
C60    F105    1.358   .     S
C61    C77     1.405   .     A
C61    F106    1.358   .     S
C67    C78     1.195   .     T
C78    C80     1.417   .     S
C80    O164    1.279   .     A
C80    O157    1.279   .     A
O113   Zn168   1.939   .     S
O113   Zn165   1.939   .     S
O113   Zn172   1.939   .     S
O113   Zn356   1.939   1_455 S
O114   Zn171   1.916   .     S
O115   Zn166   1.916   .     S
O116   Zn180   1.916   .     S
O117   Zn175   1.916   .     S
O118   Zn174   1.916   .     S
O118   C366    1.279   .     S
O119   Zn177   1.916   .     S
O120   Zn176   1.916   .     S
O120   C188    1.279   .     S
O121   Zn179   1.916   .     S
O121   C365    1.279   .     S
O122   Zn178   1.916   .     S
O123   Zn173   1.916   .     S
O123   C187    1.279   .     A
O124   Zn167   1.939   .     S
O124   Zn177   1.939   .     S
O124   Zn171   1.939   .     S
O124   Zn353   1.939   1_455 S
O125   Zn165   1.916   .     S
O126   Zn172   1.941   .     S
O127   Zn351   1.941   .     S
O128   Zn526   1.941   .     S
O129   Zn180   1.941   .     S
O130   Zn348   1.941   .     S
O131   Zn167   1.941   .     S
O132   Zn170   1.941   .     S
O133   Zn529   1.941   .     S
O134   Zn171   1.941   .     S
O135   Zn534   1.939   1_545 S
O135   Zn166   1.939   .     S
O135   Zn170   1.939   .     S
O135   Zn178   1.939   .     S
O136   Zn352   1.941   .     S
O137   Zn169   1.941   .     S
O138   Zn530   1.941   .     S
O139   Zn347   1.941   .     S
O140   Zn168   1.941   .     S
O141   Zn540   1.941   .     S
O142   Zn166   1.941   .     S
O143   Zn179   1.941   .     S
O144   Zn178   1.941   .     S
O145   Zn173   1.941   .     S
O146   Zn175   1.939   .     S
O146   Zn180   1.939   .     S
O146   Zn169   1.939   .     S
O146   Zn539   1.939   1_545 S
O147   Zn165   1.941   .     S
O148   Zn175   1.941   .     S
O149   Zn174   1.941   .     S
O150   Zn177   1.941   .     S
O151   Zn176   1.941   .     S
O152   Zn178   1.941   .     S
O153   Zn179   1.941   .     S
O154   Zn176   1.941   .     S
O155   Zn177   1.941   .     S
O156   Zn174   1.941   .     S
O157   Zn168   1.916   .     S
O158   Zn175   1.941   .     S
O159   Zn165   1.941   .     S
O160   Zn173   1.941   .     S
O161   Zn167   1.916   .     S
O162   Zn170   1.916   .     S
O163   Zn169   1.916   .     S
O164   Zn172   1.916   .     S
Zn166  O488    1.941   1_545 S
Zn167  O319    1.941   1_455 S
Zn168  O310    1.941   1_455 S
Zn169  O493    1.941   1_545 S
Zn170  O498    1.941   1_545 S
Zn171  O307    1.941   1_455 S
Zn172  O316    1.941   1_455 S
Zn173  O304    1.939   .     S
Zn174  O495    1.939   .     S
Zn176  O293    1.939   .     S
Zn179  O506    1.939   .     S
Zn180  O501    1.941   1_545 S
C181   C188    1.417   .     S
C181   C192    1.195   1_554 S
C182   O341    1.279   .     A
C182   C247    1.417   .     S
C182   O294    1.279   .     A
C183   C236    1.417   .     S
C183   O295    1.279   .     S
C183   O342    1.279   .     S
C184   C225    1.417   .     S
C184   O296    1.279   .     S
C184   O343    1.279   .     S
C185   C214    1.417   .     S
C185   O297    1.279   .     A
C185   O661    1.279   1_545 S
C186   O302    1.279   .     A
C186   C203    1.417   .     S
C186   O658    1.279   1_545 S
C187   C192    1.417   .     S
C187   O299    1.279   .     S
C188   O305    1.279   .     A
C189   C249    1.459   .     S
C189   O339    1.278   .     A
C189   O306    1.278   .     A
C190   O340    1.278   .     A
C190   C250    1.459   .     S
C190   O307    1.278   .     A
C191   C242    1.459   .     S
C191   O336    1.278   .     A
C191   O308    1.278   .     A
C192   C181    1.195   1_556 S
C193   C243    1.459   .     S
C193   O338    1.278   .     A
C193   O309    1.278   .     A
C194   C244    1.459   .     S
C194   O310    1.278   .     A
C194   O334    1.278   .     A
C195   O311    1.278   .     A
C195   O335    1.278   .     A
C195   C245    1.459   .     S
C196   O332    1.278   .     A
C196   O312    1.278   .     A
C196   C246    1.459   .     S
C197   O333    1.278   .     A
C197   O313    1.278   .     A
C197   C248    1.459   .     S
C198   C257    1.459   .     S
C198   O330    1.278   .     A
C198   O314    1.278   .     A
C199   O316    1.278   .     A
C199   O331    1.278   .     A
C199   C259    1.459   .     S
C200   O328    1.278   .     A
C200   C251    1.459   .     S
C200   O317    1.278   .     A
C201   O318    1.278   .     A
C201   C252    1.459   .     S
C201   O329    1.278   .     A
C202   O319    1.278   .     A
C202   O325    1.278   .     A
C202   C253    1.459   .     S
C203   C214    1.195   1_554 S
C204   O320    1.278   .     A
C204   O327    1.278   .     A
C204   C254    1.459   .     S
C205   O323    1.278   .     A
C205   C255    1.459   .     S
C205   O321    1.278   .     A
C206   C256    1.459   .     S
C206   O324    1.278   .     A
C206   O322    1.278   .     A
C207   C254    1.405   .     A
C207   F261    1.358   .     S
C207   C219    1.388   .     A
C208   C253    1.405   .     A
C208   C218    1.388   .     A
C208   F272    1.358   .     S
C209   F283    1.358   .     S
C209   C252    1.405   .     A
C209   C217    1.388   .     A
C210   C251    1.405   .     A
C210   F287    1.358   .     S
C210   C216    1.388   .     A
C211   C223    1.388   .     A
C211   F288    1.358   .     S
C211   C259    1.405   .     A
C212   C257    1.405   .     A
C212   F289    1.358   .     S
C212   C222    1.388   .     A
C213   C256    1.405   .     A
C213   C221    1.388   .     A
C213   F290    1.358   .     S
C214   C203    1.195   1_556 S
C215   C255    1.405   .     A
C215   F291    1.358   .     S
C215   C220    1.388   .     A
C216   F292    1.358   .     S
C216   C245    1.405   .     A
C217   C244    1.405   .     A
C217   F262    1.358   .     S
C218   F263    1.358   .     S
C218   C243    1.405   .     A
C219   F264    1.358   .     S
C219   C242    1.405   .     A
C220   C250    1.405   .     A
C220   F265    1.358   .     S
C221   F266    1.358   .     S
C221   C249    1.405   .     A
C222   C248    1.405   .     A
C222   F267    1.358   .     S
C223   F268    1.358   .     S
C223   C246    1.405   .     A
C224   C243    1.405   .     A
C224   C237    1.388   .     A
C224   F269    1.358   .     S
C225   C236    1.195   .     T
C226   C242    1.405   .     A
C226   C235    1.388   .     A
C226   F270    1.358   .     S
C227   F271    1.358   .     S
C227   C234    1.388   .     A
C227   C245    1.405   .     A
C228   C244    1.405   .     A
C228   F273    1.358   .     S
C228   C233    1.388   .     A
C229   C248    1.405   .     A
C229   F274    1.358   .     S
C229   C241    1.388   .     A
C230   F275    1.358   .     S
C230   C246    1.405   .     A
C230   C240    1.388   .     A
C231   C250    1.405   .     A
C231   F276    1.358   .     S
C231   C239    1.388   .     A
C232   F277    1.358   .     S
C232   C249    1.405   .     A
C232   C238    1.388   .     A
C233   F278    1.358   .     S
C233   C252    1.405   .     A
C234   C251    1.405   .     A
C234   F279    1.358   .     S
C235   C254    1.405   .     A
C235   F280    1.358   .     S
C237   C253    1.405   .     A
C237   F281    1.358   .     S
C238   C256    1.405   .     A
C238   F282    1.358   .     S
C239   F284    1.358   .     S
C239   C255    1.405   .     A
C240   C259    1.405   .     A
C240   F285    1.358   .     S
C241   C257    1.405   .     A
C241   F286    1.358   .     S
C247   C258    1.195   .     T
C258   C260    1.417   .     S
C260   O344    1.279   .     A
C260   O337    1.279   .     A
O293   Zn348   1.939   .     S
O293   Zn345   1.939   .     S
O293   Zn352   1.939   .     S
O294   Zn351   1.916   .     S
O295   Zn346   1.916   .     S
O296   Zn360   1.916   .     S
O297   Zn355   1.916   .     S
O298   Zn354   1.916   .     S
O298   C546    1.279   .     S
O299   Zn357   1.916   .     S
O300   Zn356   1.916   .     S
O300   C8      1.279   1_655 S
O301   Zn359   1.916   .     S
O301   C545    1.279   .     S
O302   Zn358   1.916   .     S
O303   Zn353   1.916   .     S
O303   C7      1.279   1_655 A
O304   Zn347   1.939   .     S
O304   Zn357   1.939   .     S
O304   Zn351   1.939   .     S
O305   Zn345   1.916   .     S
O306   Zn352   1.941   .     S
O307   Zn171   1.941   1_655 S
O308   Zn706   1.941   .     S
O309   Zn360   1.941   .     S
O310   Zn168   1.941   1_655 S
O311   Zn347   1.941   .     S
O312   Zn350   1.941   .     S
O313   Zn709   1.941   .     S
O314   Zn351   1.941   .     S
O315   Zn714   1.939   1_545 S
O315   Zn346   1.939   .     S
O315   Zn350   1.939   .     S
O315   Zn358   1.939   .     S
O316   Zn172   1.941   1_655 S
O317   Zn349   1.941   .     S
O318   Zn710   1.941   .     S
O319   Zn167   1.941   1_655 S
O320   Zn348   1.941   .     S
O321   Zn720   1.941   .     S
O322   Zn346   1.941   .     S
O323   Zn359   1.941   .     S
O324   Zn358   1.941   .     S
O325   Zn353   1.941   .     S
O326   Zn355   1.939   .     S
O326   Zn360   1.939   .     S
O326   Zn349   1.939   .     S
O326   Zn719   1.939   1_545 S
O327   Zn345   1.941   .     S
O328   Zn355   1.941   .     S
O329   Zn354   1.941   .     S
O330   Zn357   1.941   .     S
O331   Zn356   1.941   .     S
O332   Zn358   1.941   .     S
O333   Zn359   1.941   .     S
O334   Zn356   1.941   .     S
O335   Zn357   1.941   .     S
O336   Zn354   1.941   .     S
O337   Zn348   1.916   .     S
O338   Zn355   1.941   .     S
O339   Zn345   1.941   .     S
O340   Zn353   1.941   .     S
O341   Zn347   1.916   .     S
O342   Zn350   1.916   .     S
O343   Zn349   1.916   .     S
O344   Zn352   1.916   .     S
Zn346  O668    1.941   1_545 S
Zn349  O673    1.941   1_545 S
Zn350  O678    1.941   1_545 S
Zn353  O124    1.939   1_655 S
Zn354  O675    1.939   .     S
Zn356  O113    1.939   1_655 S
Zn359  O686    1.939   .     S
Zn360  O681    1.941   1_545 S
C361   C368    1.417   .     S
C361   C372    1.195   1_554 S
C362   O521    1.279   .     A
C362   C427    1.417   .     S
C362   O474    1.279   .     A
C363   C416    1.417   .     S
C363   O475    1.279   .     S
C363   O522    1.279   .     S
C364   C405    1.417   .     S
C364   O476    1.279   .     S
C364   O523    1.279   .     S
C365   C394    1.417   .     S
C365   O477    1.279   .     A
C366   O482    1.279   .     A
C366   C383    1.417   .     S
C367   C372    1.417   .     S
C367   O663    1.279   1_455 A
C367   O479    1.279   .     S
C368   O485    1.279   .     A
C368   O660    1.279   1_455 S
C369   C429    1.459   .     S
C369   O519    1.278   .     A
C369   O486    1.278   .     A
C370   O520    1.278   .     A
C370   C430    1.459   .     S
C370   O487    1.278   .     A
C371   C422    1.459   .     S
C371   O516    1.278   .     A
C371   O488    1.278   .     A
C372   C361    1.195   1_556 S
C373   C423    1.459   .     S
C373   O518    1.278   .     A
C373   O489    1.278   .     A
C374   C424    1.459   .     S
C374   O490    1.278   .     A
C374   O514    1.278   .     A
C375   O491    1.278   .     A
C375   O515    1.278   .     A
C375   C425    1.459   .     S
C376   O512    1.278   .     A
C376   O492    1.278   .     A
C376   C426    1.459   .     S
C377   O513    1.278   .     A
C377   O493    1.278   .     A
C377   C428    1.459   .     S
C378   C437    1.459   .     S
C378   O510    1.278   .     A
C378   O494    1.278   .     A
C379   O496    1.278   .     A
C379   O511    1.278   .     A
C379   C439    1.459   .     S
C380   O508    1.278   .     A
C380   C431    1.459   .     S
C380   O497    1.278   .     A
C381   O498    1.278   .     A
C381   C432    1.459   .     S
C381   O509    1.278   .     A
C382   O499    1.278   .     A
C382   O505    1.278   .     A
C382   C433    1.459   .     S
C383   C394    1.195   1_554 S
C384   O500    1.278   .     A
C384   O507    1.278   .     A
C384   C434    1.459   .     S
C385   O503    1.278   .     A
C385   C435    1.459   .     S
C385   O501    1.278   .     A
C386   C436    1.459   .     S
C386   O504    1.278   .     A
C386   O502    1.278   .     A
C387   C434    1.405   .     A
C387   F441    1.358   .     S
C387   C399    1.388   .     A
C388   C433    1.405   .     A
C388   C398    1.388   .     A
C388   F452    1.358   .     S
C389   F463    1.358   .     S
C389   C432    1.405   .     A
C389   C397    1.388   .     A
C390   C431    1.405   .     A
C390   F467    1.358   .     S
C390   C396    1.388   .     A
C391   C403    1.388   .     A
C391   F468    1.358   .     S
C391   C439    1.405   .     A
C392   C437    1.405   .     A
C392   F469    1.358   .     S
C392   C402    1.388   .     A
C393   C436    1.405   .     A
C393   C401    1.388   .     A
C393   F470    1.358   .     S
C394   C383    1.195   1_556 S
C395   C435    1.405   .     A
C395   F471    1.358   .     S
C395   C400    1.388   .     A
C396   F472    1.358   .     S
C396   C425    1.405   .     A
C397   C424    1.405   .     A
C397   F442    1.358   .     S
C398   F443    1.358   .     S
C398   C423    1.405   .     A
C399   F444    1.358   .     S
C399   C422    1.405   .     A
C400   C430    1.405   .     A
C400   F445    1.358   .     S
C401   F446    1.358   .     S
C401   C429    1.405   .     A
C402   C428    1.405   .     A
C402   F447    1.358   .     S
C403   F448    1.358   .     S
C403   C426    1.405   .     A
C404   C423    1.405   .     A
C404   C417    1.388   .     A
C404   F449    1.358   .     S
C405   C416    1.195   .     T
C406   C422    1.405   .     A
C406   C415    1.388   .     A
C406   F450    1.358   .     S
C407   F451    1.358   .     S
C407   C414    1.388   .     A
C407   C425    1.405   .     A
C408   C424    1.405   .     A
C408   F453    1.358   .     S
C408   C413    1.388   .     A
C409   C428    1.405   .     A
C409   F454    1.358   .     S
C409   C421    1.388   .     A
C410   F455    1.358   .     S
C410   C426    1.405   .     A
C410   C420    1.388   .     A
C411   C430    1.405   .     A
C411   F456    1.358   .     S
C411   C419    1.388   .     A
C412   F457    1.358   .     S
C412   C429    1.405   .     A
C412   C418    1.388   .     A
C413   F458    1.358   .     S
C413   C432    1.405   .     A
C414   C431    1.405   .     A
C414   F459    1.358   .     S
C415   C434    1.405   .     A
C415   F460    1.358   .     S
C417   C433    1.405   .     A
C417   F461    1.358   .     S
C418   C436    1.405   .     A
C418   F462    1.358   .     S
C419   F464    1.358   .     S
C419   C435    1.405   .     A
C420   C439    1.405   .     A
C420   F465    1.358   .     S
C421   C437    1.405   .     A
C421   F466    1.358   .     S
C427   C438    1.195   .     T
C438   C440    1.417   .     S
C440   O524    1.279   .     A
C440   O517    1.279   .     A
O473   Zn528   1.939   .     S
O473   Zn525   1.939   .     S
O473   Zn532   1.939   .     S
O473   Zn716   1.939   1_455 S
O474   Zn531   1.916   .     S
O475   Zn526   1.916   .     S
O476   Zn540   1.916   .     S
O477   Zn535   1.916   .     S
O478   Zn534   1.916   .     S
O478   C6      1.279   1_565 S
O479   Zn537   1.916   .     S
O480   Zn536   1.916   .     S
O480   C548    1.279   .     S
O481   Zn539   1.916   .     S
O481   C5      1.279   1_565 S
O482   Zn538   1.916   .     S
O483   Zn533   1.916   .     S
O483   C547    1.279   .     A
O484   Zn527   1.939   .     S
O484   Zn537   1.939   .     S
O484   Zn531   1.939   .     S
O484   Zn713   1.939   1_455 S
O485   Zn525   1.916   .     S
O486   Zn532   1.941   .     S
O487   Zn711   1.941   .     S
O488   Zn166   1.941   1_565 S
O489   Zn540   1.941   .     S
O490   Zn708   1.941   .     S
O491   Zn527   1.941   .     S
O492   Zn530   1.941   .     S
O493   Zn169   1.941   1_565 S
O494   Zn531   1.941   .     S
O495   Zn526   1.939   .     S
O495   Zn530   1.939   .     S
O495   Zn538   1.939   .     S
O496   Zn712   1.941   .     S
O497   Zn529   1.941   .     S
O498   Zn170   1.941   1_565 S
O499   Zn707   1.941   .     S
O500   Zn528   1.941   .     S
O501   Zn180   1.941   1_565 S
O502   Zn526   1.941   .     S
O503   Zn539   1.941   .     S
O504   Zn538   1.941   .     S
O505   Zn533   1.941   .     S
O506   Zn535   1.939   .     S
O506   Zn540   1.939   .     S
O506   Zn529   1.939   .     S
O507   Zn525   1.941   .     S
O508   Zn535   1.941   .     S
O509   Zn534   1.941   .     S
O510   Zn537   1.941   .     S
O511   Zn536   1.941   .     S
O512   Zn538   1.941   .     S
O513   Zn539   1.941   .     S
O514   Zn536   1.941   .     S
O515   Zn537   1.941   .     S
O516   Zn534   1.941   .     S
O517   Zn528   1.916   .     S
O518   Zn535   1.941   .     S
O519   Zn525   1.941   .     S
O520   Zn533   1.941   .     S
O521   Zn527   1.916   .     S
O522   Zn530   1.916   .     S
O523   Zn529   1.916   .     S
O524   Zn532   1.916   .     S
Zn527  O679    1.941   1_455 S
Zn528  O670    1.941   1_455 S
Zn531  O667    1.941   1_455 S
Zn532  O676    1.941   1_455 S
Zn533  O664    1.939   .     S
Zn534  O135    1.939   1_565 S
Zn536  O653    1.939   .     S
Zn539  O146    1.939   1_565 S
C541   C548    1.417   .     S
C541   C552    1.195   1_554 S
C542   O701    1.279   .     A
C542   C607    1.417   .     S
C542   O654    1.279   .     A
C543   C596    1.417   .     S
C543   O655    1.279   .     S
C543   O702    1.279   .     S
C544   C585    1.417   .     S
C544   O656    1.279   .     S
C544   O703    1.279   .     S
C545   C574    1.417   .     S
C545   O657    1.279   .     A
C546   O662    1.279   .     A
C546   C563    1.417   .     S
C547   C552    1.417   .     S
C547   O659    1.279   .     S
C548   O665    1.279   .     A
C549   C609    1.459   .     S
C549   O699    1.278   .     A
C549   O666    1.278   .     A
C550   O700    1.278   .     A
C550   C610    1.459   .     S
C550   O667    1.278   .     A
C551   C602    1.459   .     S
C551   O696    1.278   .     A
C551   O668    1.278   .     A
C552   C541    1.195   1_556 S
C553   C603    1.459   .     S
C553   O698    1.278   .     A
C553   O669    1.278   .     A
C554   C604    1.459   .     S
C554   O670    1.278   .     A
C554   O694    1.278   .     A
C555   O671    1.278   .     A
C555   O695    1.278   .     A
C555   C605    1.459   .     S
C556   O692    1.278   .     A
C556   O672    1.278   .     A
C556   C606    1.459   .     S
C557   O693    1.278   .     A
C557   O673    1.278   .     A
C557   C608    1.459   .     S
C558   C617    1.459   .     S
C558   O690    1.278   .     A
C558   O674    1.278   .     A
C559   O676    1.278   .     A
C559   O691    1.278   .     A
C559   C619    1.459   .     S
C560   O688    1.278   .     A
C560   C611    1.459   .     S
C560   O677    1.278   .     A
C561   O678    1.278   .     A
C561   C612    1.459   .     S
C561   O689    1.278   .     A
C562   O679    1.278   .     A
C562   O685    1.278   .     A
C562   C613    1.459   .     S
C563   C574    1.195   1_554 S
C564   O680    1.278   .     A
C564   O687    1.278   .     A
C564   C614    1.459   .     S
C565   O683    1.278   .     A
C565   C615    1.459   .     S
C565   O681    1.278   .     A
C566   C616    1.459   .     S
C566   O684    1.278   .     A
C566   O682    1.278   .     A
C567   C614    1.405   .     A
C567   F621    1.358   .     S
C567   C579    1.388   .     A
C568   C613    1.405   .     A
C568   C578    1.388   .     A
C568   F632    1.358   .     S
C569   F643    1.358   .     S
C569   C612    1.405   .     A
C569   C577    1.388   .     A
C570   C611    1.405   .     A
C570   F647    1.358   .     S
C570   C576    1.388   .     A
C571   C583    1.388   .     A
C571   F648    1.358   .     S
C571   C619    1.405   .     A
C572   C617    1.405   .     A
C572   F649    1.358   .     S
C572   C582    1.388   .     A
C573   C616    1.405   .     A
C573   C581    1.388   .     A
C573   F650    1.358   .     S
C574   C563    1.195   1_556 S
C575   C615    1.405   .     A
C575   F651    1.358   .     S
C575   C580    1.388   .     A
C576   F652    1.358   .     S
C576   C605    1.405   .     A
C577   C604    1.405   .     A
C577   F622    1.358   .     S
C578   F623    1.358   .     S
C578   C603    1.405   .     A
C579   F624    1.358   .     S
C579   C602    1.405   .     A
C580   C610    1.405   .     A
C580   F625    1.358   .     S
C581   F626    1.358   .     S
C581   C609    1.405   .     A
C582   C608    1.405   .     A
C582   F627    1.358   .     S
C583   F628    1.358   .     S
C583   C606    1.405   .     A
C584   C603    1.405   .     A
C584   C597    1.388   .     A
C584   F629    1.358   .     S
C585   C596    1.195   .     T
C586   C602    1.405   .     A
C586   C595    1.388   .     A
C586   F630    1.358   .     S
C587   F631    1.358   .     S
C587   C594    1.388   .     A
C587   C605    1.405   .     A
C588   C604    1.405   .     A
C588   F633    1.358   .     S
C588   C593    1.388   .     A
C589   C608    1.405   .     A
C589   F634    1.358   .     S
C589   C601    1.388   .     A
C590   F635    1.358   .     S
C590   C606    1.405   .     A
C590   C600    1.388   .     A
C591   C610    1.405   .     A
C591   F636    1.358   .     S
C591   C599    1.388   .     A
C592   F637    1.358   .     S
C592   C609    1.405   .     A
C592   C598    1.388   .     A
C593   F638    1.358   .     S
C593   C612    1.405   .     A
C594   C611    1.405   .     A
C594   F639    1.358   .     S
C595   C614    1.405   .     A
C595   F640    1.358   .     S
C597   C613    1.405   .     A
C597   F641    1.358   .     S
C598   C616    1.405   .     A
C598   F642    1.358   .     S
C599   F644    1.358   .     S
C599   C615    1.405   .     A
C600   C619    1.405   .     A
C600   F645    1.358   .     S
C601   C617    1.405   .     A
C601   F646    1.358   .     S
C607   C618    1.195   .     T
C618   C620    1.417   .     S
C620   O704    1.279   .     A
C620   O697    1.279   .     A
O653   Zn708   1.939   .     S
O653   Zn705   1.939   .     S
O653   Zn712   1.939   .     S
O654   Zn711   1.916   .     S
O655   Zn706   1.916   .     S
O656   Zn720   1.916   .     S
O657   Zn715   1.916   .     S
O658   Zn714   1.916   .     S
O658   C186    1.279   1_565 S
O659   Zn717   1.916   .     S
O660   Zn716   1.916   .     S
O660   C368    1.279   1_655 S
O661   Zn719   1.916   .     S
O661   C185    1.279   1_565 S
O662   Zn718   1.916   .     S
O663   Zn713   1.916   .     S
O663   C367    1.279   1_655 A
O664   Zn707   1.939   .     S
O664   Zn717   1.939   .     S
O664   Zn711   1.939   .     S
O665   Zn705   1.916   .     S
O666   Zn712   1.941   .     S
O667   Zn531   1.941   1_655 S
O668   Zn346   1.941   1_565 S
O669   Zn720   1.941   .     S
O670   Zn528   1.941   1_655 S
O671   Zn707   1.941   .     S
O672   Zn710   1.941   .     S
O673   Zn349   1.941   1_565 S
O674   Zn711   1.941   .     S
O675   Zn706   1.939   .     S
O675   Zn710   1.939   .     S
O675   Zn718   1.939   .     S
O676   Zn532   1.941   1_655 S
O677   Zn709   1.941   .     S
O678   Zn350   1.941   1_565 S
O679   Zn527   1.941   1_655 S
O680   Zn708   1.941   .     S
O681   Zn360   1.941   1_565 S
O682   Zn706   1.941   .     S
O683   Zn719   1.941   .     S
O684   Zn718   1.941   .     S
O685   Zn713   1.941   .     S
O686   Zn715   1.939   .     S
O686   Zn720   1.939   .     S
O686   Zn709   1.939   .     S
O687   Zn705   1.941   .     S
O688   Zn715   1.941   .     S
O689   Zn714   1.941   .     S
O690   Zn717   1.941   .     S
O691   Zn716   1.941   .     S
O692   Zn718   1.941   .     S
O693   Zn719   1.941   .     S
O694   Zn716   1.941   .     S
O695   Zn717   1.941   .     S
O696   Zn714   1.941   .     S
O697   Zn708   1.916   .     S
O698   Zn715   1.941   .     S
O699   Zn705   1.941   .     S
O700   Zn713   1.941   .     S
O701   Zn707   1.916   .     S
O702   Zn710   1.916   .     S
O703   Zn709   1.916   .     S
O704   Zn712   1.916   .     S
Zn713  O484    1.939   1_655 S
Zn714  O315    1.939   1_565 S
Zn716  O473    1.939   1_655 S
Zn719  O326    1.939   1_565 S
