data_str_m1_o1_o17_pcu_sym.29
_audit_creation_date              2020-01-03
_audit_creation_method            'Materials Studio'
_symmetry_space_group_name_H-M    'P1'
_symmetry_Int_Tables_number       1
_symmetry_cell_setting            triclinic
loop_
_symmetry_equiv_pos_as_xyz
  x,y,z
_cell_length_a                    36.5958
_cell_length_b                    36.6116
_cell_length_c                    34.4434
_cell_angle_alpha                 89.9904
_cell_angle_beta                  90.0051
_cell_angle_gamma                 90.0021
loop_
_atom_site_label
_atom_site_type_symbol
_atom_site_fract_x
_atom_site_fract_y
_atom_site_fract_z
_atom_site_U_iso_or_equiv
_atom_site_adp_type
_atom_site_occupancy
Zn1    Zn    0.20659   0.00000   0.21735   0.00000  Uiso   1.00
Zn2    Zn    0.29340  -0.00000   0.78265   0.00000  Uiso   1.00
Zn3    Zn    0.00000   0.20660   0.21735   0.00000  Uiso   1.00
Zn4    Zn   -0.00000   0.29340   0.78265   0.00000  Uiso   1.00
Zn5    Zn    0.29340   0.00000   0.21735   0.00000  Uiso   1.00
Zn6    Zn    0.20659  -0.00000   0.78265   0.00000  Uiso   1.00
Zn7    Zn    0.00000   0.29341   0.21735   0.00000  Uiso   1.00
Zn8    Zn    0.00000   0.20660   0.78265   0.00000  Uiso   1.00
Zn9    Zn    0.45659   0.25000   0.71735   0.00000  Uiso   1.00
Zn10   Zn    0.04340   0.25000   0.28265   0.00000  Uiso   1.00
Zn11   Zn    0.25000   0.45660   0.71735   0.00000  Uiso   1.00
Zn12   Zn    0.25000   0.04340   0.28265   0.00000  Uiso   1.00
Zn13   Zn    0.04340   0.25000   0.71735   0.00000  Uiso   1.00
Zn14   Zn    0.45659   0.25000   0.28265   0.00000  Uiso   1.00
Zn15   Zn    0.25000   0.04340   0.71735   0.00000  Uiso   1.00
Zn16   Zn    0.25000   0.45660   0.28265   0.00000  Uiso   1.00
C17    C     0.46680   0.25142   0.41881   0.00000  Uiso   1.00
C18    C     0.03320   0.24857   0.58119   0.00000  Uiso   1.00
C19    C     0.24837   0.03318   0.41880   0.00000  Uiso   1.00
C20    C     0.25163   0.46682   0.58120   0.00000  Uiso   1.00
C21    C     0.03321   0.24857   0.41881   0.00000  Uiso   1.00
C22    C     0.46679   0.25142   0.58119   0.00000  Uiso   1.00
C23    C     0.25163   0.46681   0.41882   0.00000  Uiso   1.00
C24    C     0.24837   0.03318   0.58118   0.00000  Uiso   1.00
C25    C     0.21677   0.00053   0.91881   0.00000  Uiso   1.00
C26    C     0.28323   0.49947   0.08119   0.00000  Uiso   1.00
C27    C     0.49749   0.28312   0.91880   0.00000  Uiso   1.00
C28    C     0.00251   0.21688   0.08120   0.00000  Uiso   1.00
C29    C     0.28323   0.49947   0.91881   0.00000  Uiso   1.00
C30    C     0.21677   0.00053   0.08119   0.00000  Uiso   1.00
C31    C     0.00251   0.21687   0.91881   0.00000  Uiso   1.00
C32    C     0.49749   0.28313   0.08119   0.00000  Uiso   1.00
C33    C     0.00000   0.25000   0.39848   0.00000  Uiso   1.00
C34    C    -0.00000   0.25000   0.60152   0.00000  Uiso   1.00
C35    C     0.25000  -0.00000   0.39847   0.00000  Uiso   1.00
C36    C     0.25000   0.00000   0.60153   0.00000  Uiso   1.00
C37    C     0.25000   0.00000   0.89848   0.00000  Uiso   1.00
C38    C     0.25000   0.00000   0.10152   0.00000  Uiso   1.00
C39    C     0.00000   0.25000   0.89847   0.00000  Uiso   1.00
C40    C     0.00000   0.25001   0.10153   0.00000  Uiso   1.00
O41    O     0.25000   0.00000   0.25000   0.00000  Uiso   1.00
O42    O     0.25000  -0.00000   0.75000   0.00000  Uiso   1.00
O43    O    -0.00000   0.25000   0.25000   0.00000  Uiso   1.00
O44    O     0.00000   0.25000   0.75000   0.00000  Uiso   1.00
O45    O     0.25000   0.46964   0.33755   0.00000  Uiso   1.00
O46    O     0.25000   0.03036   0.66245   0.00000  Uiso   1.00
O47    O     0.03036   0.25000   0.33755   0.00000  Uiso   1.00
O48    O     0.46963   0.25000   0.66245   0.00000  Uiso   1.00
O49    O     0.25000   0.03036   0.33755   0.00000  Uiso   1.00
O50    O     0.25000   0.46964   0.66245   0.00000  Uiso   1.00
O51    O     0.46963   0.25000   0.33755   0.00000  Uiso   1.00
O52    O     0.03036   0.25000   0.66245   0.00000  Uiso   1.00
O53    O     0.00000   0.21964   0.83755   0.00000  Uiso   1.00
O54    O    -0.00000   0.28036   0.16245   0.00000  Uiso   1.00
O55    O     0.28036  -0.00000   0.83755   0.00000  Uiso   1.00
O56    O     0.21963  -0.00000   0.16245   0.00000  Uiso   1.00
O57    O     0.00000   0.28037   0.83755   0.00000  Uiso   1.00
O58    O    -0.00000   0.21963   0.16245   0.00000  Uiso   1.00
O59    O     0.21963  -0.00000   0.83755   0.00000  Uiso   1.00
O60    O     0.28036  -0.00000   0.16245   0.00000  Uiso   1.00
H61    H     0.09237   0.24594   0.46446   0.00000  Uiso   1.00
H62    H     0.40763   0.25405   0.53554   0.00000  Uiso   1.00
H63    H     0.25463   0.40770   0.46447   0.00000  Uiso   1.00
H64    H     0.24536   0.09230   0.53553   0.00000  Uiso   1.00
H65    H     0.40763   0.25405   0.46443   0.00000  Uiso   1.00
H66    H     0.09236   0.24594   0.53557   0.00000  Uiso   1.00
H67    H     0.24536   0.09229   0.46442   0.00000  Uiso   1.00
H68    H     0.25463   0.40770   0.53558   0.00000  Uiso   1.00
H69    H     0.34244   0.49849   0.96446   0.00000  Uiso   1.00
H70    H     0.15756   0.00151   0.03554   0.00000  Uiso   1.00
H71    H     0.00713   0.15786   0.96447   0.00000  Uiso   1.00
H72    H     0.49287   0.34214   0.03553   0.00000  Uiso   1.00
H73    H     0.15756   0.00151   0.96443   0.00000  Uiso   1.00
H74    H     0.34244   0.49849   0.03557   0.00000  Uiso   1.00
H75    H     0.49287   0.34214   0.96442   0.00000  Uiso   1.00
H76    H     0.00714   0.15786   0.03558   0.00000  Uiso   1.00
O77    O     0.20724   0.07307   0.27302   0.00000  Uiso   1.00
O78    O     0.29275   0.42693   0.72698   0.00000  Uiso   1.00
O79    O     0.42692   0.20724   0.27302   0.00000  Uiso   1.00
O80    O     0.07307   0.29276   0.72698   0.00000  Uiso   1.00
O81    O     0.29275   0.42693   0.27302   0.00000  Uiso   1.00
O82    O     0.20724   0.07307   0.72698   0.00000  Uiso   1.00
O83    O     0.07307   0.29276   0.27302   0.00000  Uiso   1.00
O84    O     0.42692   0.20724   0.72698   0.00000  Uiso   1.00
O85    O     0.20724   0.42693   0.72698   0.00000  Uiso   1.00
O86    O     0.29275   0.07307   0.27302   0.00000  Uiso   1.00
O87    O     0.42692   0.29275   0.72698   0.00000  Uiso   1.00
O88    O     0.07307   0.20725   0.27302   0.00000  Uiso   1.00
O89    O     0.29275   0.07307   0.72698   0.00000  Uiso   1.00
O90    O     0.20724   0.42693   0.27302   0.00000  Uiso   1.00
O91    O     0.07307   0.20725   0.72698   0.00000  Uiso   1.00
O92    O     0.42692   0.29275   0.27302   0.00000  Uiso   1.00
O93    O     0.45724   0.32307   0.77302   0.00000  Uiso   1.00
O94    O     0.04275   0.17693   0.22698   0.00000  Uiso   1.00
O95    O     0.17692   0.45725   0.77302   0.00000  Uiso   1.00
O96    O     0.32307   0.04275   0.22698   0.00000  Uiso   1.00
O97    O     0.04275   0.17693   0.77302   0.00000  Uiso   1.00
O98    O     0.45724   0.32307   0.22698   0.00000  Uiso   1.00
O99    O     0.32307   0.04275   0.77302   0.00000  Uiso   1.00
O100   O     0.17692   0.45725   0.22698   0.00000  Uiso   1.00
O101   O     0.45724   0.17692   0.22698   0.00000  Uiso   1.00
O102   O     0.04275   0.32308   0.77302   0.00000  Uiso   1.00
O103   O     0.17692   0.04275   0.22698   0.00000  Uiso   1.00
O104   O     0.32307   0.45725   0.77302   0.00000  Uiso   1.00
O105   O     0.04275   0.32308   0.22698   0.00000  Uiso   1.00
O106   O     0.45724   0.17692   0.77302   0.00000  Uiso   1.00
O107   O     0.32307   0.45725   0.22698   0.00000  Uiso   1.00
O108   O     0.17692   0.04275   0.77302   0.00000  Uiso   1.00
C109   C     0.06652   0.24708   0.47976   0.00000  Uiso   1.00
C110   C     0.43348   0.25291   0.52024   0.00000  Uiso   1.00
C111   C     0.25333   0.43353   0.47977   0.00000  Uiso   1.00
C112   C     0.24666   0.06647   0.52023   0.00000  Uiso   1.00
C113   C     0.43348   0.25291   0.47975   0.00000  Uiso   1.00
C114   C     0.06652   0.24708   0.52025   0.00000  Uiso   1.00
C115   C     0.24666   0.06647   0.47974   0.00000  Uiso   1.00
C116   C     0.25333   0.43353   0.52026   0.00000  Uiso   1.00
C117   C     0.31657   0.49892   0.97976   0.00000  Uiso   1.00
C118   C     0.18343   0.00109   0.02024   0.00000  Uiso   1.00
C119   C     0.00513   0.18364   0.97977   0.00000  Uiso   1.00
C120   C     0.49488   0.31636   0.02023   0.00000  Uiso   1.00
C121   C     0.18343   0.00109   0.97975   0.00000  Uiso   1.00
C122   C     0.31657   0.49892   0.02025   0.00000  Uiso   1.00
C123   C     0.49488   0.31636   0.97974   0.00000  Uiso   1.00
C124   C     0.00513   0.18365   0.02026   0.00000  Uiso   1.00
C125   C     0.25000  -0.00000   0.35600   0.00000  Uiso   1.00
C126   C     0.25000   0.00000   0.64400   0.00000  Uiso   1.00
C127   C     0.00000   0.25000   0.35600   0.00000  Uiso   1.00
C128   C    -0.00000   0.25000   0.64400   0.00000  Uiso   1.00
C129   C    -0.00000   0.25000   0.85600   0.00000  Uiso   1.00
C130   C     0.00000   0.25000   0.14400   0.00000  Uiso   1.00
C131   C     0.25000   0.00000   0.85600   0.00000  Uiso   1.00
C132   C     0.25000   0.00000   0.14400   0.00000  Uiso   1.00
C133   C     0.17997   0.06998   0.25001   0.00000  Uiso   1.00
C134   C     0.32003   0.43002   0.74999   0.00000  Uiso   1.00
C135   C     0.42997   0.18002   0.24999   0.00000  Uiso   1.00
C136   C     0.06999   0.32001   0.74999   0.00000  Uiso   1.00
C137   C     0.32000   0.42999   0.25000   0.00000  Uiso   1.00
C138   C     0.17998   0.06998   0.74999   0.00000  Uiso   1.00
C139   C     0.06999   0.32002   0.25001   0.00000  Uiso   1.00
C140   C     0.42997   0.18002   0.75001   0.00000  Uiso   1.00
C141   C     0.18000   0.42999   0.75001   0.00000  Uiso   1.00
C142   C     0.32003   0.06998   0.25001   0.00000  Uiso   1.00
C143   C     0.42997   0.31998   0.75001   0.00000  Uiso   1.00
C144   C     0.07003   0.18002   0.24999   0.00000  Uiso   1.00
C145   C     0.32003   0.06998   0.74999   0.00000  Uiso   1.00
C146   C     0.18001   0.42998   0.24999   0.00000  Uiso   1.00
C147   C     0.07002   0.18002   0.75001   0.00000  Uiso   1.00
C148   C     0.43000   0.32001   0.25001   0.00000  Uiso   1.00
C149   C     0.13876   0.38821   0.21434   0.00000  Uiso   1.00
C150   C     0.36141   0.11154   0.78555   0.00000  Uiso   1.00
C151   C     0.11179   0.13877   0.21434   0.00000  Uiso   1.00
C152   C     0.38822   0.36123   0.78566   0.00000  Uiso   1.00
C153   C     0.36141   0.11155   0.21445   0.00000  Uiso   1.00
C154   C     0.13863   0.38835   0.78563   0.00000  Uiso   1.00
C155   C     0.38838   0.36137   0.21440   0.00000  Uiso   1.00
C156   C     0.11171   0.13869   0.78565   0.00000  Uiso   1.00
C157   C     0.13853   0.11149   0.78556   0.00000  Uiso   1.00
C158   C     0.36139   0.38839   0.21440   0.00000  Uiso   1.00
C159   C     0.11153   0.36144   0.78557   0.00000  Uiso   1.00
C160   C     0.38818   0.13879   0.21434   0.00000  Uiso   1.00
C161   C     0.36143   0.38846   0.78555   0.00000  Uiso   1.00
C162   C     0.13857   0.11154   0.21445   0.00000  Uiso   1.00
C163   C     0.38819   0.13878   0.78565   0.00000  Uiso   1.00
C164   C     0.11156   0.36140   0.21445   0.00000  Uiso   1.00
C165   C     0.38860   0.13845   0.71445   0.00000  Uiso   1.00
C166   C     0.11124   0.36179   0.28566   0.00000  Uiso   1.00
C167   C     0.36178   0.38876   0.71435   0.00000  Uiso   1.00
C168   C     0.13821   0.11123   0.28566   0.00000  Uiso   1.00
C169   C     0.11135   0.36167   0.71436   0.00000  Uiso   1.00
C170   C     0.38860   0.13844   0.28555   0.00000  Uiso   1.00
C171   C     0.13829   0.11132   0.71435   0.00000  Uiso   1.00
C172   C     0.36158   0.38858   0.28559   0.00000  Uiso   1.00
C173   C     0.38868   0.36167   0.28563   0.00000  Uiso   1.00
C174   C     0.11144   0.13849   0.71444   0.00000  Uiso   1.00
C175   C     0.36181   0.11121   0.28566   0.00000  Uiso   1.00
C176   C     0.13847   0.38856   0.71442   0.00000  Uiso   1.00
C177   C     0.11142   0.13846   0.28555   0.00000  Uiso   1.00
C178   C     0.38857   0.36153   0.71445   0.00000  Uiso   1.00
C179   C     0.13844   0.38860   0.28555   0.00000  Uiso   1.00
C180   C     0.36181   0.11121   0.71434   0.00000  Uiso   1.00
C181   C     0.03344   0.24854   0.45929   0.00000  Uiso   1.00
C182   C     0.46656   0.25145   0.54071   0.00000  Uiso   1.00
C183   C     0.25166   0.46658   0.45930   0.00000  Uiso   1.00
C184   C     0.24833   0.03341   0.54070   0.00000  Uiso   1.00
C185   C     0.46656   0.25145   0.45929   0.00000  Uiso   1.00
C186   C     0.03343   0.24854   0.54071   0.00000  Uiso   1.00
C187   C     0.24833   0.03341   0.45928   0.00000  Uiso   1.00
C188   C     0.25166   0.46659   0.54072   0.00000  Uiso   1.00
C189   C     0.28346   0.49946   0.95929   0.00000  Uiso   1.00
C190   C     0.21654   0.00054   0.04071   0.00000  Uiso   1.00
C191   C     0.00256   0.21664   0.95930   0.00000  Uiso   1.00
C192   C     0.49745   0.28336   0.04070   0.00000  Uiso   1.00
C193   C     0.21654   0.00054   0.95929   0.00000  Uiso   1.00
C194   C     0.28346   0.49946   0.04071   0.00000  Uiso   1.00
C195   C     0.49745   0.28336   0.95928   0.00000  Uiso   1.00
C196   C     0.00256   0.21665   0.04072   0.00000  Uiso   1.00
H197   H     0.44110   0.25257   0.40318   0.00000  Uiso   1.00
H198   H     0.05890   0.24742   0.59682   0.00000  Uiso   1.00
H199   H     0.24705   0.05886   0.40317   0.00000  Uiso   1.00
H200   H     0.25294   0.44114   0.59683   0.00000  Uiso   1.00
H201   H     0.05890   0.24743   0.40319   0.00000  Uiso   1.00
H202   H     0.44109   0.25257   0.59681   0.00000  Uiso   1.00
H203   H     0.25294   0.44113   0.40319   0.00000  Uiso   1.00
H204   H     0.24705   0.05886   0.59681   0.00000  Uiso   1.00
H205   H     0.19105   0.00096   0.90318   0.00000  Uiso   1.00
H206   H     0.30895   0.49905   0.09682   0.00000  Uiso   1.00
H207   H     0.49548   0.30876   0.90316   0.00000  Uiso   1.00
H208   H     0.00453   0.19125   0.09684   0.00000  Uiso   1.00
H209   H     0.30895   0.49905   0.90319   0.00000  Uiso   1.00
H210   H     0.19105   0.00096   0.09681   0.00000  Uiso   1.00
H211   H     0.00452   0.19124   0.90319   0.00000  Uiso   1.00
H212   H     0.49548   0.30876   0.09681   0.00000  Uiso   1.00
C213   C     0.09797   0.34821   0.25006   0.00000  Uiso   1.00
C214   C     0.40177   0.15205   0.75006   0.00000  Uiso   1.00
C215   C     0.15176   0.09794   0.25006   0.00000  Uiso   1.00
C216   C     0.34823   0.40205   0.74994   0.00000  Uiso   1.00
C217   C     0.40176   0.15206   0.24994   0.00000  Uiso   1.00
C218   C     0.09802   0.34816   0.74996   0.00000  Uiso   1.00
C219   C     0.34807   0.40189   0.24999   0.00000  Uiso   1.00
C220   C     0.15179   0.09797   0.74995   0.00000  Uiso   1.00
C221   C     0.09820   0.15202   0.75005   0.00000  Uiso   1.00
C222   C     0.40194   0.34811   0.25002   0.00000  Uiso   1.00
C223   C     0.15197   0.40185   0.75003   0.00000  Uiso   1.00
C224   C     0.34824   0.09794   0.25006   0.00000  Uiso   1.00
C225   C     0.40176   0.34794   0.75006   0.00000  Uiso   1.00
C226   C     0.09823   0.15206   0.24994   0.00000  Uiso   1.00
C227   C     0.34824   0.09794   0.74994   0.00000  Uiso   1.00
C228   C     0.15203   0.40179   0.24994   0.00000  Uiso   1.00
C229   C    -0.00000   0.24999   0.47963   0.00000  Uiso   1.00
C230   C    -0.00000   0.24999   0.52037   0.00000  Uiso   1.00
C231   C     0.25000  -0.00000   0.47963   0.00000  Uiso   1.00
C232   C     0.25000  -0.00000   0.52037   0.00000  Uiso   1.00
C233   C     0.25000   0.00000   0.97963   0.00000  Uiso   1.00
C234   C     0.25000   0.00000   0.02037   0.00000  Uiso   1.00
C235   C     0.00000   0.25000   0.97963   0.00000  Uiso   1.00
C236   C     0.00000   0.25000   0.02037   0.00000  Uiso   1.00
N237   N     0.15469   0.39970   0.17822   0.00000  Uiso   1.00
O238   O     0.18966   0.39623   0.17242   0.00000  Uiso   1.00
O239   O     0.13457   0.41491   0.15161   0.00000  Uiso   1.00
N240   N     0.34565   0.09970   0.82155   0.00000  Uiso   1.00
O241   O     0.31145   0.10645   0.82900   0.00000  Uiso   1.00
O242   O     0.36407   0.07845   0.84463   0.00000  Uiso   1.00
N243   N     0.10031   0.15470   0.17821   0.00000  Uiso   1.00
O244   O     0.10374   0.18966   0.17244   0.00000  Uiso   1.00
O245   O     0.08517   0.13459   0.15157   0.00000  Uiso   1.00
N246   N     0.39970   0.34531   0.82179   0.00000  Uiso   1.00
O247   O     0.39626   0.31035   0.82758   0.00000  Uiso   1.00
O248   O     0.41486   0.36543   0.84842   0.00000  Uiso   1.00
N249   N     0.34563   0.09973   0.17845   0.00000  Uiso   1.00
O250   O     0.31146   0.10657   0.17097   0.00000  Uiso   1.00
O251   O     0.36399   0.07838   0.15543   0.00000  Uiso   1.00
N252   N     0.15444   0.39999   0.82174   0.00000  Uiso   1.00
O253   O     0.18925   0.39580   0.82800   0.00000  Uiso   1.00
O254   O     0.13455   0.41678   0.84744   0.00000  Uiso   1.00
N255   N     0.40002   0.34552   0.17833   0.00000  Uiso   1.00
O256   O     0.39519   0.31084   0.17188   0.00000  Uiso   1.00
O257   O     0.41795   0.36505   0.15319   0.00000  Uiso   1.00
N258   N     0.10017   0.15456   0.82178   0.00000  Uiso   1.00
O259   O     0.10389   0.18946   0.82773   0.00000  Uiso   1.00
O260   O     0.08447   0.13450   0.84810   0.00000  Uiso   1.00
N261   N     0.15423   0.09961   0.82159   0.00000  Uiso   1.00
O262   O     0.18850   0.10604   0.82897   0.00000  Uiso   1.00
O263   O     0.13556   0.07881   0.84490   0.00000  Uiso   1.00
N264   N     0.34560   0.40011   0.17832   0.00000  Uiso   1.00
O265   O     0.31099   0.39495   0.17163   0.00000  Uiso   1.00
O266   O     0.36498   0.41879   0.15366   0.00000  Uiso   1.00
N267   N     0.09976   0.34567   0.82161   0.00000  Uiso   1.00
O268   O     0.10564   0.31125   0.82865   0.00000  Uiso   1.00
O269   O     0.07991   0.36464   0.84557   0.00000  Uiso   1.00
N270   N     0.39963   0.15475   0.17821   0.00000  Uiso   1.00
O271   O     0.39627   0.18972   0.17249   0.00000  Uiso   1.00
O272   O     0.41458   0.13461   0.15147   0.00000  Uiso   1.00
N273   N     0.34566   0.40029   0.82156   0.00000  Uiso   1.00
O274   O     0.31146   0.39354   0.82900   0.00000  Uiso   1.00
O275   O     0.36410   0.42148   0.84467   0.00000  Uiso   1.00
N276   N     0.15434   0.09971   0.17844   0.00000  Uiso   1.00
O277   O     0.18853   0.10646   0.17100   0.00000  Uiso   1.00
O278   O     0.13590   0.07850   0.15535   0.00000  Uiso   1.00
N279   N     0.39963   0.15474   0.82178   0.00000  Uiso   1.00
O280   O     0.39616   0.18970   0.82752   0.00000  Uiso   1.00
O281   O     0.41472   0.13465   0.84847   0.00000  Uiso   1.00
N282   N     0.09976   0.34560   0.17845   0.00000  Uiso   1.00
O283   O     0.10648   0.31140   0.17107   0.00000  Uiso   1.00
O284   O     0.07863   0.36404   0.15525   0.00000  Uiso   1.00
N285   N     0.40438   0.15027   0.67845   0.00000  Uiso   1.00
O286   O     0.43857   0.14350   0.67101   0.00000  Uiso   1.00
O287   O     0.38598   0.17154   0.65536   0.00000  Uiso   1.00
N288   N     0.09531   0.35030   0.32179   0.00000  Uiso   1.00
O289   O     0.06034   0.35375   0.32757   0.00000  Uiso   1.00
O290   O     0.11544   0.33515   0.34841   0.00000  Uiso   1.00
N291   N     0.35029   0.40468   0.67821   0.00000  Uiso   1.00
O292   O     0.35373   0.43964   0.67242   0.00000  Uiso   1.00
O293   O     0.33516   0.38455   0.65157   0.00000  Uiso   1.00
N294   N     0.14969   0.09529   0.32179   0.00000  Uiso   1.00
O295   O     0.14626   0.06033   0.32756   0.00000  Uiso   1.00
O296   O     0.16481   0.11541   0.34844   0.00000  Uiso   1.00
N297   N     0.09551   0.35006   0.67824   0.00000  Uiso   1.00
O298   O     0.06065   0.35401   0.67212   0.00000  Uiso   1.00
O299   O     0.11550   0.33377   0.65226   0.00000  Uiso   1.00
N300   N     0.40438   0.15026   0.32155   0.00000  Uiso   1.00
O301   O     0.43857   0.14347   0.32900   0.00000  Uiso   1.00
O302   O     0.38599   0.17153   0.34463   0.00000  Uiso   1.00
N303   N     0.14986   0.09549   0.67822   0.00000  Uiso   1.00
O304   O     0.14616   0.06059   0.67223   0.00000  Uiso   1.00
O305   O     0.16563   0.11557   0.65195   0.00000  Uiso   1.00
N306   N     0.34980   0.40433   0.32163   0.00000  Uiso   1.00
O307   O     0.35576   0.43872   0.32871   0.00000  Uiso   1.00
O308   O     0.32980   0.38540   0.34550   0.00000  Uiso   1.00
N309   N     0.40457   0.35009   0.32173   0.00000  Uiso   1.00
O310   O     0.43941   0.35422   0.32786   0.00000  Uiso   1.00
O311   O     0.38470   0.33352   0.34761   0.00000  Uiso   1.00
N312   N     0.09567   0.15031   0.67842   0.00000  Uiso   1.00
O313   O     0.06137   0.14393   0.67115   0.00000  Uiso   1.00
O314   O     0.11432   0.17101   0.65498   0.00000  Uiso   1.00
N315   N     0.35036   0.09525   0.32179   0.00000  Uiso   1.00
O316   O     0.35376   0.06028   0.32752   0.00000  Uiso   1.00
O317   O     0.33534   0.11537   0.34850   0.00000  Uiso   1.00
N318   N     0.15027   0.40432   0.67839   0.00000  Uiso   1.00
O319   O     0.14419   0.43869   0.67125   0.00000  Uiso   1.00
O320   O     0.17052   0.38549   0.65469   0.00000  Uiso   1.00
N321   N     0.09566   0.15028   0.32156   0.00000  Uiso   1.00
O322   O     0.06146   0.14354   0.32899   0.00000  Uiso   1.00
O323   O     0.11409   0.17150   0.34466   0.00000  Uiso   1.00
N324   N     0.40433   0.34970   0.67844   0.00000  Uiso   1.00
O325   O     0.43851   0.35650   0.67097   0.00000  Uiso   1.00
O326   O     0.38591   0.32844   0.65538   0.00000  Uiso   1.00
N327   N     0.15025   0.40439   0.32155   0.00000  Uiso   1.00
O328   O     0.14350   0.43858   0.32895   0.00000  Uiso   1.00
O329   O     0.17143   0.38597   0.34471   0.00000  Uiso   1.00
N330   N     0.35036   0.09526   0.67821   0.00000  Uiso   1.00
O331   O     0.35375   0.06030   0.67249   0.00000  Uiso   1.00
O332   O     0.33533   0.11539   0.65150   0.00000  Uiso   1.00
Zn333  Zn    0.70659   0.00000   0.21735   0.00000  Uiso   1.00
Zn334  Zn    0.79340  -0.00000   0.78265   0.00000  Uiso   1.00
Zn335  Zn    0.50000   0.20660   0.21735   0.00000  Uiso   1.00
Zn336  Zn    0.50000   0.29340   0.78265   0.00000  Uiso   1.00
Zn337  Zn    0.79340   0.00000   0.21735   0.00000  Uiso   1.00
Zn338  Zn    0.70659  -0.00000   0.78265   0.00000  Uiso   1.00
Zn339  Zn    0.50000   0.29341   0.21735   0.00000  Uiso   1.00
Zn340  Zn    0.50000   0.20660   0.78265   0.00000  Uiso   1.00
Zn341  Zn    0.95659   0.25000   0.71735   0.00000  Uiso   1.00
Zn342  Zn    0.54340   0.25000   0.28265   0.00000  Uiso   1.00
Zn343  Zn    0.75000   0.45660   0.71735   0.00000  Uiso   1.00
Zn344  Zn    0.75000   0.04340   0.28265   0.00000  Uiso   1.00
Zn345  Zn    0.54340   0.25000   0.71735   0.00000  Uiso   1.00
Zn346  Zn    0.95659   0.25000   0.28265   0.00000  Uiso   1.00
Zn347  Zn    0.75000   0.04340   0.71735   0.00000  Uiso   1.00
Zn348  Zn    0.75000   0.45660   0.28265   0.00000  Uiso   1.00
C349   C     0.96680   0.25142   0.41881   0.00000  Uiso   1.00
C350   C     0.53320   0.24857   0.58119   0.00000  Uiso   1.00
C351   C     0.74837   0.03318   0.41880   0.00000  Uiso   1.00
C352   C     0.75163   0.46682   0.58120   0.00000  Uiso   1.00
C353   C     0.53321   0.24857   0.41881   0.00000  Uiso   1.00
C354   C     0.96679   0.25142   0.58119   0.00000  Uiso   1.00
C355   C     0.75163   0.46681   0.41882   0.00000  Uiso   1.00
C356   C     0.74837   0.03318   0.58118   0.00000  Uiso   1.00
C357   C     0.71677   0.00053   0.91881   0.00000  Uiso   1.00
C358   C     0.78323   0.49947   0.08119   0.00000  Uiso   1.00
C359   C     0.99749   0.28312   0.91880   0.00000  Uiso   1.00
C360   C     0.50251   0.21688   0.08120   0.00000  Uiso   1.00
C361   C     0.78323   0.49947   0.91881   0.00000  Uiso   1.00
C362   C     0.71677   0.00053   0.08119   0.00000  Uiso   1.00
C363   C     0.50251   0.21687   0.91881   0.00000  Uiso   1.00
C364   C     0.99749   0.28313   0.08119   0.00000  Uiso   1.00
C365   C     0.50000   0.25000   0.39848   0.00000  Uiso   1.00
C366   C     0.50000   0.25000   0.60152   0.00000  Uiso   1.00
C367   C     0.75000  -0.00000   0.39847   0.00000  Uiso   1.00
C368   C     0.75000   0.00000   0.60153   0.00000  Uiso   1.00
C369   C     0.75000   0.00000   0.89848   0.00000  Uiso   1.00
C370   C     0.75000   0.00000   0.10152   0.00000  Uiso   1.00
C371   C     0.50000   0.25000   0.89847   0.00000  Uiso   1.00
C372   C     0.50000   0.25001   0.10153   0.00000  Uiso   1.00
O373   O     0.75000   0.00000   0.25000   0.00000  Uiso   1.00
O374   O     0.75000  -0.00000   0.75000   0.00000  Uiso   1.00
O375   O     0.50000   0.25000   0.25000   0.00000  Uiso   1.00
O376   O     0.50000   0.25000   0.75000   0.00000  Uiso   1.00
O377   O     0.75000   0.46964   0.33755   0.00000  Uiso   1.00
O378   O     0.75000   0.03036   0.66245   0.00000  Uiso   1.00
O379   O     0.53036   0.25000   0.33755   0.00000  Uiso   1.00
O380   O     0.96963   0.25000   0.66245   0.00000  Uiso   1.00
O381   O     0.75000   0.03036   0.33755   0.00000  Uiso   1.00
O382   O     0.75000   0.46964   0.66245   0.00000  Uiso   1.00
O383   O     0.96963   0.25000   0.33755   0.00000  Uiso   1.00
O384   O     0.53036   0.25000   0.66245   0.00000  Uiso   1.00
O385   O     0.50000   0.21964   0.83755   0.00000  Uiso   1.00
O386   O     0.50000   0.28036   0.16245   0.00000  Uiso   1.00
O387   O     0.78036  -0.00000   0.83755   0.00000  Uiso   1.00
O388   O     0.71963  -0.00000   0.16245   0.00000  Uiso   1.00
O389   O     0.50000   0.28037   0.83755   0.00000  Uiso   1.00
O390   O     0.50000   0.21963   0.16245   0.00000  Uiso   1.00
O391   O     0.71963  -0.00000   0.83755   0.00000  Uiso   1.00
O392   O     0.78036  -0.00000   0.16245   0.00000  Uiso   1.00
H393   H     0.59237   0.24594   0.46446   0.00000  Uiso   1.00
H394   H     0.90763   0.25405   0.53554   0.00000  Uiso   1.00
H395   H     0.75463   0.40770   0.46447   0.00000  Uiso   1.00
H396   H     0.74536   0.09230   0.53553   0.00000  Uiso   1.00
H397   H     0.90763   0.25405   0.46443   0.00000  Uiso   1.00
H398   H     0.59236   0.24594   0.53557   0.00000  Uiso   1.00
H399   H     0.74536   0.09229   0.46442   0.00000  Uiso   1.00
H400   H     0.75463   0.40770   0.53558   0.00000  Uiso   1.00
H401   H     0.84244   0.49849   0.96446   0.00000  Uiso   1.00
H402   H     0.65756   0.00151   0.03554   0.00000  Uiso   1.00
H403   H     0.50713   0.15786   0.96447   0.00000  Uiso   1.00
H404   H     0.99287   0.34214   0.03553   0.00000  Uiso   1.00
H405   H     0.65756   0.00151   0.96443   0.00000  Uiso   1.00
H406   H     0.84244   0.49849   0.03557   0.00000  Uiso   1.00
H407   H     0.99287   0.34214   0.96442   0.00000  Uiso   1.00
H408   H     0.50714   0.15786   0.03558   0.00000  Uiso   1.00
O409   O     0.70724   0.07307   0.27302   0.00000  Uiso   1.00
O410   O     0.79275   0.42693   0.72698   0.00000  Uiso   1.00
O411   O     0.92692   0.20724   0.27302   0.00000  Uiso   1.00
O412   O     0.57307   0.29276   0.72698   0.00000  Uiso   1.00
O413   O     0.79275   0.42693   0.27302   0.00000  Uiso   1.00
O414   O     0.70724   0.07307   0.72698   0.00000  Uiso   1.00
O415   O     0.57307   0.29276   0.27302   0.00000  Uiso   1.00
O416   O     0.92692   0.20724   0.72698   0.00000  Uiso   1.00
O417   O     0.70724   0.42693   0.72698   0.00000  Uiso   1.00
O418   O     0.79275   0.07307   0.27302   0.00000  Uiso   1.00
O419   O     0.92692   0.29275   0.72698   0.00000  Uiso   1.00
O420   O     0.57307   0.20725   0.27302   0.00000  Uiso   1.00
O421   O     0.79275   0.07307   0.72698   0.00000  Uiso   1.00
O422   O     0.70724   0.42693   0.27302   0.00000  Uiso   1.00
O423   O     0.57307   0.20725   0.72698   0.00000  Uiso   1.00
O424   O     0.92692   0.29275   0.27302   0.00000  Uiso   1.00
O425   O     0.95724   0.32307   0.77302   0.00000  Uiso   1.00
O426   O     0.54275   0.17693   0.22698   0.00000  Uiso   1.00
O427   O     0.67692   0.45725   0.77302   0.00000  Uiso   1.00
O428   O     0.82307   0.04275   0.22698   0.00000  Uiso   1.00
O429   O     0.54275   0.17693   0.77302   0.00000  Uiso   1.00
O430   O     0.95724   0.32307   0.22698   0.00000  Uiso   1.00
O431   O     0.82307   0.04275   0.77302   0.00000  Uiso   1.00
O432   O     0.67692   0.45725   0.22698   0.00000  Uiso   1.00
O433   O     0.95724   0.17692   0.22698   0.00000  Uiso   1.00
O434   O     0.54275   0.32308   0.77302   0.00000  Uiso   1.00
O435   O     0.67692   0.04275   0.22698   0.00000  Uiso   1.00
O436   O     0.82307   0.45725   0.77302   0.00000  Uiso   1.00
O437   O     0.54275   0.32308   0.22698   0.00000  Uiso   1.00
O438   O     0.95724   0.17692   0.77302   0.00000  Uiso   1.00
O439   O     0.82307   0.45725   0.22698   0.00000  Uiso   1.00
O440   O     0.67692   0.04275   0.77302   0.00000  Uiso   1.00
C441   C     0.56652   0.24708   0.47976   0.00000  Uiso   1.00
C442   C     0.93348   0.25291   0.52024   0.00000  Uiso   1.00
C443   C     0.75333   0.43353   0.47977   0.00000  Uiso   1.00
C444   C     0.74666   0.06647   0.52023   0.00000  Uiso   1.00
C445   C     0.93348   0.25291   0.47975   0.00000  Uiso   1.00
C446   C     0.56652   0.24708   0.52025   0.00000  Uiso   1.00
C447   C     0.74666   0.06647   0.47974   0.00000  Uiso   1.00
C448   C     0.75333   0.43353   0.52026   0.00000  Uiso   1.00
C449   C     0.81657   0.49892   0.97976   0.00000  Uiso   1.00
C450   C     0.68343   0.00109   0.02024   0.00000  Uiso   1.00
C451   C     0.50513   0.18364   0.97977   0.00000  Uiso   1.00
C452   C     0.99488   0.31636   0.02023   0.00000  Uiso   1.00
C453   C     0.68343   0.00109   0.97975   0.00000  Uiso   1.00
C454   C     0.81657   0.49892   0.02025   0.00000  Uiso   1.00
C455   C     0.99488   0.31636   0.97974   0.00000  Uiso   1.00
C456   C     0.50513   0.18365   0.02026   0.00000  Uiso   1.00
C457   C     0.75000  -0.00000   0.35600   0.00000  Uiso   1.00
C458   C     0.75000   0.00000   0.64400   0.00000  Uiso   1.00
C459   C     0.50000   0.25000   0.35600   0.00000  Uiso   1.00
C460   C     0.50000   0.25000   0.64400   0.00000  Uiso   1.00
C461   C     0.50000   0.25000   0.85600   0.00000  Uiso   1.00
C462   C     0.50000   0.25000   0.14400   0.00000  Uiso   1.00
C463   C     0.75000   0.00000   0.85600   0.00000  Uiso   1.00
C464   C     0.75000   0.00000   0.14400   0.00000  Uiso   1.00
C465   C     0.67997   0.06998   0.25001   0.00000  Uiso   1.00
C466   C     0.82003   0.43002   0.74999   0.00000  Uiso   1.00
C467   C     0.92997   0.18002   0.24999   0.00000  Uiso   1.00
C468   C     0.56999   0.32001   0.74999   0.00000  Uiso   1.00
C469   C     0.82000   0.42999   0.25000   0.00000  Uiso   1.00
C470   C     0.67998   0.06998   0.74999   0.00000  Uiso   1.00
C471   C     0.56999   0.32002   0.25001   0.00000  Uiso   1.00
C472   C     0.92997   0.18002   0.75001   0.00000  Uiso   1.00
C473   C     0.68000   0.42999   0.75001   0.00000  Uiso   1.00
C474   C     0.82003   0.06998   0.25001   0.00000  Uiso   1.00
C475   C     0.92997   0.31998   0.75001   0.00000  Uiso   1.00
C476   C     0.57003   0.18002   0.24999   0.00000  Uiso   1.00
C477   C     0.82003   0.06998   0.74999   0.00000  Uiso   1.00
C478   C     0.68001   0.42998   0.24999   0.00000  Uiso   1.00
C479   C     0.57002   0.18002   0.75001   0.00000  Uiso   1.00
C480   C     0.93000   0.32001   0.25001   0.00000  Uiso   1.00
C481   C     0.63876   0.38821   0.21434   0.00000  Uiso   1.00
C482   C     0.86141   0.11154   0.78555   0.00000  Uiso   1.00
C483   C     0.61179   0.13877   0.21434   0.00000  Uiso   1.00
C484   C     0.88822   0.36123   0.78566   0.00000  Uiso   1.00
C485   C     0.86141   0.11155   0.21445   0.00000  Uiso   1.00
C486   C     0.63863   0.38835   0.78563   0.00000  Uiso   1.00
C487   C     0.88838   0.36137   0.21440   0.00000  Uiso   1.00
C488   C     0.61171   0.13869   0.78565   0.00000  Uiso   1.00
C489   C     0.63853   0.11149   0.78556   0.00000  Uiso   1.00
C490   C     0.86139   0.38839   0.21440   0.00000  Uiso   1.00
C491   C     0.61153   0.36144   0.78557   0.00000  Uiso   1.00
C492   C     0.88818   0.13879   0.21434   0.00000  Uiso   1.00
C493   C     0.86143   0.38846   0.78555   0.00000  Uiso   1.00
C494   C     0.63857   0.11154   0.21445   0.00000  Uiso   1.00
C495   C     0.88819   0.13878   0.78565   0.00000  Uiso   1.00
C496   C     0.61156   0.36140   0.21445   0.00000  Uiso   1.00
C497   C     0.88860   0.13845   0.71445   0.00000  Uiso   1.00
C498   C     0.61124   0.36179   0.28566   0.00000  Uiso   1.00
C499   C     0.86178   0.38876   0.71435   0.00000  Uiso   1.00
C500   C     0.63821   0.11123   0.28566   0.00000  Uiso   1.00
C501   C     0.61135   0.36167   0.71436   0.00000  Uiso   1.00
C502   C     0.88860   0.13844   0.28555   0.00000  Uiso   1.00
C503   C     0.63829   0.11132   0.71435   0.00000  Uiso   1.00
C504   C     0.86158   0.38858   0.28559   0.00000  Uiso   1.00
C505   C     0.88868   0.36167   0.28563   0.00000  Uiso   1.00
C506   C     0.61144   0.13849   0.71444   0.00000  Uiso   1.00
C507   C     0.86181   0.11121   0.28566   0.00000  Uiso   1.00
C508   C     0.63847   0.38856   0.71442   0.00000  Uiso   1.00
C509   C     0.61142   0.13846   0.28555   0.00000  Uiso   1.00
C510   C     0.88857   0.36153   0.71445   0.00000  Uiso   1.00
C511   C     0.63844   0.38860   0.28555   0.00000  Uiso   1.00
C512   C     0.86181   0.11121   0.71434   0.00000  Uiso   1.00
C513   C     0.53344   0.24854   0.45929   0.00000  Uiso   1.00
C514   C     0.96656   0.25145   0.54071   0.00000  Uiso   1.00
C515   C     0.75166   0.46658   0.45930   0.00000  Uiso   1.00
C516   C     0.74833   0.03341   0.54070   0.00000  Uiso   1.00
C517   C     0.96656   0.25145   0.45929   0.00000  Uiso   1.00
C518   C     0.53343   0.24854   0.54071   0.00000  Uiso   1.00
C519   C     0.74833   0.03341   0.45928   0.00000  Uiso   1.00
C520   C     0.75166   0.46659   0.54072   0.00000  Uiso   1.00
C521   C     0.78346   0.49946   0.95929   0.00000  Uiso   1.00
C522   C     0.71654   0.00054   0.04071   0.00000  Uiso   1.00
C523   C     0.50256   0.21664   0.95930   0.00000  Uiso   1.00
C524   C     0.99745   0.28336   0.04070   0.00000  Uiso   1.00
C525   C     0.71654   0.00054   0.95929   0.00000  Uiso   1.00
C526   C     0.78346   0.49946   0.04071   0.00000  Uiso   1.00
C527   C     0.99745   0.28336   0.95928   0.00000  Uiso   1.00
C528   C     0.50256   0.21665   0.04072   0.00000  Uiso   1.00
H529   H     0.94110   0.25257   0.40318   0.00000  Uiso   1.00
H530   H     0.55890   0.24742   0.59682   0.00000  Uiso   1.00
H531   H     0.74705   0.05886   0.40317   0.00000  Uiso   1.00
H532   H     0.75294   0.44114   0.59683   0.00000  Uiso   1.00
H533   H     0.55890   0.24743   0.40319   0.00000  Uiso   1.00
H534   H     0.94109   0.25257   0.59681   0.00000  Uiso   1.00
H535   H     0.75294   0.44113   0.40319   0.00000  Uiso   1.00
H536   H     0.74705   0.05886   0.59681   0.00000  Uiso   1.00
H537   H     0.69105   0.00096   0.90318   0.00000  Uiso   1.00
H538   H     0.80895   0.49905   0.09682   0.00000  Uiso   1.00
H539   H     0.99548   0.30876   0.90316   0.00000  Uiso   1.00
H540   H     0.50453   0.19125   0.09684   0.00000  Uiso   1.00
H541   H     0.80895   0.49905   0.90319   0.00000  Uiso   1.00
H542   H     0.69105   0.00096   0.09681   0.00000  Uiso   1.00
H543   H     0.50452   0.19124   0.90319   0.00000  Uiso   1.00
H544   H     0.99548   0.30876   0.09681   0.00000  Uiso   1.00
C545   C     0.59797   0.34821   0.25006   0.00000  Uiso   1.00
C546   C     0.90177   0.15205   0.75006   0.00000  Uiso   1.00
C547   C     0.65176   0.09794   0.25006   0.00000  Uiso   1.00
C548   C     0.84823   0.40205   0.74994   0.00000  Uiso   1.00
C549   C     0.90176   0.15206   0.24994   0.00000  Uiso   1.00
C550   C     0.59802   0.34816   0.74996   0.00000  Uiso   1.00
C551   C     0.84807   0.40189   0.24999   0.00000  Uiso   1.00
C552   C     0.65179   0.09797   0.74995   0.00000  Uiso   1.00
C553   C     0.59820   0.15202   0.75005   0.00000  Uiso   1.00
C554   C     0.90194   0.34811   0.25002   0.00000  Uiso   1.00
C555   C     0.65197   0.40185   0.75003   0.00000  Uiso   1.00
C556   C     0.84824   0.09794   0.25006   0.00000  Uiso   1.00
C557   C     0.90176   0.34794   0.75006   0.00000  Uiso   1.00
C558   C     0.59823   0.15206   0.24994   0.00000  Uiso   1.00
C559   C     0.84824   0.09794   0.74994   0.00000  Uiso   1.00
C560   C     0.65203   0.40179   0.24994   0.00000  Uiso   1.00
C561   C     0.50000   0.24999   0.47963   0.00000  Uiso   1.00
C562   C     0.50000   0.24999   0.52037   0.00000  Uiso   1.00
C563   C     0.75000  -0.00000   0.47963   0.00000  Uiso   1.00
C564   C     0.75000  -0.00000   0.52037   0.00000  Uiso   1.00
C565   C     0.75000   0.00000   0.97963   0.00000  Uiso   1.00
C566   C     0.75000   0.00000   0.02037   0.00000  Uiso   1.00
C567   C     0.50000   0.25000   0.97963   0.00000  Uiso   1.00
C568   C     0.50000   0.25000   0.02037   0.00000  Uiso   1.00
N569   N     0.65469   0.39970   0.17822   0.00000  Uiso   1.00
O570   O     0.68966   0.39623   0.17242   0.00000  Uiso   1.00
O571   O     0.63457   0.41491   0.15161   0.00000  Uiso   1.00
N572   N     0.84565   0.09970   0.82155   0.00000  Uiso   1.00
O573   O     0.81145   0.10645   0.82900   0.00000  Uiso   1.00
O574   O     0.86407   0.07845   0.84463   0.00000  Uiso   1.00
N575   N     0.60031   0.15470   0.17821   0.00000  Uiso   1.00
O576   O     0.60374   0.18966   0.17244   0.00000  Uiso   1.00
O577   O     0.58517   0.13459   0.15157   0.00000  Uiso   1.00
N578   N     0.89970   0.34531   0.82179   0.00000  Uiso   1.00
O579   O     0.89626   0.31035   0.82758   0.00000  Uiso   1.00
O580   O     0.91486   0.36543   0.84842   0.00000  Uiso   1.00
N581   N     0.84563   0.09973   0.17845   0.00000  Uiso   1.00
O582   O     0.81146   0.10657   0.17097   0.00000  Uiso   1.00
O583   O     0.86399   0.07838   0.15543   0.00000  Uiso   1.00
N584   N     0.65444   0.39999   0.82174   0.00000  Uiso   1.00
O585   O     0.68925   0.39580   0.82800   0.00000  Uiso   1.00
O586   O     0.63455   0.41678   0.84744   0.00000  Uiso   1.00
N587   N     0.90002   0.34552   0.17833   0.00000  Uiso   1.00
O588   O     0.89519   0.31084   0.17188   0.00000  Uiso   1.00
O589   O     0.91795   0.36505   0.15319   0.00000  Uiso   1.00
N590   N     0.60017   0.15456   0.82178   0.00000  Uiso   1.00
O591   O     0.60389   0.18946   0.82773   0.00000  Uiso   1.00
O592   O     0.58447   0.13450   0.84810   0.00000  Uiso   1.00
N593   N     0.65423   0.09961   0.82159   0.00000  Uiso   1.00
O594   O     0.68850   0.10604   0.82897   0.00000  Uiso   1.00
O595   O     0.63556   0.07881   0.84490   0.00000  Uiso   1.00
N596   N     0.84560   0.40011   0.17832   0.00000  Uiso   1.00
O597   O     0.81099   0.39495   0.17163   0.00000  Uiso   1.00
O598   O     0.86498   0.41879   0.15366   0.00000  Uiso   1.00
N599   N     0.59976   0.34567   0.82161   0.00000  Uiso   1.00
O600   O     0.60564   0.31125   0.82865   0.00000  Uiso   1.00
O601   O     0.57991   0.36464   0.84557   0.00000  Uiso   1.00
N602   N     0.89963   0.15475   0.17821   0.00000  Uiso   1.00
O603   O     0.89627   0.18972   0.17249   0.00000  Uiso   1.00
O604   O     0.91458   0.13461   0.15147   0.00000  Uiso   1.00
N605   N     0.84566   0.40029   0.82156   0.00000  Uiso   1.00
O606   O     0.81146   0.39354   0.82900   0.00000  Uiso   1.00
O607   O     0.86410   0.42148   0.84467   0.00000  Uiso   1.00
N608   N     0.65434   0.09971   0.17844   0.00000  Uiso   1.00
O609   O     0.68853   0.10646   0.17100   0.00000  Uiso   1.00
O610   O     0.63590   0.07850   0.15535   0.00000  Uiso   1.00
N611   N     0.89963   0.15474   0.82178   0.00000  Uiso   1.00
O612   O     0.89616   0.18970   0.82752   0.00000  Uiso   1.00
O613   O     0.91472   0.13465   0.84847   0.00000  Uiso   1.00
N614   N     0.59976   0.34560   0.17845   0.00000  Uiso   1.00
O615   O     0.60648   0.31140   0.17107   0.00000  Uiso   1.00
O616   O     0.57863   0.36404   0.15525   0.00000  Uiso   1.00
N617   N     0.90438   0.15027   0.67845   0.00000  Uiso   1.00
O618   O     0.93857   0.14350   0.67101   0.00000  Uiso   1.00
O619   O     0.88598   0.17154   0.65536   0.00000  Uiso   1.00
N620   N     0.59531   0.35030   0.32179   0.00000  Uiso   1.00
O621   O     0.56034   0.35375   0.32757   0.00000  Uiso   1.00
O622   O     0.61544   0.33515   0.34841   0.00000  Uiso   1.00
N623   N     0.85029   0.40468   0.67821   0.00000  Uiso   1.00
O624   O     0.85373   0.43964   0.67242   0.00000  Uiso   1.00
O625   O     0.83516   0.38455   0.65157   0.00000  Uiso   1.00
N626   N     0.64969   0.09529   0.32179   0.00000  Uiso   1.00
O627   O     0.64626   0.06033   0.32756   0.00000  Uiso   1.00
O628   O     0.66481   0.11541   0.34844   0.00000  Uiso   1.00
N629   N     0.59551   0.35006   0.67824   0.00000  Uiso   1.00
O630   O     0.56065   0.35401   0.67212   0.00000  Uiso   1.00
O631   O     0.61550   0.33377   0.65226   0.00000  Uiso   1.00
N632   N     0.90438   0.15026   0.32155   0.00000  Uiso   1.00
O633   O     0.93857   0.14347   0.32900   0.00000  Uiso   1.00
O634   O     0.88599   0.17153   0.34463   0.00000  Uiso   1.00
N635   N     0.64986   0.09549   0.67822   0.00000  Uiso   1.00
O636   O     0.64616   0.06059   0.67223   0.00000  Uiso   1.00
O637   O     0.66563   0.11557   0.65195   0.00000  Uiso   1.00
N638   N     0.84980   0.40433   0.32163   0.00000  Uiso   1.00
O639   O     0.85576   0.43872   0.32871   0.00000  Uiso   1.00
O640   O     0.82980   0.38540   0.34550   0.00000  Uiso   1.00
N641   N     0.90457   0.35009   0.32173   0.00000  Uiso   1.00
O642   O     0.93941   0.35422   0.32786   0.00000  Uiso   1.00
O643   O     0.88470   0.33352   0.34761   0.00000  Uiso   1.00
N644   N     0.59567   0.15031   0.67842   0.00000  Uiso   1.00
O645   O     0.56137   0.14393   0.67115   0.00000  Uiso   1.00
O646   O     0.61432   0.17101   0.65498   0.00000  Uiso   1.00
N647   N     0.85036   0.09525   0.32179   0.00000  Uiso   1.00
O648   O     0.85376   0.06028   0.32752   0.00000  Uiso   1.00
O649   O     0.83534   0.11537   0.34850   0.00000  Uiso   1.00
N650   N     0.65027   0.40432   0.67839   0.00000  Uiso   1.00
O651   O     0.64419   0.43869   0.67125   0.00000  Uiso   1.00
O652   O     0.67052   0.38549   0.65469   0.00000  Uiso   1.00
N653   N     0.59566   0.15028   0.32156   0.00000  Uiso   1.00
O654   O     0.56146   0.14354   0.32899   0.00000  Uiso   1.00
O655   O     0.61409   0.17150   0.34466   0.00000  Uiso   1.00
N656   N     0.90433   0.34970   0.67844   0.00000  Uiso   1.00
O657   O     0.93851   0.35650   0.67097   0.00000  Uiso   1.00
O658   O     0.88591   0.32844   0.65538   0.00000  Uiso   1.00
N659   N     0.65025   0.40439   0.32155   0.00000  Uiso   1.00
O660   O     0.64350   0.43858   0.32895   0.00000  Uiso   1.00
O661   O     0.67143   0.38597   0.34471   0.00000  Uiso   1.00
N662   N     0.85036   0.09526   0.67821   0.00000  Uiso   1.00
O663   O     0.85375   0.06030   0.67249   0.00000  Uiso   1.00
O664   O     0.83533   0.11539   0.65150   0.00000  Uiso   1.00
Zn665  Zn    0.20659   0.50000   0.21735   0.00000  Uiso   1.00
Zn666  Zn    0.29340   0.50000   0.78265   0.00000  Uiso   1.00
Zn667  Zn    0.00000   0.70660   0.21735   0.00000  Uiso   1.00
Zn668  Zn   -0.00000   0.79340   0.78265   0.00000  Uiso   1.00
Zn669  Zn    0.29340   0.50000   0.21735   0.00000  Uiso   1.00
Zn670  Zn    0.20659   0.50000   0.78265   0.00000  Uiso   1.00
Zn671  Zn    0.00000   0.79341   0.21735   0.00000  Uiso   1.00
Zn672  Zn    0.00000   0.70660   0.78265   0.00000  Uiso   1.00
Zn673  Zn    0.45659   0.75000   0.71735   0.00000  Uiso   1.00
Zn674  Zn    0.04340   0.75000   0.28265   0.00000  Uiso   1.00
Zn675  Zn    0.25000   0.95660   0.71735   0.00000  Uiso   1.00
Zn676  Zn    0.25000   0.54340   0.28265   0.00000  Uiso   1.00
Zn677  Zn    0.04340   0.75000   0.71735   0.00000  Uiso   1.00
Zn678  Zn    0.45659   0.75000   0.28265   0.00000  Uiso   1.00
Zn679  Zn    0.25000   0.54340   0.71735   0.00000  Uiso   1.00
Zn680  Zn    0.25000   0.95660   0.28265   0.00000  Uiso   1.00
C681   C     0.46680   0.75142   0.41881   0.00000  Uiso   1.00
C682   C     0.03320   0.74857   0.58119   0.00000  Uiso   1.00
C683   C     0.24837   0.53318   0.41880   0.00000  Uiso   1.00
C684   C     0.25163   0.96682   0.58120   0.00000  Uiso   1.00
C685   C     0.03321   0.74857   0.41881   0.00000  Uiso   1.00
C686   C     0.46679   0.75142   0.58119   0.00000  Uiso   1.00
C687   C     0.25163   0.96681   0.41882   0.00000  Uiso   1.00
C688   C     0.24837   0.53318   0.58118   0.00000  Uiso   1.00
C689   C     0.21677   0.50053   0.91881   0.00000  Uiso   1.00
C690   C     0.28323   0.99947   0.08119   0.00000  Uiso   1.00
C691   C     0.49749   0.78312   0.91880   0.00000  Uiso   1.00
C692   C     0.00251   0.71688   0.08120   0.00000  Uiso   1.00
C693   C     0.28323   0.99947   0.91881   0.00000  Uiso   1.00
C694   C     0.21677   0.50053   0.08119   0.00000  Uiso   1.00
C695   C     0.00251   0.71687   0.91881   0.00000  Uiso   1.00
C696   C     0.49749   0.78313   0.08119   0.00000  Uiso   1.00
C697   C     0.00000   0.75000   0.39848   0.00000  Uiso   1.00
C698   C    -0.00000   0.75000   0.60152   0.00000  Uiso   1.00
C699   C     0.25000   0.50000   0.39847   0.00000  Uiso   1.00
C700   C     0.25000   0.50000   0.60153   0.00000  Uiso   1.00
C701   C     0.25000   0.50000   0.89848   0.00000  Uiso   1.00
C702   C     0.25000   0.50000   0.10152   0.00000  Uiso   1.00
C703   C     0.00000   0.75000   0.89847   0.00000  Uiso   1.00
C704   C     0.00000   0.75001   0.10153   0.00000  Uiso   1.00
O705   O     0.25000   0.50000   0.25000   0.00000  Uiso   1.00
O706   O     0.25000   0.50000   0.75000   0.00000  Uiso   1.00
O707   O    -0.00000   0.75000   0.25000   0.00000  Uiso   1.00
O708   O     0.00000   0.75000   0.75000   0.00000  Uiso   1.00
O709   O     0.25000   0.96964   0.33755   0.00000  Uiso   1.00
O710   O     0.25000   0.53036   0.66245   0.00000  Uiso   1.00
O711   O     0.03036   0.75000   0.33755   0.00000  Uiso   1.00
O712   O     0.46963   0.75000   0.66245   0.00000  Uiso   1.00
O713   O     0.25000   0.53036   0.33755   0.00000  Uiso   1.00
O714   O     0.25000   0.96964   0.66245   0.00000  Uiso   1.00
O715   O     0.46963   0.75000   0.33755   0.00000  Uiso   1.00
O716   O     0.03036   0.75000   0.66245   0.00000  Uiso   1.00
O717   O     0.00000   0.71964   0.83755   0.00000  Uiso   1.00
O718   O    -0.00000   0.78036   0.16245   0.00000  Uiso   1.00
O719   O     0.28036   0.50000   0.83755   0.00000  Uiso   1.00
O720   O     0.21963   0.50000   0.16245   0.00000  Uiso   1.00
O721   O     0.00000   0.78037   0.83755   0.00000  Uiso   1.00
O722   O    -0.00000   0.71963   0.16245   0.00000  Uiso   1.00
O723   O     0.21963   0.50000   0.83755   0.00000  Uiso   1.00
O724   O     0.28036   0.50000   0.16245   0.00000  Uiso   1.00
H725   H     0.09237   0.74594   0.46446   0.00000  Uiso   1.00
H726   H     0.40763   0.75405   0.53554   0.00000  Uiso   1.00
H727   H     0.25463   0.90770   0.46447   0.00000  Uiso   1.00
H728   H     0.24536   0.59230   0.53553   0.00000  Uiso   1.00
H729   H     0.40763   0.75405   0.46443   0.00000  Uiso   1.00
H730   H     0.09236   0.74594   0.53557   0.00000  Uiso   1.00
H731   H     0.24536   0.59229   0.46442   0.00000  Uiso   1.00
H732   H     0.25463   0.90770   0.53558   0.00000  Uiso   1.00
H733   H     0.34244   0.99849   0.96446   0.00000  Uiso   1.00
H734   H     0.15756   0.50151   0.03554   0.00000  Uiso   1.00
H735   H     0.00713   0.65786   0.96447   0.00000  Uiso   1.00
H736   H     0.49287   0.84214   0.03553   0.00000  Uiso   1.00
H737   H     0.15756   0.50151   0.96443   0.00000  Uiso   1.00
H738   H     0.34244   0.99849   0.03557   0.00000  Uiso   1.00
H739   H     0.49287   0.84214   0.96442   0.00000  Uiso   1.00
H740   H     0.00714   0.65786   0.03558   0.00000  Uiso   1.00
O741   O     0.20724   0.57307   0.27302   0.00000  Uiso   1.00
O742   O     0.29275   0.92693   0.72698   0.00000  Uiso   1.00
O743   O     0.42692   0.70724   0.27302   0.00000  Uiso   1.00
O744   O     0.07307   0.79276   0.72698   0.00000  Uiso   1.00
O745   O     0.29275   0.92693   0.27302   0.00000  Uiso   1.00
O746   O     0.20724   0.57307   0.72698   0.00000  Uiso   1.00
O747   O     0.07307   0.79276   0.27302   0.00000  Uiso   1.00
O748   O     0.42692   0.70724   0.72698   0.00000  Uiso   1.00
O749   O     0.20724   0.92693   0.72698   0.00000  Uiso   1.00
O750   O     0.29275   0.57307   0.27302   0.00000  Uiso   1.00
O751   O     0.42692   0.79275   0.72698   0.00000  Uiso   1.00
O752   O     0.07307   0.70725   0.27302   0.00000  Uiso   1.00
O753   O     0.29275   0.57307   0.72698   0.00000  Uiso   1.00
O754   O     0.20724   0.92693   0.27302   0.00000  Uiso   1.00
O755   O     0.07307   0.70725   0.72698   0.00000  Uiso   1.00
O756   O     0.42692   0.79275   0.27302   0.00000  Uiso   1.00
O757   O     0.45724   0.82307   0.77302   0.00000  Uiso   1.00
O758   O     0.04275   0.67693   0.22698   0.00000  Uiso   1.00
O759   O     0.17692   0.95725   0.77302   0.00000  Uiso   1.00
O760   O     0.32307   0.54275   0.22698   0.00000  Uiso   1.00
O761   O     0.04275   0.67693   0.77302   0.00000  Uiso   1.00
O762   O     0.45724   0.82307   0.22698   0.00000  Uiso   1.00
O763   O     0.32307   0.54275   0.77302   0.00000  Uiso   1.00
O764   O     0.17692   0.95725   0.22698   0.00000  Uiso   1.00
O765   O     0.45724   0.67692   0.22698   0.00000  Uiso   1.00
O766   O     0.04275   0.82308   0.77302   0.00000  Uiso   1.00
O767   O     0.17692   0.54275   0.22698   0.00000  Uiso   1.00
O768   O     0.32307   0.95725   0.77302   0.00000  Uiso   1.00
O769   O     0.04275   0.82308   0.22698   0.00000  Uiso   1.00
O770   O     0.45724   0.67692   0.77302   0.00000  Uiso   1.00
O771   O     0.32307   0.95725   0.22698   0.00000  Uiso   1.00
O772   O     0.17692   0.54275   0.77302   0.00000  Uiso   1.00
C773   C     0.06652   0.74708   0.47976   0.00000  Uiso   1.00
C774   C     0.43348   0.75291   0.52024   0.00000  Uiso   1.00
C775   C     0.25333   0.93353   0.47977   0.00000  Uiso   1.00
C776   C     0.24666   0.56647   0.52023   0.00000  Uiso   1.00
C777   C     0.43348   0.75291   0.47975   0.00000  Uiso   1.00
C778   C     0.06652   0.74708   0.52025   0.00000  Uiso   1.00
C779   C     0.24666   0.56647   0.47974   0.00000  Uiso   1.00
C780   C     0.25333   0.93353   0.52026   0.00000  Uiso   1.00
C781   C     0.31657   0.99892   0.97976   0.00000  Uiso   1.00
C782   C     0.18343   0.50109   0.02024   0.00000  Uiso   1.00
C783   C     0.00513   0.68364   0.97977   0.00000  Uiso   1.00
C784   C     0.49488   0.81636   0.02023   0.00000  Uiso   1.00
C785   C     0.18343   0.50109   0.97975   0.00000  Uiso   1.00
C786   C     0.31657   0.99892   0.02025   0.00000  Uiso   1.00
C787   C     0.49488   0.81636   0.97974   0.00000  Uiso   1.00
C788   C     0.00513   0.68365   0.02026   0.00000  Uiso   1.00
C789   C     0.25000   0.50000   0.35600   0.00000  Uiso   1.00
C790   C     0.25000   0.50000   0.64400   0.00000  Uiso   1.00
C791   C     0.00000   0.75000   0.35600   0.00000  Uiso   1.00
C792   C    -0.00000   0.75000   0.64400   0.00000  Uiso   1.00
C793   C    -0.00000   0.75000   0.85600   0.00000  Uiso   1.00
C794   C     0.00000   0.75000   0.14400   0.00000  Uiso   1.00
C795   C     0.25000   0.50000   0.85600   0.00000  Uiso   1.00
C796   C     0.25000   0.50000   0.14400   0.00000  Uiso   1.00
C797   C     0.17997   0.56998   0.25001   0.00000  Uiso   1.00
C798   C     0.32003   0.93002   0.74999   0.00000  Uiso   1.00
C799   C     0.42997   0.68002   0.24999   0.00000  Uiso   1.00
C800   C     0.06999   0.82001   0.74999   0.00000  Uiso   1.00
C801   C     0.32000   0.92999   0.25000   0.00000  Uiso   1.00
C802   C     0.17998   0.56998   0.74999   0.00000  Uiso   1.00
C803   C     0.06999   0.82002   0.25001   0.00000  Uiso   1.00
C804   C     0.42997   0.68002   0.75001   0.00000  Uiso   1.00
C805   C     0.18000   0.92999   0.75001   0.00000  Uiso   1.00
C806   C     0.32003   0.56998   0.25001   0.00000  Uiso   1.00
C807   C     0.42997   0.81998   0.75001   0.00000  Uiso   1.00
C808   C     0.07003   0.68002   0.24999   0.00000  Uiso   1.00
C809   C     0.32003   0.56998   0.74999   0.00000  Uiso   1.00
C810   C     0.18001   0.92998   0.24999   0.00000  Uiso   1.00
C811   C     0.07002   0.68002   0.75001   0.00000  Uiso   1.00
C812   C     0.43000   0.82001   0.25001   0.00000  Uiso   1.00
C813   C     0.13876   0.88821   0.21434   0.00000  Uiso   1.00
C814   C     0.36141   0.61154   0.78555   0.00000  Uiso   1.00
C815   C     0.11179   0.63877   0.21434   0.00000  Uiso   1.00
C816   C     0.38822   0.86123   0.78566   0.00000  Uiso   1.00
C817   C     0.36141   0.61155   0.21445   0.00000  Uiso   1.00
C818   C     0.13863   0.88835   0.78563   0.00000  Uiso   1.00
C819   C     0.38838   0.86137   0.21440   0.00000  Uiso   1.00
C820   C     0.11171   0.63869   0.78565   0.00000  Uiso   1.00
C821   C     0.13853   0.61149   0.78556   0.00000  Uiso   1.00
C822   C     0.36139   0.88839   0.21440   0.00000  Uiso   1.00
C823   C     0.11153   0.86144   0.78557   0.00000  Uiso   1.00
C824   C     0.38818   0.63879   0.21434   0.00000  Uiso   1.00
C825   C     0.36143   0.88846   0.78555   0.00000  Uiso   1.00
C826   C     0.13857   0.61154   0.21445   0.00000  Uiso   1.00
C827   C     0.38819   0.63878   0.78565   0.00000  Uiso   1.00
C828   C     0.11156   0.86140   0.21445   0.00000  Uiso   1.00
C829   C     0.38860   0.63845   0.71445   0.00000  Uiso   1.00
C830   C     0.11124   0.86179   0.28566   0.00000  Uiso   1.00
C831   C     0.36178   0.88876   0.71435   0.00000  Uiso   1.00
C832   C     0.13821   0.61123   0.28566   0.00000  Uiso   1.00
C833   C     0.11135   0.86167   0.71436   0.00000  Uiso   1.00
C834   C     0.38860   0.63844   0.28555   0.00000  Uiso   1.00
C835   C     0.13829   0.61132   0.71435   0.00000  Uiso   1.00
C836   C     0.36158   0.88858   0.28559   0.00000  Uiso   1.00
C837   C     0.38868   0.86167   0.28563   0.00000  Uiso   1.00
C838   C     0.11144   0.63849   0.71444   0.00000  Uiso   1.00
C839   C     0.36181   0.61121   0.28566   0.00000  Uiso   1.00
C840   C     0.13847   0.88856   0.71442   0.00000  Uiso   1.00
C841   C     0.11142   0.63846   0.28555   0.00000  Uiso   1.00
C842   C     0.38857   0.86153   0.71445   0.00000  Uiso   1.00
C843   C     0.13844   0.88860   0.28555   0.00000  Uiso   1.00
C844   C     0.36181   0.61121   0.71434   0.00000  Uiso   1.00
C845   C     0.03344   0.74854   0.45929   0.00000  Uiso   1.00
C846   C     0.46656   0.75145   0.54071   0.00000  Uiso   1.00
C847   C     0.25166   0.96658   0.45930   0.00000  Uiso   1.00
C848   C     0.24833   0.53341   0.54070   0.00000  Uiso   1.00
C849   C     0.46656   0.75145   0.45929   0.00000  Uiso   1.00
C850   C     0.03343   0.74854   0.54071   0.00000  Uiso   1.00
C851   C     0.24833   0.53341   0.45928   0.00000  Uiso   1.00
C852   C     0.25166   0.96659   0.54072   0.00000  Uiso   1.00
C853   C     0.28346   0.99946   0.95929   0.00000  Uiso   1.00
C854   C     0.21654   0.50054   0.04071   0.00000  Uiso   1.00
C855   C     0.00256   0.71664   0.95930   0.00000  Uiso   1.00
C856   C     0.49745   0.78336   0.04070   0.00000  Uiso   1.00
C857   C     0.21654   0.50054   0.95929   0.00000  Uiso   1.00
C858   C     0.28346   0.99946   0.04071   0.00000  Uiso   1.00
C859   C     0.49745   0.78336   0.95928   0.00000  Uiso   1.00
C860   C     0.00256   0.71665   0.04072   0.00000  Uiso   1.00
H861   H     0.44110   0.75257   0.40318   0.00000  Uiso   1.00
H862   H     0.05890   0.74742   0.59682   0.00000  Uiso   1.00
H863   H     0.24705   0.55886   0.40317   0.00000  Uiso   1.00
H864   H     0.25294   0.94114   0.59683   0.00000  Uiso   1.00
H865   H     0.05890   0.74743   0.40319   0.00000  Uiso   1.00
H866   H     0.44109   0.75257   0.59681   0.00000  Uiso   1.00
H867   H     0.25294   0.94113   0.40319   0.00000  Uiso   1.00
H868   H     0.24705   0.55886   0.59681   0.00000  Uiso   1.00
H869   H     0.19105   0.50096   0.90318   0.00000  Uiso   1.00
H870   H     0.30895   0.99905   0.09682   0.00000  Uiso   1.00
H871   H     0.49548   0.80876   0.90316   0.00000  Uiso   1.00
H872   H     0.00453   0.69125   0.09684   0.00000  Uiso   1.00
H873   H     0.30895   0.99905   0.90319   0.00000  Uiso   1.00
H874   H     0.19105   0.50096   0.09681   0.00000  Uiso   1.00
H875   H     0.00452   0.69124   0.90319   0.00000  Uiso   1.00
H876   H     0.49548   0.80876   0.09681   0.00000  Uiso   1.00
C877   C     0.09797   0.84821   0.25006   0.00000  Uiso   1.00
C878   C     0.40177   0.65205   0.75006   0.00000  Uiso   1.00
C879   C     0.15176   0.59794   0.25006   0.00000  Uiso   1.00
C880   C     0.34823   0.90205   0.74994   0.00000  Uiso   1.00
C881   C     0.40176   0.65206   0.24994   0.00000  Uiso   1.00
C882   C     0.09802   0.84816   0.74996   0.00000  Uiso   1.00
C883   C     0.34807   0.90189   0.24999   0.00000  Uiso   1.00
C884   C     0.15179   0.59797   0.74995   0.00000  Uiso   1.00
C885   C     0.09820   0.65202   0.75005   0.00000  Uiso   1.00
C886   C     0.40194   0.84811   0.25002   0.00000  Uiso   1.00
C887   C     0.15197   0.90185   0.75003   0.00000  Uiso   1.00
C888   C     0.34824   0.59794   0.25006   0.00000  Uiso   1.00
C889   C     0.40176   0.84794   0.75006   0.00000  Uiso   1.00
C890   C     0.09823   0.65206   0.24994   0.00000  Uiso   1.00
C891   C     0.34824   0.59794   0.74994   0.00000  Uiso   1.00
C892   C     0.15203   0.90179   0.24994   0.00000  Uiso   1.00
C893   C    -0.00000   0.74999   0.47963   0.00000  Uiso   1.00
C894   C    -0.00000   0.74999   0.52037   0.00000  Uiso   1.00
C895   C     0.25000   0.50000   0.47963   0.00000  Uiso   1.00
C896   C     0.25000   0.50000   0.52037   0.00000  Uiso   1.00
C897   C     0.25000   0.50000   0.97963   0.00000  Uiso   1.00
C898   C     0.25000   0.50000   0.02037   0.00000  Uiso   1.00
C899   C     0.00000   0.75000   0.97963   0.00000  Uiso   1.00
C900   C     0.00000   0.75000   0.02037   0.00000  Uiso   1.00
N901   N     0.15469   0.89970   0.17822   0.00000  Uiso   1.00
O902   O     0.18966   0.89623   0.17242   0.00000  Uiso   1.00
O903   O     0.13457   0.91491   0.15161   0.00000  Uiso   1.00
N904   N     0.34565   0.59970   0.82155   0.00000  Uiso   1.00
O905   O     0.31145   0.60645   0.82900   0.00000  Uiso   1.00
O906   O     0.36407   0.57845   0.84463   0.00000  Uiso   1.00
N907   N     0.10031   0.65470   0.17821   0.00000  Uiso   1.00
O908   O     0.10374   0.68966   0.17244   0.00000  Uiso   1.00
O909   O     0.08517   0.63459   0.15157   0.00000  Uiso   1.00
N910   N     0.39970   0.84531   0.82179   0.00000  Uiso   1.00
O911   O     0.39626   0.81035   0.82758   0.00000  Uiso   1.00
O912   O     0.41486   0.86543   0.84842   0.00000  Uiso   1.00
N913   N     0.34563   0.59973   0.17845   0.00000  Uiso   1.00
O914   O     0.31146   0.60657   0.17097   0.00000  Uiso   1.00
O915   O     0.36399   0.57838   0.15543   0.00000  Uiso   1.00
N916   N     0.15444   0.89999   0.82174   0.00000  Uiso   1.00
O917   O     0.18925   0.89580   0.82800   0.00000  Uiso   1.00
O918   O     0.13455   0.91678   0.84744   0.00000  Uiso   1.00
N919   N     0.40002   0.84552   0.17833   0.00000  Uiso   1.00
O920   O     0.39519   0.81084   0.17188   0.00000  Uiso   1.00
O921   O     0.41795   0.86505   0.15319   0.00000  Uiso   1.00
N922   N     0.10017   0.65456   0.82178   0.00000  Uiso   1.00
O923   O     0.10389   0.68946   0.82773   0.00000  Uiso   1.00
O924   O     0.08447   0.63450   0.84810   0.00000  Uiso   1.00
N925   N     0.15423   0.59961   0.82159   0.00000  Uiso   1.00
O926   O     0.18850   0.60604   0.82897   0.00000  Uiso   1.00
O927   O     0.13556   0.57881   0.84490   0.00000  Uiso   1.00
N928   N     0.34560   0.90011   0.17832   0.00000  Uiso   1.00
O929   O     0.31099   0.89495   0.17163   0.00000  Uiso   1.00
O930   O     0.36498   0.91879   0.15366   0.00000  Uiso   1.00
N931   N     0.09976   0.84567   0.82161   0.00000  Uiso   1.00
O932   O     0.10564   0.81125   0.82865   0.00000  Uiso   1.00
O933   O     0.07991   0.86464   0.84557   0.00000  Uiso   1.00
N934   N     0.39963   0.65475   0.17821   0.00000  Uiso   1.00
O935   O     0.39627   0.68972   0.17249   0.00000  Uiso   1.00
O936   O     0.41458   0.63461   0.15147   0.00000  Uiso   1.00
N937   N     0.34566   0.90029   0.82156   0.00000  Uiso   1.00
O938   O     0.31146   0.89354   0.82900   0.00000  Uiso   1.00
O939   O     0.36410   0.92148   0.84467   0.00000  Uiso   1.00
N940   N     0.15434   0.59971   0.17844   0.00000  Uiso   1.00
O941   O     0.18853   0.60646   0.17100   0.00000  Uiso   1.00
O942   O     0.13590   0.57850   0.15535   0.00000  Uiso   1.00
N943   N     0.39963   0.65474   0.82178   0.00000  Uiso   1.00
O944   O     0.39616   0.68970   0.82752   0.00000  Uiso   1.00
O945   O     0.41472   0.63465   0.84847   0.00000  Uiso   1.00
N946   N     0.09976   0.84560   0.17845   0.00000  Uiso   1.00
O947   O     0.10648   0.81140   0.17107   0.00000  Uiso   1.00
O948   O     0.07863   0.86404   0.15525   0.00000  Uiso   1.00
N949   N     0.40438   0.65027   0.67845   0.00000  Uiso   1.00
O950   O     0.43857   0.64350   0.67101   0.00000  Uiso   1.00
O951   O     0.38598   0.67154   0.65536   0.00000  Uiso   1.00
N952   N     0.09531   0.85030   0.32179   0.00000  Uiso   1.00
O953   O     0.06034   0.85375   0.32757   0.00000  Uiso   1.00
O954   O     0.11544   0.83515   0.34841   0.00000  Uiso   1.00
N955   N     0.35029   0.90468   0.67821   0.00000  Uiso   1.00
O956   O     0.35373   0.93964   0.67242   0.00000  Uiso   1.00
O957   O     0.33516   0.88455   0.65157   0.00000  Uiso   1.00
N958   N     0.14969   0.59529   0.32179   0.00000  Uiso   1.00
O959   O     0.14626   0.56033   0.32756   0.00000  Uiso   1.00
O960   O     0.16481   0.61541   0.34844   0.00000  Uiso   1.00
N961   N     0.09551   0.85006   0.67824   0.00000  Uiso   1.00
O962   O     0.06065   0.85401   0.67212   0.00000  Uiso   1.00
O963   O     0.11550   0.83377   0.65226   0.00000  Uiso   1.00
N964   N     0.40438   0.65026   0.32155   0.00000  Uiso   1.00
O965   O     0.43857   0.64347   0.32900   0.00000  Uiso   1.00
O966   O     0.38599   0.67153   0.34463   0.00000  Uiso   1.00
N967   N     0.14986   0.59549   0.67822   0.00000  Uiso   1.00
O968   O     0.14616   0.56059   0.67223   0.00000  Uiso   1.00
O969   O     0.16563   0.61557   0.65195   0.00000  Uiso   1.00
N970   N     0.34980   0.90433   0.32163   0.00000  Uiso   1.00
O971   O     0.35576   0.93872   0.32871   0.00000  Uiso   1.00
O972   O     0.32980   0.88540   0.34550   0.00000  Uiso   1.00
N973   N     0.40457   0.85009   0.32173   0.00000  Uiso   1.00
O974   O     0.43941   0.85422   0.32786   0.00000  Uiso   1.00
O975   O     0.38470   0.83352   0.34761   0.00000  Uiso   1.00
N976   N     0.09567   0.65031   0.67842   0.00000  Uiso   1.00
O977   O     0.06137   0.64393   0.67115   0.00000  Uiso   1.00
O978   O     0.11432   0.67101   0.65498   0.00000  Uiso   1.00
N979   N     0.35036   0.59525   0.32179   0.00000  Uiso   1.00
O980   O     0.35376   0.56028   0.32752   0.00000  Uiso   1.00
O981   O     0.33534   0.61537   0.34850   0.00000  Uiso   1.00
N982   N     0.15027   0.90432   0.67839   0.00000  Uiso   1.00
O983   O     0.14419   0.93869   0.67125   0.00000  Uiso   1.00
O984   O     0.17052   0.88549   0.65469   0.00000  Uiso   1.00
N985   N     0.09566   0.65028   0.32156   0.00000  Uiso   1.00
O986   O     0.06146   0.64354   0.32899   0.00000  Uiso   1.00
O987   O     0.11409   0.67150   0.34466   0.00000  Uiso   1.00
N988   N     0.40433   0.84970   0.67844   0.00000  Uiso   1.00
O989   O     0.43851   0.85650   0.67097   0.00000  Uiso   1.00
O990   O     0.38591   0.82844   0.65538   0.00000  Uiso   1.00
N991   N     0.15025   0.90439   0.32155   0.00000  Uiso   1.00
O992   O     0.14350   0.93858   0.32895   0.00000  Uiso   1.00
O993   O     0.17143   0.88597   0.34471   0.00000  Uiso   1.00
N994   N     0.35036   0.59526   0.67821   0.00000  Uiso   1.00
O995   O     0.35375   0.56030   0.67249   0.00000  Uiso   1.00
O996   O     0.33533   0.61539   0.65150   0.00000  Uiso   1.00
Zn997  Zn    0.70659   0.50000   0.21735   0.00000  Uiso   1.00
Zn998  Zn    0.79340   0.50000   0.78265   0.00000  Uiso   1.00
Zn999  Zn    0.50000   0.70660   0.21735   0.00000  Uiso   1.00
Zn1000 Zn    0.50000   0.79340   0.78265   0.00000  Uiso   1.00
Zn1001 Zn    0.79340   0.50000   0.21735   0.00000  Uiso   1.00
Zn1002 Zn    0.70659   0.50000   0.78265   0.00000  Uiso   1.00
Zn1003 Zn    0.50000   0.79341   0.21735   0.00000  Uiso   1.00
Zn1004 Zn    0.50000   0.70660   0.78265   0.00000  Uiso   1.00
Zn1005 Zn    0.95659   0.75000   0.71735   0.00000  Uiso   1.00
Zn1006 Zn    0.54340   0.75000   0.28265   0.00000  Uiso   1.00
Zn1007 Zn    0.75000   0.95660   0.71735   0.00000  Uiso   1.00
Zn1008 Zn    0.75000   0.54340   0.28265   0.00000  Uiso   1.00
Zn1009 Zn    0.54340   0.75000   0.71735   0.00000  Uiso   1.00
Zn1010 Zn    0.95659   0.75000   0.28265   0.00000  Uiso   1.00
Zn1011 Zn    0.75000   0.54340   0.71735   0.00000  Uiso   1.00
Zn1012 Zn    0.75000   0.95660   0.28265   0.00000  Uiso   1.00
C1013  C     0.96680   0.75142   0.41881   0.00000  Uiso   1.00
C1014  C     0.53320   0.74857   0.58119   0.00000  Uiso   1.00
C1015  C     0.74837   0.53318   0.41880   0.00000  Uiso   1.00
C1016  C     0.75163   0.96682   0.58120   0.00000  Uiso   1.00
C1017  C     0.53321   0.74857   0.41881   0.00000  Uiso   1.00
C1018  C     0.96679   0.75142   0.58119   0.00000  Uiso   1.00
C1019  C     0.75163   0.96681   0.41882   0.00000  Uiso   1.00
C1020  C     0.74837   0.53318   0.58118   0.00000  Uiso   1.00
C1021  C     0.71677   0.50053   0.91881   0.00000  Uiso   1.00
C1022  C     0.78323   0.99947   0.08119   0.00000  Uiso   1.00
C1023  C     0.99749   0.78312   0.91880   0.00000  Uiso   1.00
C1024  C     0.50251   0.71688   0.08120   0.00000  Uiso   1.00
C1025  C     0.78323   0.99947   0.91881   0.00000  Uiso   1.00
C1026  C     0.71677   0.50053   0.08119   0.00000  Uiso   1.00
C1027  C     0.50251   0.71687   0.91881   0.00000  Uiso   1.00
C1028  C     0.99749   0.78313   0.08119   0.00000  Uiso   1.00
C1029  C     0.50000   0.75000   0.39848   0.00000  Uiso   1.00
C1030  C     0.50000   0.75000   0.60152   0.00000  Uiso   1.00
C1031  C     0.75000   0.50000   0.39847   0.00000  Uiso   1.00
C1032  C     0.75000   0.50000   0.60153   0.00000  Uiso   1.00
C1033  C     0.75000   0.50000   0.89848   0.00000  Uiso   1.00
C1034  C     0.75000   0.50000   0.10152   0.00000  Uiso   1.00
C1035  C     0.50000   0.75000   0.89847   0.00000  Uiso   1.00
C1036  C     0.50000   0.75001   0.10153   0.00000  Uiso   1.00
O1037  O     0.75000   0.50000   0.25000   0.00000  Uiso   1.00
O1038  O     0.75000   0.50000   0.75000   0.00000  Uiso   1.00
O1039  O     0.50000   0.75000   0.25000   0.00000  Uiso   1.00
O1040  O     0.50000   0.75000   0.75000   0.00000  Uiso   1.00
O1041  O     0.75000   0.96964   0.33755   0.00000  Uiso   1.00
O1042  O     0.75000   0.53036   0.66245   0.00000  Uiso   1.00
O1043  O     0.53036   0.75000   0.33755   0.00000  Uiso   1.00
O1044  O     0.96963   0.75000   0.66245   0.00000  Uiso   1.00
O1045  O     0.75000   0.53036   0.33755   0.00000  Uiso   1.00
O1046  O     0.75000   0.96964   0.66245   0.00000  Uiso   1.00
O1047  O     0.96963   0.75000   0.33755   0.00000  Uiso   1.00
O1048  O     0.53036   0.75000   0.66245   0.00000  Uiso   1.00
O1049  O     0.50000   0.71964   0.83755   0.00000  Uiso   1.00
O1050  O     0.50000   0.78036   0.16245   0.00000  Uiso   1.00
O1051  O     0.78036   0.50000   0.83755   0.00000  Uiso   1.00
O1052  O     0.71963   0.50000   0.16245   0.00000  Uiso   1.00
O1053  O     0.50000   0.78037   0.83755   0.00000  Uiso   1.00
O1054  O     0.50000   0.71963   0.16245   0.00000  Uiso   1.00
O1055  O     0.71963   0.50000   0.83755   0.00000  Uiso   1.00
O1056  O     0.78036   0.50000   0.16245   0.00000  Uiso   1.00
H1057  H     0.59237   0.74594   0.46446   0.00000  Uiso   1.00
H1058  H     0.90763   0.75405   0.53554   0.00000  Uiso   1.00
H1059  H     0.75463   0.90770   0.46447   0.00000  Uiso   1.00
H1060  H     0.74536   0.59230   0.53553   0.00000  Uiso   1.00
H1061  H     0.90763   0.75405   0.46443   0.00000  Uiso   1.00
H1062  H     0.59236   0.74594   0.53557   0.00000  Uiso   1.00
H1063  H     0.74536   0.59229   0.46442   0.00000  Uiso   1.00
H1064  H     0.75463   0.90770   0.53558   0.00000  Uiso   1.00
H1065  H     0.84244   0.99849   0.96446   0.00000  Uiso   1.00
H1066  H     0.65756   0.50151   0.03554   0.00000  Uiso   1.00
H1067  H     0.50713   0.65786   0.96447   0.00000  Uiso   1.00
H1068  H     0.99287   0.84214   0.03553   0.00000  Uiso   1.00
H1069  H     0.65756   0.50151   0.96443   0.00000  Uiso   1.00
H1070  H     0.84244   0.99849   0.03557   0.00000  Uiso   1.00
H1071  H     0.99287   0.84214   0.96442   0.00000  Uiso   1.00
H1072  H     0.50714   0.65786   0.03558   0.00000  Uiso   1.00
O1073  O     0.70724   0.57307   0.27302   0.00000  Uiso   1.00
O1074  O     0.79275   0.92693   0.72698   0.00000  Uiso   1.00
O1075  O     0.92692   0.70724   0.27302   0.00000  Uiso   1.00
O1076  O     0.57307   0.79276   0.72698   0.00000  Uiso   1.00
O1077  O     0.79275   0.92693   0.27302   0.00000  Uiso   1.00
O1078  O     0.70724   0.57307   0.72698   0.00000  Uiso   1.00
O1079  O     0.57307   0.79276   0.27302   0.00000  Uiso   1.00
O1080  O     0.92692   0.70724   0.72698   0.00000  Uiso   1.00
O1081  O     0.70724   0.92693   0.72698   0.00000  Uiso   1.00
O1082  O     0.79275   0.57307   0.27302   0.00000  Uiso   1.00
O1083  O     0.92692   0.79275   0.72698   0.00000  Uiso   1.00
O1084  O     0.57307   0.70725   0.27302   0.00000  Uiso   1.00
O1085  O     0.79275   0.57307   0.72698   0.00000  Uiso   1.00
O1086  O     0.70724   0.92693   0.27302   0.00000  Uiso   1.00
O1087  O     0.57307   0.70725   0.72698   0.00000  Uiso   1.00
O1088  O     0.92692   0.79275   0.27302   0.00000  Uiso   1.00
O1089  O     0.95724   0.82307   0.77302   0.00000  Uiso   1.00
O1090  O     0.54275   0.67693   0.22698   0.00000  Uiso   1.00
O1091  O     0.67692   0.95725   0.77302   0.00000  Uiso   1.00
O1092  O     0.82307   0.54275   0.22698   0.00000  Uiso   1.00
O1093  O     0.54275   0.67693   0.77302   0.00000  Uiso   1.00
O1094  O     0.95724   0.82307   0.22698   0.00000  Uiso   1.00
O1095  O     0.82307   0.54275   0.77302   0.00000  Uiso   1.00
O1096  O     0.67692   0.95725   0.22698   0.00000  Uiso   1.00
O1097  O     0.95724   0.67692   0.22698   0.00000  Uiso   1.00
O1098  O     0.54275   0.82308   0.77302   0.00000  Uiso   1.00
O1099  O     0.67692   0.54275   0.22698   0.00000  Uiso   1.00
O1100  O     0.82307   0.95725   0.77302   0.00000  Uiso   1.00
O1101  O     0.54275   0.82308   0.22698   0.00000  Uiso   1.00
O1102  O     0.95724   0.67692   0.77302   0.00000  Uiso   1.00
O1103  O     0.82307   0.95725   0.22698   0.00000  Uiso   1.00
O1104  O     0.67692   0.54275   0.77302   0.00000  Uiso   1.00
C1105  C     0.56652   0.74708   0.47976   0.00000  Uiso   1.00
C1106  C     0.93348   0.75291   0.52024   0.00000  Uiso   1.00
C1107  C     0.75333   0.93353   0.47977   0.00000  Uiso   1.00
C1108  C     0.74666   0.56647   0.52023   0.00000  Uiso   1.00
C1109  C     0.93348   0.75291   0.47975   0.00000  Uiso   1.00
C1110  C     0.56652   0.74708   0.52025   0.00000  Uiso   1.00
C1111  C     0.74666   0.56647   0.47974   0.00000  Uiso   1.00
C1112  C     0.75333   0.93353   0.52026   0.00000  Uiso   1.00
C1113  C     0.81657   0.99892   0.97976   0.00000  Uiso   1.00
C1114  C     0.68343   0.50109   0.02024   0.00000  Uiso   1.00
C1115  C     0.50513   0.68364   0.97977   0.00000  Uiso   1.00
C1116  C     0.99488   0.81636   0.02023   0.00000  Uiso   1.00
C1117  C     0.68343   0.50109   0.97975   0.00000  Uiso   1.00
C1118  C     0.81657   0.99892   0.02025   0.00000  Uiso   1.00
C1119  C     0.99488   0.81636   0.97974   0.00000  Uiso   1.00
C1120  C     0.50513   0.68365   0.02026   0.00000  Uiso   1.00
C1121  C     0.75000   0.50000   0.35600   0.00000  Uiso   1.00
C1122  C     0.75000   0.50000   0.64400   0.00000  Uiso   1.00
C1123  C     0.50000   0.75000   0.35600   0.00000  Uiso   1.00
C1124  C     0.50000   0.75000   0.64400   0.00000  Uiso   1.00
C1125  C     0.50000   0.75000   0.85600   0.00000  Uiso   1.00
C1126  C     0.50000   0.75000   0.14400   0.00000  Uiso   1.00
C1127  C     0.75000   0.50000   0.85600   0.00000  Uiso   1.00
C1128  C     0.75000   0.50000   0.14400   0.00000  Uiso   1.00
C1129  C     0.67997   0.56998   0.25001   0.00000  Uiso   1.00
C1130  C     0.82003   0.93002   0.74999   0.00000  Uiso   1.00
C1131  C     0.92997   0.68002   0.24999   0.00000  Uiso   1.00
C1132  C     0.56999   0.82001   0.74999   0.00000  Uiso   1.00
C1133  C     0.82000   0.92999   0.25000   0.00000  Uiso   1.00
C1134  C     0.67998   0.56998   0.74999   0.00000  Uiso   1.00
C1135  C     0.56999   0.82002   0.25001   0.00000  Uiso   1.00
C1136  C     0.92997   0.68002   0.75001   0.00000  Uiso   1.00
C1137  C     0.68000   0.92999   0.75001   0.00000  Uiso   1.00
C1138  C     0.82003   0.56998   0.25001   0.00000  Uiso   1.00
C1139  C     0.92997   0.81998   0.75001   0.00000  Uiso   1.00
C1140  C     0.57003   0.68002   0.24999   0.00000  Uiso   1.00
C1141  C     0.82003   0.56998   0.74999   0.00000  Uiso   1.00
C1142  C     0.68001   0.92998   0.24999   0.00000  Uiso   1.00
C1143  C     0.57002   0.68002   0.75001   0.00000  Uiso   1.00
C1144  C     0.93000   0.82001   0.25001   0.00000  Uiso   1.00
C1145  C     0.63876   0.88821   0.21434   0.00000  Uiso   1.00
C1146  C     0.86141   0.61154   0.78555   0.00000  Uiso   1.00
C1147  C     0.61179   0.63877   0.21434   0.00000  Uiso   1.00
C1148  C     0.88822   0.86123   0.78566   0.00000  Uiso   1.00
C1149  C     0.86141   0.61155   0.21445   0.00000  Uiso   1.00
C1150  C     0.63863   0.88835   0.78563   0.00000  Uiso   1.00
C1151  C     0.88838   0.86137   0.21440   0.00000  Uiso   1.00
C1152  C     0.61171   0.63869   0.78565   0.00000  Uiso   1.00
C1153  C     0.63853   0.61149   0.78556   0.00000  Uiso   1.00
C1154  C     0.86139   0.88839   0.21440   0.00000  Uiso   1.00
C1155  C     0.61153   0.86144   0.78557   0.00000  Uiso   1.00
C1156  C     0.88818   0.63879   0.21434   0.00000  Uiso   1.00
C1157  C     0.86143   0.88846   0.78555   0.00000  Uiso   1.00
C1158  C     0.63857   0.61154   0.21445   0.00000  Uiso   1.00
C1159  C     0.88819   0.63878   0.78565   0.00000  Uiso   1.00
C1160  C     0.61156   0.86140   0.21445   0.00000  Uiso   1.00
C1161  C     0.88860   0.63845   0.71445   0.00000  Uiso   1.00
C1162  C     0.61124   0.86179   0.28566   0.00000  Uiso   1.00
C1163  C     0.86178   0.88876   0.71435   0.00000  Uiso   1.00
C1164  C     0.63821   0.61123   0.28566   0.00000  Uiso   1.00
C1165  C     0.61135   0.86167   0.71436   0.00000  Uiso   1.00
C1166  C     0.88860   0.63844   0.28555   0.00000  Uiso   1.00
C1167  C     0.63829   0.61132   0.71435   0.00000  Uiso   1.00
C1168  C     0.86158   0.88858   0.28559   0.00000  Uiso   1.00
C1169  C     0.88868   0.86167   0.28563   0.00000  Uiso   1.00
C1170  C     0.61144   0.63849   0.71444   0.00000  Uiso   1.00
C1171  C     0.86181   0.61121   0.28566   0.00000  Uiso   1.00
C1172  C     0.63847   0.88856   0.71442   0.00000  Uiso   1.00
C1173  C     0.61142   0.63846   0.28555   0.00000  Uiso   1.00
C1174  C     0.88857   0.86153   0.71445   0.00000  Uiso   1.00
C1175  C     0.63844   0.88860   0.28555   0.00000  Uiso   1.00
C1176  C     0.86181   0.61121   0.71434   0.00000  Uiso   1.00
C1177  C     0.53344   0.74854   0.45929   0.00000  Uiso   1.00
C1178  C     0.96656   0.75145   0.54071   0.00000  Uiso   1.00
C1179  C     0.75166   0.96658   0.45930   0.00000  Uiso   1.00
C1180  C     0.74833   0.53341   0.54070   0.00000  Uiso   1.00
C1181  C     0.96656   0.75145   0.45929   0.00000  Uiso   1.00
C1182  C     0.53343   0.74854   0.54071   0.00000  Uiso   1.00
C1183  C     0.74833   0.53341   0.45928   0.00000  Uiso   1.00
C1184  C     0.75166   0.96659   0.54072   0.00000  Uiso   1.00
C1185  C     0.78346   0.99946   0.95929   0.00000  Uiso   1.00
C1186  C     0.71654   0.50054   0.04071   0.00000  Uiso   1.00
C1187  C     0.50256   0.71664   0.95930   0.00000  Uiso   1.00
C1188  C     0.99745   0.78336   0.04070   0.00000  Uiso   1.00
C1189  C     0.71654   0.50054   0.95929   0.00000  Uiso   1.00
C1190  C     0.78346   0.99946   0.04071   0.00000  Uiso   1.00
C1191  C     0.99745   0.78336   0.95928   0.00000  Uiso   1.00
C1192  C     0.50256   0.71665   0.04072   0.00000  Uiso   1.00
H1193  H     0.94110   0.75257   0.40318   0.00000  Uiso   1.00
H1194  H     0.55890   0.74742   0.59682   0.00000  Uiso   1.00
H1195  H     0.74705   0.55886   0.40317   0.00000  Uiso   1.00
H1196  H     0.75294   0.94114   0.59683   0.00000  Uiso   1.00
H1197  H     0.55890   0.74743   0.40319   0.00000  Uiso   1.00
H1198  H     0.94109   0.75257   0.59681   0.00000  Uiso   1.00
H1199  H     0.75294   0.94113   0.40319   0.00000  Uiso   1.00
H1200  H     0.74705   0.55886   0.59681   0.00000  Uiso   1.00
H1201  H     0.69105   0.50096   0.90318   0.00000  Uiso   1.00
H1202  H     0.80895   0.99905   0.09682   0.00000  Uiso   1.00
H1203  H     0.99548   0.80876   0.90316   0.00000  Uiso   1.00
H1204  H     0.50453   0.69125   0.09684   0.00000  Uiso   1.00
H1205  H     0.80895   0.99905   0.90319   0.00000  Uiso   1.00
H1206  H     0.69105   0.50096   0.09681   0.00000  Uiso   1.00
H1207  H     0.50452   0.69124   0.90319   0.00000  Uiso   1.00
H1208  H     0.99548   0.80876   0.09681   0.00000  Uiso   1.00
C1209  C     0.59797   0.84821   0.25006   0.00000  Uiso   1.00
C1210  C     0.90177   0.65205   0.75006   0.00000  Uiso   1.00
C1211  C     0.65176   0.59794   0.25006   0.00000  Uiso   1.00
C1212  C     0.84823   0.90205   0.74994   0.00000  Uiso   1.00
C1213  C     0.90176   0.65206   0.24994   0.00000  Uiso   1.00
C1214  C     0.59802   0.84816   0.74996   0.00000  Uiso   1.00
C1215  C     0.84807   0.90189   0.24999   0.00000  Uiso   1.00
C1216  C     0.65179   0.59797   0.74995   0.00000  Uiso   1.00
C1217  C     0.59820   0.65202   0.75005   0.00000  Uiso   1.00
C1218  C     0.90194   0.84811   0.25002   0.00000  Uiso   1.00
C1219  C     0.65197   0.90185   0.75003   0.00000  Uiso   1.00
C1220  C     0.84824   0.59794   0.25006   0.00000  Uiso   1.00
C1221  C     0.90176   0.84794   0.75006   0.00000  Uiso   1.00
C1222  C     0.59823   0.65206   0.24994   0.00000  Uiso   1.00
C1223  C     0.84824   0.59794   0.74994   0.00000  Uiso   1.00
C1224  C     0.65203   0.90179   0.24994   0.00000  Uiso   1.00
C1225  C     0.50000   0.74999   0.47963   0.00000  Uiso   1.00
C1226  C     0.50000   0.74999   0.52037   0.00000  Uiso   1.00
C1227  C     0.75000   0.50000   0.47963   0.00000  Uiso   1.00
C1228  C     0.75000   0.50000   0.52037   0.00000  Uiso   1.00
C1229  C     0.75000   0.50000   0.97963   0.00000  Uiso   1.00
C1230  C     0.75000   0.50000   0.02037   0.00000  Uiso   1.00
C1231  C     0.50000   0.75000   0.97963   0.00000  Uiso   1.00
C1232  C     0.50000   0.75000   0.02037   0.00000  Uiso   1.00
N1233  N     0.65469   0.89970   0.17822   0.00000  Uiso   1.00
O1234  O     0.68966   0.89623   0.17242   0.00000  Uiso   1.00
O1235  O     0.63457   0.91491   0.15161   0.00000  Uiso   1.00
N1236  N     0.84565   0.59970   0.82155   0.00000  Uiso   1.00
O1237  O     0.81145   0.60645   0.82900   0.00000  Uiso   1.00
O1238  O     0.86407   0.57845   0.84463   0.00000  Uiso   1.00
N1239  N     0.60031   0.65470   0.17821   0.00000  Uiso   1.00
O1240  O     0.60374   0.68966   0.17244   0.00000  Uiso   1.00
O1241  O     0.58517   0.63459   0.15157   0.00000  Uiso   1.00
N1242  N     0.89970   0.84531   0.82179   0.00000  Uiso   1.00
O1243  O     0.89626   0.81035   0.82758   0.00000  Uiso   1.00
O1244  O     0.91486   0.86543   0.84842   0.00000  Uiso   1.00
N1245  N     0.84563   0.59973   0.17845   0.00000  Uiso   1.00
O1246  O     0.81146   0.60657   0.17097   0.00000  Uiso   1.00
O1247  O     0.86399   0.57838   0.15543   0.00000  Uiso   1.00
N1248  N     0.65444   0.89999   0.82174   0.00000  Uiso   1.00
O1249  O     0.68925   0.89580   0.82800   0.00000  Uiso   1.00
O1250  O     0.63455   0.91678   0.84744   0.00000  Uiso   1.00
N1251  N     0.90002   0.84552   0.17833   0.00000  Uiso   1.00
O1252  O     0.89519   0.81084   0.17188   0.00000  Uiso   1.00
O1253  O     0.91795   0.86505   0.15319   0.00000  Uiso   1.00
N1254  N     0.60017   0.65456   0.82178   0.00000  Uiso   1.00
O1255  O     0.60389   0.68946   0.82773   0.00000  Uiso   1.00
O1256  O     0.58447   0.63450   0.84810   0.00000  Uiso   1.00
N1257  N     0.65423   0.59961   0.82159   0.00000  Uiso   1.00
O1258  O     0.68850   0.60604   0.82897   0.00000  Uiso   1.00
O1259  O     0.63556   0.57881   0.84490   0.00000  Uiso   1.00
N1260  N     0.84560   0.90011   0.17832   0.00000  Uiso   1.00
O1261  O     0.81099   0.89495   0.17163   0.00000  Uiso   1.00
O1262  O     0.86498   0.91879   0.15366   0.00000  Uiso   1.00
N1263  N     0.59976   0.84567   0.82161   0.00000  Uiso   1.00
O1264  O     0.60564   0.81125   0.82865   0.00000  Uiso   1.00
O1265  O     0.57991   0.86464   0.84557   0.00000  Uiso   1.00
N1266  N     0.89963   0.65475   0.17821   0.00000  Uiso   1.00
O1267  O     0.89627   0.68972   0.17249   0.00000  Uiso   1.00
O1268  O     0.91458   0.63461   0.15147   0.00000  Uiso   1.00
N1269  N     0.84566   0.90029   0.82156   0.00000  Uiso   1.00
O1270  O     0.81146   0.89354   0.82900   0.00000  Uiso   1.00
O1271  O     0.86410   0.92148   0.84467   0.00000  Uiso   1.00
N1272  N     0.65434   0.59971   0.17844   0.00000  Uiso   1.00
O1273  O     0.68853   0.60646   0.17100   0.00000  Uiso   1.00
O1274  O     0.63590   0.57850   0.15535   0.00000  Uiso   1.00
N1275  N     0.89963   0.65474   0.82178   0.00000  Uiso   1.00
O1276  O     0.89616   0.68970   0.82752   0.00000  Uiso   1.00
O1277  O     0.91472   0.63465   0.84847   0.00000  Uiso   1.00
N1278  N     0.59976   0.84560   0.17845   0.00000  Uiso   1.00
O1279  O     0.60648   0.81140   0.17107   0.00000  Uiso   1.00
O1280  O     0.57863   0.86404   0.15525   0.00000  Uiso   1.00
N1281  N     0.90438   0.65027   0.67845   0.00000  Uiso   1.00
O1282  O     0.93857   0.64350   0.67101   0.00000  Uiso   1.00
O1283  O     0.88598   0.67154   0.65536   0.00000  Uiso   1.00
N1284  N     0.59531   0.85030   0.32179   0.00000  Uiso   1.00
O1285  O     0.56034   0.85375   0.32757   0.00000  Uiso   1.00
O1286  O     0.61544   0.83515   0.34841   0.00000  Uiso   1.00
N1287  N     0.85029   0.90468   0.67821   0.00000  Uiso   1.00
O1288  O     0.85373   0.93964   0.67242   0.00000  Uiso   1.00
O1289  O     0.83516   0.88455   0.65157   0.00000  Uiso   1.00
N1290  N     0.64969   0.59529   0.32179   0.00000  Uiso   1.00
O1291  O     0.64626   0.56033   0.32756   0.00000  Uiso   1.00
O1292  O     0.66481   0.61541   0.34844   0.00000  Uiso   1.00
N1293  N     0.59551   0.85006   0.67824   0.00000  Uiso   1.00
O1294  O     0.56065   0.85401   0.67212   0.00000  Uiso   1.00
O1295  O     0.61550   0.83377   0.65226   0.00000  Uiso   1.00
N1296  N     0.90438   0.65026   0.32155   0.00000  Uiso   1.00
O1297  O     0.93857   0.64347   0.32900   0.00000  Uiso   1.00
O1298  O     0.88599   0.67153   0.34463   0.00000  Uiso   1.00
N1299  N     0.64986   0.59549   0.67822   0.00000  Uiso   1.00
O1300  O     0.64616   0.56059   0.67223   0.00000  Uiso   1.00
O1301  O     0.66563   0.61557   0.65195   0.00000  Uiso   1.00
N1302  N     0.84980   0.90433   0.32163   0.00000  Uiso   1.00
O1303  O     0.85576   0.93872   0.32871   0.00000  Uiso   1.00
O1304  O     0.82980   0.88540   0.34550   0.00000  Uiso   1.00
N1305  N     0.90457   0.85009   0.32173   0.00000  Uiso   1.00
O1306  O     0.93941   0.85422   0.32786   0.00000  Uiso   1.00
O1307  O     0.88470   0.83352   0.34761   0.00000  Uiso   1.00
N1308  N     0.59567   0.65031   0.67842   0.00000  Uiso   1.00
O1309  O     0.56137   0.64393   0.67115   0.00000  Uiso   1.00
O1310  O     0.61432   0.67101   0.65498   0.00000  Uiso   1.00
N1311  N     0.85036   0.59525   0.32179   0.00000  Uiso   1.00
O1312  O     0.85376   0.56028   0.32752   0.00000  Uiso   1.00
O1313  O     0.83534   0.61537   0.34850   0.00000  Uiso   1.00
N1314  N     0.65027   0.90432   0.67839   0.00000  Uiso   1.00
O1315  O     0.64419   0.93869   0.67125   0.00000  Uiso   1.00
O1316  O     0.67052   0.88549   0.65469   0.00000  Uiso   1.00
N1317  N     0.59566   0.65028   0.32156   0.00000  Uiso   1.00
O1318  O     0.56146   0.64354   0.32899   0.00000  Uiso   1.00
O1319  O     0.61409   0.67150   0.34466   0.00000  Uiso   1.00
N1320  N     0.90433   0.84970   0.67844   0.00000  Uiso   1.00
O1321  O     0.93851   0.85650   0.67097   0.00000  Uiso   1.00
O1322  O     0.88591   0.82844   0.65538   0.00000  Uiso   1.00
N1323  N     0.65025   0.90439   0.32155   0.00000  Uiso   1.00
O1324  O     0.64350   0.93858   0.32895   0.00000  Uiso   1.00
O1325  O     0.67143   0.88597   0.34471   0.00000  Uiso   1.00
N1326  N     0.85036   0.59526   0.67821   0.00000  Uiso   1.00
O1327  O     0.85375   0.56030   0.67249   0.00000  Uiso   1.00
O1328  O     0.83533   0.61539   0.65150   0.00000  Uiso   1.00
loop_
_geom_bond_atom_site_label_1
_geom_bond_atom_site_label_2
_geom_bond_distance
_geom_bond_site_symmetry_2
_ccdc_geom_bond_type
Zn1    O41     1.946   .     S
Zn1    O764    1.934   1_545 S
Zn1    O56     1.950   .     S
Zn1    O103    1.934   .     S
Zn2    O55     1.950   .     S
Zn2    O42     1.946   .     S
Zn2    O99     1.934   .     S
Zn2    O768    1.934   1_545 S
Zn3    O94     1.933   .     S
Zn3    O43     1.947   .     S
Zn3    O58     1.950   .     S
Zn3    O433    1.933   1_455 S
Zn4    O425    1.933   1_455 S
Zn4    O44     1.947   .     S
Zn4    O57     1.950   .     S
Zn4    O102    1.933   .     S
Zn5    O771    1.934   1_545 S
Zn5    O41     1.946   .     S
Zn5    O60     1.950   .     S
Zn5    O96     1.934   .     S
Zn6    O42     1.946   .     S
Zn6    O59     1.950   .     S
Zn6    O108    1.934   .     S
Zn6    O759    1.934   1_545 S
Zn7    O105    1.933   .     S
Zn7    O43     1.947   .     S
Zn7    O54     1.950   .     S
Zn7    O430    1.934   1_455 S
Zn8    O53     1.950   .     S
Zn8    O97     1.934   .     S
Zn8    O44     1.947   .     S
Zn8    O438    1.933   1_455 S
Zn9    O48     1.950   .     S
Zn9    O87     1.934   .     S
Zn9    O84     1.934   .     S
Zn9    O376    1.946   .     S
Zn10   O47     1.950   .     S
Zn10   O88     1.934   .     S
Zn10   O83     1.934   .     S
Zn10   O43     1.946   .     S
Zn11   O50     1.950   .     S
Zn11   O85     1.933   .     S
Zn11   O78     1.933   .     S
Zn11   O706    1.947   .     S
Zn12   O49     1.950   .     S
Zn12   O86     1.933   .     S
Zn12   O77     1.933   .     S
Zn12   O41     1.947   .     S
Zn13   O91     1.934   .     S
Zn13   O44     1.946   .     S
Zn13   O80     1.934   .     S
Zn13   O52     1.950   .     S
Zn14   O79     1.934   .     S
Zn14   O375    1.946   .     S
Zn14   O51     1.950   .     S
Zn14   O92     1.934   .     S
Zn15   O42     1.947   .     S
Zn15   O82     1.934   .     S
Zn15   O89     1.933   .     S
Zn15   O46     1.950   .     S
Zn16   O45     1.950   .     S
Zn16   O81     1.934   .     S
Zn16   O705    1.947   .     S
Zn16   O90     1.933   .     S
C17    H197    1.084   .     S
C17    C185    1.394   .     A
C17    C365    1.404   .     S
C18    H198    1.084   .     S
C18    C186    1.394   .     A
C18    C34     1.404   .     S
C19    H199    1.084   .     S
C19    C187    1.394   .     A
C19    C35     1.404   .     S
C20    C188    1.394   .     A
C20    H200    1.084   .     S
C20    C700    1.404   .     S
C21    C33     1.404   .     A
C21    H201    1.084   .     S
C21    C181    1.394   .     A
C22    C366    1.404   .     A
C22    C182    1.394   .     A
C22    H202    1.084   .     S
C23    C183    1.394   .     A
C23    C699    1.404   .     A
C23    H203    1.084   .     S
C24    C184    1.394   .     A
C24    C36     1.404   .     A
C24    H204    1.084   .     S
C25    H205    1.084   .     S
C25    C193    1.394   .     A
C25    C37     1.404   .     A
C26    H206    1.084   .     S
C26    C194    1.394   .     A
C26    C702    1.404   .     S
C27    C195    1.394   .     A
C27    H207    1.084   .     S
C27    C371    1.404   .     S
C28    C40     1.404   .     A
C28    H208    1.084   .     S
C28    C196    1.394   .     A
C29    C189    1.394   .     A
C29    H209    1.084   .     S
C29    C701    1.404   .     S
C30    C38     1.404   .     A
C30    C190    1.394   .     A
C30    H210    1.084   .     S
C31    C191    1.394   .     A
C31    C39     1.404   .     A
C31    H211    1.084   .     S
C32    C192    1.394   .     A
C32    H212    1.084   .     S
C32    C372    1.404   .     S
C33    C127    1.463   .     S
C33    C349    1.404   1_455 S
C34    C354    1.404   1_455 A
C34    C128    1.463   .     S
C35    C125    1.463   .     S
C35    C687    1.404   1_545 A
C36    C126    1.463   .     S
C36    C684    1.404   1_545 S
C37    C131    1.463   .     S
C37    C693    1.404   1_545 S
C38    C690    1.404   1_545 S
C38    C132    1.463   .     S
C39    C359    1.404   1_455 S
C39    C129    1.463   .     S
C40    C130    1.463   .     S
C40    C364    1.404   1_455 S
O41    Zn680   1.947   1_545 S
O42    Zn675   1.947   1_545 S
O43    Zn346   1.946   1_455 S
O44    Zn341   1.946   1_455 S
O45    C789    1.281   .     A
O46    C126    1.281   .     A
O47    C127    1.280   .     A
O48    C460    1.280   .     A
O49    C125    1.280   .     S
O50    C790    1.280   .     S
O51    C459    1.280   .     S
O52    C128    1.280   .     S
O53    C129    1.281   .     S
O54    C130    1.281   .     S
O55    C131    1.280   .     A
O56    C132    1.280   .     S
O57    C129    1.280   .     S
O58    C130    1.280   .     S
O59    C131    1.280   .     A
O60    C132    1.280   .     S
H61    C109    1.084   .     S
H62    C110    1.084   .     S
H63    C111    1.084   .     S
H64    C112    1.084   .     S
H65    C113    1.084   .     S
H66    C114    1.084   .     S
H67    C115    1.084   .     S
H68    C116    1.084   .     S
H69    C117    1.084   .     S
H70    C118    1.084   .     S
H71    C119    1.084   .     S
H72    C120    1.084   .     S
H73    C121    1.084   .     S
H74    C122    1.084   .     S
H75    C123    1.084   .     S
H76    C124    1.084   .     S
O77    C133    1.280   .     A
O78    C134    1.280   .     A
O79    C135    1.279   .     A
O80    C136    1.279   .     A
O81    C137    1.279   .     A
O82    C138    1.279   .     A
O83    C139    1.279   .     A
O84    C140    1.279   .     A
O85    C141    1.279   .     A
O86    C142    1.280   .     A
O87    C143    1.279   .     A
O88    C144    1.279   .     A
O89    C145    1.279   .     A
O90    C146    1.279   .     A
O91    C147    1.279   .     A
O92    C148    1.279   .     A
O93    Zn336   1.933   .     S
O93    C143    1.280   .     A
O94    C144    1.280   .     A
O95    C141    1.279   .     A
O95    Zn670   1.934   .     S
O96    C142    1.279   .     A
O97    C147    1.279   .     A
O98    C148    1.279   .     A
O98    Zn339   1.934   .     S
O99    C145    1.279   .     A
O100   Zn665   1.934   .     S
O100   C146    1.279   .     A
O101   C135    1.280   .     A
O101   Zn335   1.933   .     S
O102   C136    1.279   .     A
O103   C133    1.279   .     A
O104   C134    1.279   .     A
O104   Zn666   1.934   .     S
O105   C139    1.279   .     A
O106   C140    1.279   .     A
O106   Zn340   1.933   .     S
O107   Zn669   1.934   .     S
O107   C137    1.279   .     A
O108   C138    1.279   .     A
C109   C114    1.395   .     A
C109   C181    1.402   .     A
C110   C182    1.402   .     A
C110   C113    1.395   .     A
C111   C183    1.402   .     A
C111   C116    1.395   .     A
C112   C184    1.402   .     A
C112   C115    1.395   .     A
C113   C185    1.402   .     A
C114   C186    1.402   .     A
C115   C187    1.402   .     A
C116   C188    1.402   .     A
C117   C189    1.402   .     A
C117   C122    1.395   1_556 S
C118   C190    1.402   .     A
C118   C121    1.395   1_554 S
C119   C191    1.402   .     A
C119   C124    1.395   1_556 S
C120   C192    1.402   .     A
C120   C123    1.395   1_554 S
C121   C193    1.402   .     A
C121   C118    1.395   1_556 S
C122   C194    1.402   .     A
C122   C117    1.395   1_554 S
C123   C195    1.402   .     A
C123   C120    1.395   1_556 S
C124   C196    1.402   .     A
C124   C119    1.395   1_554 S
C125   O709    1.281   1_545 A
C126   O714    1.280   1_545 S
C127   O383    1.280   1_455 S
C128   O380    1.280   1_455 A
C133   C215    1.454   .     S
C134   C216    1.454   .     S
C135   C217    1.454   .     S
C136   C218    1.454   .     S
C137   C219    1.454   .     S
C138   C220    1.454   .     S
C139   C213    1.454   .     S
C140   C214    1.454   .     S
C141   C223    1.454   .     S
C142   C224    1.454   .     S
C143   C225    1.454   .     S
C144   C226    1.454   .     S
C145   C227    1.454   .     S
C146   C228    1.454   .     S
C147   C221    1.454   .     S
C148   C222    1.454   .     S
C149   N237    1.437   .     S
C149   C164    1.398   .     A
C149   C228    1.409   .     A
C150   C163    1.398   .     A
C150   N240    1.435   .     S
C150   C227    1.409   .     A
C151   N243    1.437   .     S
C151   C162    1.398   .     A
C151   C226    1.409   .     A
C152   C225    1.409   .     A
C152   C161    1.398   .     A
C152   N246    1.437   .     S
C153   C224    1.409   .     A
C153   C160    1.398   .     A
C153   N249    1.435   .     S
C154   N252    1.436   .     S
C154   C159    1.398   .     A
C154   C223    1.409   .     A
C155   C158    1.398   .     A
C155   N255    1.436   .     S
C155   C222    1.409   .     A
C156   C157    1.398   .     A
C156   N258    1.437   .     S
C156   C221    1.409   .     A
C157   N261    1.435   .     S
C157   C220    1.409   .     A
C158   C219    1.409   .     A
C158   N264    1.436   .     S
C159   C218    1.409   .     A
C159   N267    1.435   .     S
C160   C217    1.409   .     A
C160   N270    1.437   .     S
C161   C216    1.409   .     A
C161   N273    1.435   .     S
C162   N276    1.435   .     S
C162   C215    1.409   .     A
C163   N279    1.437   .     S
C163   C214    1.409   .     A
C164   N282    1.435   .     S
C164   C213    1.409   .     A
C165   N285    1.435   .     S
C165   C214    1.409   .     A
C165   C180    1.398   .     A
C166   N288    1.437   .     S
C166   C213    1.409   .     A
C166   C179    1.398   .     A
C167   C178    1.398   .     A
C167   N291    1.437   .     S
C167   C216    1.409   .     A
C168   C215    1.409   .     A
C168   C177    1.398   .     A
C168   N294    1.437   .     S
C169   C218    1.409   .     A
C169   C176    1.398   .     A
C169   N297    1.437   .     S
C170   N300    1.435   .     S
C170   C217    1.409   .     A
C170   C175    1.398   .     A
C171   C220    1.409   .     A
C171   N303    1.437   .     S
C171   C174    1.398   .     A
C172   C219    1.409   .     A
C172   C173    1.398   .     A
C172   N306    1.435   .     S
C173   C222    1.409   .     A
C173   N309    1.437   .     S
C174   C221    1.409   .     A
C174   N312    1.435   .     S
C175   N315    1.437   .     S
C175   C224    1.409   .     A
C176   C223    1.409   .     A
C176   N318    1.435   .     S
C177   N321    1.435   .     S
C177   C226    1.409   .     A
C178   C225    1.409   .     A
C178   N324    1.435   .     S
C179   C228    1.409   .     A
C179   N327    1.435   .     S
C180   N330    1.437   .     S
C180   C227    1.409   .     A
C181   C229    1.411   .     S
C182   C562    1.411   .     A
C183   C895    1.411   .     A
C184   C232    1.411   .     S
C185   C561    1.411   .     A
C186   C230    1.411   .     S
C187   C231    1.411   .     S
C188   C896    1.411   .     A
C189   C897    1.411   .     S
C190   C234    1.411   .     A
C191   C235    1.411   .     A
C192   C568    1.411   .     S
C193   C233    1.411   .     A
C194   C898    1.411   .     S
C195   C567    1.411   .     S
C196   C236    1.411   .     A
C229   C230    1.403   .     A
C229   C517    1.411   1_455 A
C230   C514    1.411   1_455 A
C231   C847    1.411   1_545 A
C231   C232    1.403   .     A
C232   C852    1.411   1_545 A
C233   C853    1.411   1_545 S
C233   C234    1.403   1_556 S
C234   C858    1.411   1_545 S
C234   C233    1.403   1_554 S
C235   C527    1.411   1_455 S
C235   C236    1.403   1_556 S
C236   C524    1.411   1_455 S
C236   C235    1.403   1_554 S
N237   O238    1.301   .     A
N237   O239    1.301   .     A
N240   O241    1.301   .     A
N240   O242    1.301   .     A
N243   O244    1.301   .     A
N243   O245    1.301   .     A
N246   O247    1.301   .     A
N246   O248    1.301   .     A
N249   O251    1.301   .     A
N249   O250    1.301   .     A
N252   O253    1.301   .     A
N252   O254    1.301   .     A
N255   O257    1.301   .     A
N255   O256    1.301   .     A
N258   O259    1.301   .     A
N258   O260    1.300   .     A
N261   O262    1.301   .     A
N261   O263    1.301   .     A
N264   O265    1.301   .     A
N264   O266    1.301   .     A
N267   O269    1.301   .     A
N267   O268    1.301   .     A
N270   O272    1.301   .     A
N270   O271    1.301   .     A
N273   O275    1.301   .     A
N273   O274    1.301   .     A
N276   O277    1.301   .     A
N276   O278    1.301   .     A
N279   O281    1.301   .     A
N279   O280    1.301   .     A
N282   O283    1.301   .     A
N282   O284    1.301   .     A
N285   O287    1.301   .     A
N285   O286    1.301   .     A
N288   O290    1.301   .     A
N288   O289    1.301   .     A
N291   O292    1.301   .     A
N291   O293    1.301   .     A
N294   O295    1.301   .     A
N294   O296    1.301   .     A
N297   O299    1.301   .     A
N297   O298    1.301   .     A
N300   O301    1.301   .     A
N300   O302    1.301   .     A
N303   O305    1.301   .     A
N303   O304    1.301   .     A
N306   O307    1.301   .     A
N306   O308    1.301   .     A
N309   O311    1.301   .     A
N309   O310    1.301   .     A
N312   O313    1.301   .     A
N312   O314    1.301   .     A
N315   O316    1.301   .     A
N315   O317    1.301   .     A
N318   O320    1.301   .     A
N318   O319    1.301   .     A
N321   O322    1.301   .     A
N321   O323    1.301   .     A
N324   O325    1.301   .     A
N324   O326    1.301   .     A
N327   O329    1.301   .     A
N327   O328    1.301   .     A
N330   O331    1.301   .     A
N330   O332    1.301   .     A
Zn333  O373    1.946   .     S
Zn333  O1096   1.934   1_545 S
Zn333  O388    1.950   .     S
Zn333  O435    1.934   .     S
Zn334  O387    1.950   .     S
Zn334  O374    1.946   .     S
Zn334  O431    1.934   .     S
Zn334  O1100   1.934   1_545 S
Zn335  O426    1.933   .     S
Zn335  O375    1.947   .     S
Zn335  O390    1.950   .     S
Zn336  O376    1.947   .     S
Zn336  O389    1.950   .     S
Zn336  O434    1.933   .     S
Zn337  O1103   1.934   1_545 S
Zn337  O373    1.946   .     S
Zn337  O392    1.950   .     S
Zn337  O428    1.934   .     S
Zn338  O374    1.946   .     S
Zn338  O391    1.950   .     S
Zn338  O440    1.934   .     S
Zn338  O1091   1.934   1_545 S
Zn339  O437    1.933   .     S
Zn339  O375    1.947   .     S
Zn339  O386    1.950   .     S
Zn340  O385    1.950   .     S
Zn340  O429    1.934   .     S
Zn340  O376    1.947   .     S
Zn341  O380    1.950   .     S
Zn341  O419    1.934   .     S
Zn341  O416    1.934   .     S
Zn341  O44     1.946   1_655 S
Zn342  O379    1.950   .     S
Zn342  O420    1.934   .     S
Zn342  O415    1.934   .     S
Zn342  O375    1.946   .     S
Zn343  O382    1.950   .     S
Zn343  O417    1.933   .     S
Zn343  O410    1.933   .     S
Zn343  O1038   1.947   .     S
Zn344  O381    1.950   .     S
Zn344  O418    1.933   .     S
Zn344  O409    1.933   .     S
Zn344  O373    1.947   .     S
Zn345  O423    1.934   .     S
Zn345  O376    1.946   .     S
Zn345  O412    1.934   .     S
Zn345  O384    1.950   .     S
Zn346  O411    1.934   .     S
Zn346  O43     1.946   1_655 S
Zn346  O383    1.950   .     S
Zn346  O424    1.934   .     S
Zn347  O374    1.947   .     S
Zn347  O414    1.934   .     S
Zn347  O421    1.933   .     S
Zn347  O378    1.950   .     S
Zn348  O377    1.950   .     S
Zn348  O413    1.934   .     S
Zn348  O1037   1.947   .     S
Zn348  O422    1.933   .     S
C349   H529    1.084   .     S
C349   C517    1.394   .     A
C349   C33     1.404   1_655 S
C350   H530    1.084   .     S
C350   C518    1.394   .     A
C350   C366    1.404   .     S
C351   H531    1.084   .     S
C351   C519    1.394   .     A
C351   C367    1.404   .     S
C352   C520    1.394   .     A
C352   H532    1.084   .     S
C352   C1032   1.404   .     S
C353   C365    1.404   .     A
C353   H533    1.084   .     S
C353   C513    1.394   .     A
C354   C34     1.404   1_655 A
C354   C514    1.394   .     A
C354   H534    1.084   .     S
C355   C515    1.394   .     A
C355   C1031   1.404   .     A
C355   H535    1.084   .     S
C356   C516    1.394   .     A
C356   C368    1.404   .     A
C356   H536    1.084   .     S
C357   H537    1.084   .     S
C357   C525    1.394   .     A
C357   C369    1.404   .     A
C358   H538    1.084   .     S
C358   C526    1.394   .     A
C358   C1034   1.404   .     S
C359   C527    1.394   .     A
C359   H539    1.084   .     S
C359   C39     1.404   1_655 S
C360   C372    1.404   .     A
C360   H540    1.084   .     S
C360   C528    1.394   .     A
C361   C521    1.394   .     A
C361   H541    1.084   .     S
C361   C1033   1.404   .     S
C362   C370    1.404   .     A
C362   C522    1.394   .     A
C362   H542    1.084   .     S
C363   C523    1.394   .     A
C363   C371    1.404   .     A
C363   H543    1.084   .     S
C364   C524    1.394   .     A
C364   H544    1.084   .     S
C364   C40     1.404   1_655 S
C365   C459    1.463   .     S
C366   C460    1.463   .     S
C367   C457    1.463   .     S
C367   C1019   1.404   1_545 A
C368   C458    1.463   .     S
C368   C1016   1.404   1_545 S
C369   C463    1.463   .     S
C369   C1025   1.404   1_545 S
C370   C1022   1.404   1_545 S
C370   C464    1.463   .     S
C371   C461    1.463   .     S
C372   C462    1.463   .     S
O373   Zn1012  1.947   1_545 S
O374   Zn1007  1.947   1_545 S
O377   C1121   1.281   .     A
O378   C458    1.281   .     A
O379   C459    1.280   .     A
O380   C128    1.280   1_655 A
O381   C457    1.280   .     S
O382   C1122   1.280   .     S
O383   C127    1.280   1_655 S
O384   C460    1.280   .     S
O385   C461    1.281   .     S
O386   C462    1.281   .     S
O387   C463    1.280   .     A
O388   C464    1.280   .     S
O389   C461    1.280   .     S
O390   C462    1.280   .     S
O391   C463    1.280   .     A
O392   C464    1.280   .     S
H393   C441    1.084   .     S
H394   C442    1.084   .     S
H395   C443    1.084   .     S
H396   C444    1.084   .     S
H397   C445    1.084   .     S
H398   C446    1.084   .     S
H399   C447    1.084   .     S
H400   C448    1.084   .     S
H401   C449    1.084   .     S
H402   C450    1.084   .     S
H403   C451    1.084   .     S
H404   C452    1.084   .     S
H405   C453    1.084   .     S
H406   C454    1.084   .     S
H407   C455    1.084   .     S
H408   C456    1.084   .     S
O409   C465    1.280   .     A
O410   C466    1.280   .     A
O411   C467    1.279   .     A
O412   C468    1.279   .     A
O413   C469    1.279   .     A
O414   C470    1.279   .     A
O415   C471    1.279   .     A
O416   C472    1.279   .     A
O417   C473    1.279   .     A
O418   C474    1.280   .     A
O419   C475    1.279   .     A
O420   C476    1.279   .     A
O421   C477    1.279   .     A
O422   C478    1.279   .     A
O423   C479    1.279   .     A
O424   C480    1.279   .     A
O425   Zn4     1.933   1_655 S
O425   C475    1.280   .     A
O426   C476    1.280   .     A
O427   C473    1.279   .     A
O427   Zn1002  1.934   .     S
O428   C474    1.279   .     A
O429   C479    1.279   .     A
O430   C480    1.279   .     A
O430   Zn7     1.934   1_655 S
O431   C477    1.279   .     A
O432   Zn997   1.934   .     S
O432   C478    1.279   .     A
O433   C467    1.280   .     A
O433   Zn3     1.933   1_655 S
O434   C468    1.279   .     A
O435   C465    1.279   .     A
O436   C466    1.279   .     A
O436   Zn998   1.934   .     S
O437   C471    1.279   .     A
O438   C472    1.279   .     A
O438   Zn8     1.933   1_655 S
O439   Zn1001  1.934   .     S
O439   C469    1.279   .     A
O440   C470    1.279   .     A
C441   C446    1.395   .     A
C441   C513    1.402   .     A
C442   C514    1.402   .     A
C442   C445    1.395   .     A
C443   C515    1.402   .     A
C443   C448    1.395   .     A
C444   C516    1.402   .     A
C444   C447    1.395   .     A
C445   C517    1.402   .     A
C446   C518    1.402   .     A
C447   C519    1.402   .     A
C448   C520    1.402   .     A
C449   C521    1.402   .     A
C449   C454    1.395   1_556 S
C450   C522    1.402   .     A
C450   C453    1.395   1_554 S
C451   C523    1.402   .     A
C451   C456    1.395   1_556 S
C452   C524    1.402   .     A
C452   C455    1.395   1_554 S
C453   C525    1.402   .     A
C453   C450    1.395   1_556 S
C454   C526    1.402   .     A
C454   C449    1.395   1_554 S
C455   C527    1.402   .     A
C455   C452    1.395   1_556 S
C456   C528    1.402   .     A
C456   C451    1.395   1_554 S
C457   O1041   1.281   1_545 A
C458   O1046   1.280   1_545 S
C465   C547    1.454   .     S
C466   C548    1.454   .     S
C467   C549    1.454   .     S
C468   C550    1.454   .     S
C469   C551    1.454   .     S
C470   C552    1.454   .     S
C471   C545    1.454   .     S
C472   C546    1.454   .     S
C473   C555    1.454   .     S
C474   C556    1.454   .     S
C475   C557    1.454   .     S
C476   C558    1.454   .     S
C477   C559    1.454   .     S
C478   C560    1.454   .     S
C479   C553    1.454   .     S
C480   C554    1.454   .     S
C481   N569    1.437   .     S
C481   C496    1.398   .     A
C481   C560    1.409   .     A
C482   C495    1.398   .     A
C482   N572    1.435   .     S
C482   C559    1.409   .     A
C483   N575    1.437   .     S
C483   C494    1.398   .     A
C483   C558    1.409   .     A
C484   C557    1.409   .     A
C484   C493    1.398   .     A
C484   N578    1.437   .     S
C485   C556    1.409   .     A
C485   C492    1.398   .     A
C485   N581    1.435   .     S
C486   N584    1.436   .     S
C486   C491    1.398   .     A
C486   C555    1.409   .     A
C487   C490    1.398   .     A
C487   N587    1.436   .     S
C487   C554    1.409   .     A
C488   C489    1.398   .     A
C488   N590    1.437   .     S
C488   C553    1.409   .     A
C489   N593    1.435   .     S
C489   C552    1.409   .     A
C490   C551    1.409   .     A
C490   N596    1.436   .     S
C491   C550    1.409   .     A
C491   N599    1.435   .     S
C492   C549    1.409   .     A
C492   N602    1.437   .     S
C493   C548    1.409   .     A
C493   N605    1.435   .     S
C494   N608    1.435   .     S
C494   C547    1.409   .     A
C495   N611    1.437   .     S
C495   C546    1.409   .     A
C496   N614    1.435   .     S
C496   C545    1.409   .     A
C497   N617    1.435   .     S
C497   C546    1.409   .     A
C497   C512    1.398   .     A
C498   N620    1.437   .     S
C498   C545    1.409   .     A
C498   C511    1.398   .     A
C499   C510    1.398   .     A
C499   N623    1.437   .     S
C499   C548    1.409   .     A
C500   C547    1.409   .     A
C500   C509    1.398   .     A
C500   N626    1.437   .     S
C501   C550    1.409   .     A
C501   C508    1.398   .     A
C501   N629    1.437   .     S
C502   N632    1.435   .     S
C502   C549    1.409   .     A
C502   C507    1.398   .     A
C503   C552    1.409   .     A
C503   N635    1.437   .     S
C503   C506    1.398   .     A
C504   C551    1.409   .     A
C504   C505    1.398   .     A
C504   N638    1.435   .     S
C505   C554    1.409   .     A
C505   N641    1.437   .     S
C506   C553    1.409   .     A
C506   N644    1.435   .     S
C507   N647    1.437   .     S
C507   C556    1.409   .     A
C508   C555    1.409   .     A
C508   N650    1.435   .     S
C509   N653    1.435   .     S
C509   C558    1.409   .     A
C510   C557    1.409   .     A
C510   N656    1.435   .     S
C511   C560    1.409   .     A
C511   N659    1.435   .     S
C512   N662    1.437   .     S
C512   C559    1.409   .     A
C513   C561    1.411   .     S
C514   C230    1.411   1_655 A
C515   C1227   1.411   .     A
C516   C564    1.411   .     S
C517   C229    1.411   1_655 A
C518   C562    1.411   .     S
C519   C563    1.411   .     S
C520   C1228   1.411   .     A
C521   C1229   1.411   .     S
C522   C566    1.411   .     A
C523   C567    1.411   .     A
C524   C236    1.411   1_655 S
C525   C565    1.411   .     A
C526   C1230   1.411   .     S
C527   C235    1.411   1_655 S
C528   C568    1.411   .     A
C561   C562    1.403   .     A
C563   C1179   1.411   1_545 A
C563   C564    1.403   .     A
C564   C1184   1.411   1_545 A
C565   C1185   1.411   1_545 S
C565   C566    1.403   1_556 S
C566   C1190   1.411   1_545 S
C566   C565    1.403   1_554 S
C567   C568    1.403   1_556 S
C568   C567    1.403   1_554 S
N569   O570    1.301   .     A
N569   O571    1.301   .     A
N572   O573    1.301   .     A
N572   O574    1.301   .     A
N575   O576    1.301   .     A
N575   O577    1.301   .     A
N578   O579    1.301   .     A
N578   O580    1.301   .     A
N581   O583    1.301   .     A
N581   O582    1.301   .     A
N584   O585    1.301   .     A
N584   O586    1.301   .     A
N587   O589    1.301   .     A
N587   O588    1.301   .     A
N590   O591    1.301   .     A
N590   O592    1.300   .     A
N593   O594    1.301   .     A
N593   O595    1.301   .     A
N596   O597    1.301   .     A
N596   O598    1.301   .     A
N599   O601    1.301   .     A
N599   O600    1.301   .     A
N602   O604    1.301   .     A
N602   O603    1.301   .     A
N605   O607    1.301   .     A
N605   O606    1.301   .     A
N608   O609    1.301   .     A
N608   O610    1.301   .     A
N611   O613    1.301   .     A
N611   O612    1.301   .     A
N614   O615    1.301   .     A
N614   O616    1.301   .     A
N617   O619    1.301   .     A
N617   O618    1.301   .     A
N620   O622    1.301   .     A
N620   O621    1.301   .     A
N623   O624    1.301   .     A
N623   O625    1.301   .     A
N626   O627    1.301   .     A
N626   O628    1.301   .     A
N629   O631    1.301   .     A
N629   O630    1.301   .     A
N632   O633    1.301   .     A
N632   O634    1.301   .     A
N635   O637    1.301   .     A
N635   O636    1.301   .     A
N638   O639    1.301   .     A
N638   O640    1.301   .     A
N641   O643    1.301   .     A
N641   O642    1.301   .     A
N644   O645    1.301   .     A
N644   O646    1.301   .     A
N647   O648    1.301   .     A
N647   O649    1.301   .     A
N650   O652    1.301   .     A
N650   O651    1.301   .     A
N653   O654    1.301   .     A
N653   O655    1.301   .     A
N656   O657    1.301   .     A
N656   O658    1.301   .     A
N659   O661    1.301   .     A
N659   O660    1.301   .     A
N662   O663    1.301   .     A
N662   O664    1.301   .     A
Zn665  O705    1.946   .     S
Zn665  O720    1.950   .     S
Zn665  O767    1.934   .     S
Zn666  O719    1.950   .     S
Zn666  O706    1.946   .     S
Zn666  O763    1.934   .     S
Zn667  O758    1.933   .     S
Zn667  O707    1.947   .     S
Zn667  O722    1.950   .     S
Zn667  O1097   1.933   1_455 S
Zn668  O1089   1.933   1_455 S
Zn668  O708    1.947   .     S
Zn668  O721    1.950   .     S
Zn668  O766    1.933   .     S
Zn669  O705    1.946   .     S
Zn669  O724    1.950   .     S
Zn669  O760    1.934   .     S
Zn670  O706    1.946   .     S
Zn670  O723    1.950   .     S
Zn670  O772    1.934   .     S
Zn671  O769    1.933   .     S
Zn671  O707    1.947   .     S
Zn671  O718    1.950   .     S
Zn671  O1094   1.934   1_455 S
Zn672  O717    1.950   .     S
Zn672  O761    1.934   .     S
Zn672  O708    1.947   .     S
Zn672  O1102   1.933   1_455 S
Zn673  O712    1.950   .     S
Zn673  O751    1.934   .     S
Zn673  O748    1.934   .     S
Zn673  O1040   1.946   .     S
Zn674  O711    1.950   .     S
Zn674  O752    1.934   .     S
Zn674  O747    1.934   .     S
Zn674  O707    1.946   .     S
Zn675  O714    1.950   .     S
Zn675  O749    1.933   .     S
Zn675  O742    1.933   .     S
Zn675  O42     1.947   1_565 S
Zn676  O713    1.950   .     S
Zn676  O750    1.933   .     S
Zn676  O741    1.933   .     S
Zn676  O705    1.947   .     S
Zn677  O755    1.934   .     S
Zn677  O708    1.946   .     S
Zn677  O744    1.934   .     S
Zn677  O716    1.950   .     S
Zn678  O743    1.934   .     S
Zn678  O1039   1.946   .     S
Zn678  O715    1.950   .     S
Zn678  O756    1.934   .     S
Zn679  O706    1.947   .     S
Zn679  O746    1.934   .     S
Zn679  O753    1.933   .     S
Zn679  O710    1.950   .     S
Zn680  O709    1.950   .     S
Zn680  O745    1.934   .     S
Zn680  O41     1.947   1_565 S
Zn680  O754    1.933   .     S
C681   H861    1.084   .     S
C681   C849    1.394   .     A
C681   C1029   1.404   .     S
C682   H862    1.084   .     S
C682   C850    1.394   .     A
C682   C698    1.404   .     S
C683   H863    1.084   .     S
C683   C851    1.394   .     A
C683   C699    1.404   .     S
C684   C852    1.394   .     A
C684   H864    1.084   .     S
C684   C36     1.404   1_565 S
C685   C697    1.404   .     A
C685   H865    1.084   .     S
C685   C845    1.394   .     A
C686   C1030   1.404   .     A
C686   C846    1.394   .     A
C686   H866    1.084   .     S
C687   C847    1.394   .     A
C687   C35     1.404   1_565 A
C687   H867    1.084   .     S
C688   C848    1.394   .     A
C688   C700    1.404   .     A
C688   H868    1.084   .     S
C689   H869    1.084   .     S
C689   C857    1.394   .     A
C689   C701    1.404   .     A
C690   H870    1.084   .     S
C690   C858    1.394   .     A
C690   C38     1.404   1_565 S
C691   C859    1.394   .     A
C691   H871    1.084   .     S
C691   C1035   1.404   .     S
C692   C704    1.404   .     A
C692   H872    1.084   .     S
C692   C860    1.394   .     A
C693   C853    1.394   .     A
C693   H873    1.084   .     S
C693   C37     1.404   1_565 S
C694   C702    1.404   .     A
C694   C854    1.394   .     A
C694   H874    1.084   .     S
C695   C855    1.394   .     A
C695   C703    1.404   .     A
C695   H875    1.084   .     S
C696   C856    1.394   .     A
C696   H876    1.084   .     S
C696   C1036   1.404   .     S
C697   C791    1.463   .     S
C697   C1013   1.404   1_455 S
C698   C1018   1.404   1_455 A
C698   C792    1.463   .     S
C699   C789    1.463   .     S
C700   C790    1.463   .     S
C701   C795    1.463   .     S
C702   C796    1.463   .     S
C703   C1023   1.404   1_455 S
C703   C793    1.463   .     S
C704   C794    1.463   .     S
C704   C1028   1.404   1_455 S
O707   Zn1010  1.946   1_455 S
O708   Zn1005  1.946   1_455 S
O709   C125    1.281   1_565 A
O710   C790    1.281   .     A
O711   C791    1.280   .     A
O712   C1124   1.280   .     A
O713   C789    1.280   .     S
O714   C126    1.280   1_565 S
O715   C1123   1.280   .     S
O716   C792    1.280   .     S
O717   C793    1.281   .     S
O718   C794    1.281   .     S
O719   C795    1.280   .     A
O720   C796    1.280   .     S
O721   C793    1.280   .     S
O722   C794    1.280   .     S
O723   C795    1.280   .     A
O724   C796    1.280   .     S
H725   C773    1.084   .     S
H726   C774    1.084   .     S
H727   C775    1.084   .     S
H728   C776    1.084   .     S
H729   C777    1.084   .     S
H730   C778    1.084   .     S
H731   C779    1.084   .     S
H732   C780    1.084   .     S
H733   C781    1.084   .     S
H734   C782    1.084   .     S
H735   C783    1.084   .     S
H736   C784    1.084   .     S
H737   C785    1.084   .     S
H738   C786    1.084   .     S
H739   C787    1.084   .     S
H740   C788    1.084   .     S
O741   C797    1.280   .     A
O742   C798    1.280   .     A
O743   C799    1.279   .     A
O744   C800    1.279   .     A
O745   C801    1.279   .     A
O746   C802    1.279   .     A
O747   C803    1.279   .     A
O748   C804    1.279   .     A
O749   C805    1.279   .     A
O750   C806    1.280   .     A
O751   C807    1.279   .     A
O752   C808    1.279   .     A
O753   C809    1.279   .     A
O754   C810    1.279   .     A
O755   C811    1.279   .     A
O756   C812    1.279   .     A
O757   Zn1000  1.933   .     S
O757   C807    1.280   .     A
O758   C808    1.280   .     A
O759   C805    1.279   .     A
O759   Zn6     1.934   1_565 S
O760   C806    1.279   .     A
O761   C811    1.279   .     A
O762   C812    1.279   .     A
O762   Zn1003  1.934   .     S
O763   C809    1.279   .     A
O764   Zn1     1.934   1_565 S
O764   C810    1.279   .     A
O765   C799    1.280   .     A
O765   Zn999   1.933   .     S
O766   C800    1.279   .     A
O767   C797    1.279   .     A
O768   C798    1.279   .     A
O768   Zn2     1.934   1_565 S
O769   C803    1.279   .     A
O770   C804    1.279   .     A
O770   Zn1004  1.933   .     S
O771   Zn5     1.934   1_565 S
O771   C801    1.279   .     A
O772   C802    1.279   .     A
C773   C778    1.395   .     A
C773   C845    1.402   .     A
C774   C846    1.402   .     A
C774   C777    1.395   .     A
C775   C847    1.402   .     A
C775   C780    1.395   .     A
C776   C848    1.402   .     A
C776   C779    1.395   .     A
C777   C849    1.402   .     A
C778   C850    1.402   .     A
C779   C851    1.402   .     A
C780   C852    1.402   .     A
C781   C853    1.402   .     A
C781   C786    1.395   1_556 S
C782   C854    1.402   .     A
C782   C785    1.395   1_554 S
C783   C855    1.402   .     A
C783   C788    1.395   1_556 S
C784   C856    1.402   .     A
C784   C787    1.395   1_554 S
C785   C857    1.402   .     A
C785   C782    1.395   1_556 S
C786   C858    1.402   .     A
C786   C781    1.395   1_554 S
C787   C859    1.402   .     A
C787   C784    1.395   1_556 S
C788   C860    1.402   .     A
C788   C783    1.395   1_554 S
C791   O1047   1.280   1_455 S
C792   O1044   1.280   1_455 A
C797   C879    1.454   .     S
C798   C880    1.454   .     S
C799   C881    1.454   .     S
C800   C882    1.454   .     S
C801   C883    1.454   .     S
C802   C884    1.454   .     S
C803   C877    1.454   .     S
C804   C878    1.454   .     S
C805   C887    1.454   .     S
C806   C888    1.454   .     S
C807   C889    1.454   .     S
C808   C890    1.454   .     S
C809   C891    1.454   .     S
C810   C892    1.454   .     S
C811   C885    1.454   .     S
C812   C886    1.454   .     S
C813   N901    1.437   .     S
C813   C828    1.398   .     A
C813   C892    1.409   .     A
C814   C827    1.398   .     A
C814   N904    1.435   .     S
C814   C891    1.409   .     A
C815   N907    1.437   .     S
C815   C826    1.398   .     A
C815   C890    1.409   .     A
C816   C889    1.409   .     A
C816   C825    1.398   .     A
C816   N910    1.437   .     S
C817   C888    1.409   .     A
C817   C824    1.398   .     A
C817   N913    1.435   .     S
C818   N916    1.436   .     S
C818   C823    1.398   .     A
C818   C887    1.409   .     A
C819   C822    1.398   .     A
C819   N919    1.436   .     S
C819   C886    1.409   .     A
C820   C821    1.398   .     A
C820   N922    1.437   .     S
C820   C885    1.409   .     A
C821   N925    1.435   .     S
C821   C884    1.409   .     A
C822   C883    1.409   .     A
C822   N928    1.436   .     S
C823   C882    1.409   .     A
C823   N931    1.435   .     S
C824   C881    1.409   .     A
C824   N934    1.437   .     S
C825   C880    1.409   .     A
C825   N937    1.435   .     S
C826   N940    1.435   .     S
C826   C879    1.409   .     A
C827   N943    1.437   .     S
C827   C878    1.409   .     A
C828   N946    1.435   .     S
C828   C877    1.409   .     A
C829   N949    1.435   .     S
C829   C878    1.409   .     A
C829   C844    1.398   .     A
C830   N952    1.437   .     S
C830   C877    1.409   .     A
C830   C843    1.398   .     A
C831   C842    1.398   .     A
C831   N955    1.437   .     S
C831   C880    1.409   .     A
C832   C879    1.409   .     A
C832   C841    1.398   .     A
C832   N958    1.437   .     S
C833   C882    1.409   .     A
C833   C840    1.398   .     A
C833   N961    1.437   .     S
C834   N964    1.435   .     S
C834   C881    1.409   .     A
C834   C839    1.398   .     A
C835   C884    1.409   .     A
C835   N967    1.437   .     S
C835   C838    1.398   .     A
C836   C883    1.409   .     A
C836   C837    1.398   .     A
C836   N970    1.435   .     S
C837   C886    1.409   .     A
C837   N973    1.437   .     S
C838   C885    1.409   .     A
C838   N976    1.435   .     S
C839   N979    1.437   .     S
C839   C888    1.409   .     A
C840   C887    1.409   .     A
C840   N982    1.435   .     S
C841   N985    1.435   .     S
C841   C890    1.409   .     A
C842   C889    1.409   .     A
C842   N988    1.435   .     S
C843   C892    1.409   .     A
C843   N991    1.435   .     S
C844   N994    1.437   .     S
C844   C891    1.409   .     A
C845   C893    1.411   .     S
C846   C1226   1.411   .     A
C847   C231    1.411   1_565 A
C848   C896    1.411   .     S
C849   C1225   1.411   .     A
C850   C894    1.411   .     S
C851   C895    1.411   .     S
C852   C232    1.411   1_565 A
C853   C233    1.411   1_565 S
C854   C898    1.411   .     A
C855   C899    1.411   .     A
C856   C1232   1.411   .     S
C857   C897    1.411   .     A
C858   C234    1.411   1_565 S
C859   C1231   1.411   .     S
C860   C900    1.411   .     A
C893   C894    1.403   .     A
C893   C1181   1.411   1_455 A
C894   C1178   1.411   1_455 A
C895   C896    1.403   .     A
C897   C898    1.403   1_556 S
C898   C897    1.403   1_554 S
C899   C1191   1.411   1_455 S
C899   C900    1.403   1_556 S
C900   C1188   1.411   1_455 S
C900   C899    1.403   1_554 S
N901   O902    1.301   .     A
N901   O903    1.301   .     A
N904   O905    1.301   .     A
N904   O906    1.301   .     A
N907   O908    1.301   .     A
N907   O909    1.301   .     A
N910   O911    1.301   .     A
N910   O912    1.301   .     A
N913   O915    1.301   .     A
N913   O914    1.301   .     A
N916   O917    1.301   .     A
N916   O918    1.301   .     A
N919   O921    1.301   .     A
N919   O920    1.301   .     A
N922   O923    1.301   .     A
N922   O924    1.300   .     A
N925   O926    1.301   .     A
N925   O927    1.301   .     A
N928   O929    1.301   .     A
N928   O930    1.301   .     A
N931   O933    1.301   .     A
N931   O932    1.301   .     A
N934   O936    1.301   .     A
N934   O935    1.301   .     A
N937   O939    1.301   .     A
N937   O938    1.301   .     A
N940   O941    1.301   .     A
N940   O942    1.301   .     A
N943   O945    1.301   .     A
N943   O944    1.301   .     A
N946   O947    1.301   .     A
N946   O948    1.301   .     A
N949   O951    1.301   .     A
N949   O950    1.301   .     A
N952   O954    1.301   .     A
N952   O953    1.301   .     A
N955   O956    1.301   .     A
N955   O957    1.301   .     A
N958   O959    1.301   .     A
N958   O960    1.301   .     A
N961   O963    1.301   .     A
N961   O962    1.301   .     A
N964   O965    1.301   .     A
N964   O966    1.301   .     A
N967   O969    1.301   .     A
N967   O968    1.301   .     A
N970   O971    1.301   .     A
N970   O972    1.301   .     A
N973   O975    1.301   .     A
N973   O974    1.301   .     A
N976   O977    1.301   .     A
N976   O978    1.301   .     A
N979   O980    1.301   .     A
N979   O981    1.301   .     A
N982   O984    1.301   .     A
N982   O983    1.301   .     A
N985   O986    1.301   .     A
N985   O987    1.301   .     A
N988   O989    1.301   .     A
N988   O990    1.301   .     A
N991   O993    1.301   .     A
N991   O992    1.301   .     A
N994   O995    1.301   .     A
N994   O996    1.301   .     A
Zn997  O1037   1.946   .     S
Zn997  O1052   1.950   .     S
Zn997  O1099   1.934   .     S
Zn998  O1051   1.950   .     S
Zn998  O1038   1.946   .     S
Zn998  O1095   1.934   .     S
Zn999  O1090   1.933   .     S
Zn999  O1039   1.947   .     S
Zn999  O1054   1.950   .     S
Zn1000 O1040   1.947   .     S
Zn1000 O1053   1.950   .     S
Zn1000 O1098   1.933   .     S
Zn1001 O1037   1.946   .     S
Zn1001 O1056   1.950   .     S
Zn1001 O1092   1.934   .     S
Zn1002 O1038   1.946   .     S
Zn1002 O1055   1.950   .     S
Zn1002 O1104   1.934   .     S
Zn1003 O1101   1.933   .     S
Zn1003 O1039   1.947   .     S
Zn1003 O1050   1.950   .     S
Zn1004 O1049   1.950   .     S
Zn1004 O1093   1.934   .     S
Zn1004 O1040   1.947   .     S
Zn1005 O1044   1.950   .     S
Zn1005 O1083   1.934   .     S
Zn1005 O1080   1.934   .     S
Zn1005 O708    1.946   1_655 S
Zn1006 O1043   1.950   .     S
Zn1006 O1084   1.934   .     S
Zn1006 O1079   1.934   .     S
Zn1006 O1039   1.946   .     S
Zn1007 O1046   1.950   .     S
Zn1007 O1081   1.933   .     S
Zn1007 O1074   1.933   .     S
Zn1007 O374    1.947   1_565 S
Zn1008 O1045   1.950   .     S
Zn1008 O1082   1.933   .     S
Zn1008 O1073   1.933   .     S
Zn1008 O1037   1.947   .     S
Zn1009 O1087   1.934   .     S
Zn1009 O1040   1.946   .     S
Zn1009 O1076   1.934   .     S
Zn1009 O1048   1.950   .     S
Zn1010 O1075   1.934   .     S
Zn1010 O707    1.946   1_655 S
Zn1010 O1047   1.950   .     S
Zn1010 O1088   1.934   .     S
Zn1011 O1038   1.947   .     S
Zn1011 O1078   1.934   .     S
Zn1011 O1085   1.933   .     S
Zn1011 O1042   1.950   .     S
Zn1012 O1041   1.950   .     S
Zn1012 O1077   1.934   .     S
Zn1012 O373    1.947   1_565 S
Zn1012 O1086   1.933   .     S
C1013  H1193   1.084   .     S
C1013  C1181   1.394   .     A
C1013  C697    1.404   1_655 S
C1014  H1194   1.084   .     S
C1014  C1182   1.394   .     A
C1014  C1030   1.404   .     S
C1015  H1195   1.084   .     S
C1015  C1183   1.394   .     A
C1015  C1031   1.404   .     S
C1016  C1184   1.394   .     A
C1016  H1196   1.084   .     S
C1016  C368    1.404   1_565 S
C1017  C1029   1.404   .     A
C1017  H1197   1.084   .     S
C1017  C1177   1.394   .     A
C1018  C698    1.404   1_655 A
C1018  C1178   1.394   .     A
C1018  H1198   1.084   .     S
C1019  C1179   1.394   .     A
C1019  C367    1.404   1_565 A
C1019  H1199   1.084   .     S
C1020  C1180   1.394   .     A
C1020  C1032   1.404   .     A
C1020  H1200   1.084   .     S
C1021  H1201   1.084   .     S
C1021  C1189   1.394   .     A
C1021  C1033   1.404   .     A
C1022  H1202   1.084   .     S
C1022  C1190   1.394   .     A
C1022  C370    1.404   1_565 S
C1023  C1191   1.394   .     A
C1023  H1203   1.084   .     S
C1023  C703    1.404   1_655 S
C1024  C1036   1.404   .     A
C1024  H1204   1.084   .     S
C1024  C1192   1.394   .     A
C1025  C1185   1.394   .     A
C1025  H1205   1.084   .     S
C1025  C369    1.404   1_565 S
C1026  C1034   1.404   .     A
C1026  C1186   1.394   .     A
C1026  H1206   1.084   .     S
C1027  C1187   1.394   .     A
C1027  C1035   1.404   .     A
C1027  H1207   1.084   .     S
C1028  C1188   1.394   .     A
C1028  H1208   1.084   .     S
C1028  C704    1.404   1_655 S
C1029  C1123   1.463   .     S
C1030  C1124   1.463   .     S
C1031  C1121   1.463   .     S
C1032  C1122   1.463   .     S
C1033  C1127   1.463   .     S
C1034  C1128   1.463   .     S
C1035  C1125   1.463   .     S
C1036  C1126   1.463   .     S
O1041  C457    1.281   1_565 A
O1042  C1122   1.281   .     A
O1043  C1123   1.280   .     A
O1044  C792    1.280   1_655 A
O1045  C1121   1.280   .     S
O1046  C458    1.280   1_565 S
O1047  C791    1.280   1_655 S
O1048  C1124   1.280   .     S
O1049  C1125   1.281   .     S
O1050  C1126   1.281   .     S
O1051  C1127   1.280   .     A
O1052  C1128   1.280   .     S
O1053  C1125   1.280   .     S
O1054  C1126   1.280   .     S
O1055  C1127   1.280   .     A
O1056  C1128   1.280   .     S
H1057  C1105   1.084   .     S
H1058  C1106   1.084   .     S
H1059  C1107   1.084   .     S
H1060  C1108   1.084   .     S
H1061  C1109   1.084   .     S
H1062  C1110   1.084   .     S
H1063  C1111   1.084   .     S
H1064  C1112   1.084   .     S
H1065  C1113   1.084   .     S
H1066  C1114   1.084   .     S
H1067  C1115   1.084   .     S
H1068  C1116   1.084   .     S
H1069  C1117   1.084   .     S
H1070  C1118   1.084   .     S
H1071  C1119   1.084   .     S
H1072  C1120   1.084   .     S
O1073  C1129   1.280   .     A
O1074  C1130   1.280   .     A
O1075  C1131   1.279   .     A
O1076  C1132   1.279   .     A
O1077  C1133   1.279   .     A
O1078  C1134   1.279   .     A
O1079  C1135   1.279   .     A
O1080  C1136   1.279   .     A
O1081  C1137   1.279   .     A
O1082  C1138   1.280   .     A
O1083  C1139   1.279   .     A
O1084  C1140   1.279   .     A
O1085  C1141   1.279   .     A
O1086  C1142   1.279   .     A
O1087  C1143   1.279   .     A
O1088  C1144   1.279   .     A
O1089  Zn668   1.933   1_655 S
O1089  C1139   1.280   .     A
O1090  C1140   1.280   .     A
O1091  C1137   1.279   .     A
O1091  Zn338   1.934   1_565 S
O1092  C1138   1.279   .     A
O1093  C1143   1.279   .     A
O1094  C1144   1.279   .     A
O1094  Zn671   1.934   1_655 S
O1095  C1141   1.279   .     A
O1096  Zn333   1.934   1_565 S
O1096  C1142   1.279   .     A
O1097  C1131   1.280   .     A
O1097  Zn667   1.933   1_655 S
O1098  C1132   1.279   .     A
O1099  C1129   1.279   .     A
O1100  C1130   1.279   .     A
O1100  Zn334   1.934   1_565 S
O1101  C1135   1.279   .     A
O1102  C1136   1.279   .     A
O1102  Zn672   1.933   1_655 S
O1103  Zn337   1.934   1_565 S
O1103  C1133   1.279   .     A
O1104  C1134   1.279   .     A
C1105  C1110   1.395   .     A
C1105  C1177   1.402   .     A
C1106  C1178   1.402   .     A
C1106  C1109   1.395   .     A
C1107  C1179   1.402   .     A
C1107  C1112   1.395   .     A
C1108  C1180   1.402   .     A
C1108  C1111   1.395   .     A
C1109  C1181   1.402   .     A
C1110  C1182   1.402   .     A
C1111  C1183   1.402   .     A
C1112  C1184   1.402   .     A
C1113  C1185   1.402   .     A
C1113  C1118   1.395   1_556 S
C1114  C1186   1.402   .     A
C1114  C1117   1.395   1_554 S
C1115  C1187   1.402   .     A
C1115  C1120   1.395   1_556 S
C1116  C1188   1.402   .     A
C1116  C1119   1.395   1_554 S
C1117  C1189   1.402   .     A
C1117  C1114   1.395   1_556 S
C1118  C1190   1.402   .     A
C1118  C1113   1.395   1_554 S
C1119  C1191   1.402   .     A
C1119  C1116   1.395   1_556 S
C1120  C1192   1.402   .     A
C1120  C1115   1.395   1_554 S
C1129  C1211   1.454   .     S
C1130  C1212   1.454   .     S
C1131  C1213   1.454   .     S
C1132  C1214   1.454   .     S
C1133  C1215   1.454   .     S
C1134  C1216   1.454   .     S
C1135  C1209   1.454   .     S
C1136  C1210   1.454   .     S
C1137  C1219   1.454   .     S
C1138  C1220   1.454   .     S
C1139  C1221   1.454   .     S
C1140  C1222   1.454   .     S
C1141  C1223   1.454   .     S
C1142  C1224   1.454   .     S
C1143  C1217   1.454   .     S
C1144  C1218   1.454   .     S
C1145  N1233   1.437   .     S
C1145  C1160   1.398   .     A
C1145  C1224   1.409   .     A
C1146  C1159   1.398   .     A
C1146  N1236   1.435   .     S
C1146  C1223   1.409   .     A
C1147  N1239   1.437   .     S
C1147  C1158   1.398   .     A
C1147  C1222   1.409   .     A
C1148  C1221   1.409   .     A
C1148  C1157   1.398   .     A
C1148  N1242   1.437   .     S
C1149  C1220   1.409   .     A
C1149  C1156   1.398   .     A
C1149  N1245   1.435   .     S
C1150  N1248   1.436   .     S
C1150  C1155   1.398   .     A
C1150  C1219   1.409   .     A
C1151  C1154   1.398   .     A
C1151  N1251   1.436   .     S
C1151  C1218   1.409   .     A
C1152  C1153   1.398   .     A
C1152  N1254   1.437   .     S
C1152  C1217   1.409   .     A
C1153  N1257   1.435   .     S
C1153  C1216   1.409   .     A
C1154  C1215   1.409   .     A
C1154  N1260   1.436   .     S
C1155  C1214   1.409   .     A
C1155  N1263   1.435   .     S
C1156  C1213   1.409   .     A
C1156  N1266   1.437   .     S
C1157  C1212   1.409   .     A
C1157  N1269   1.435   .     S
C1158  N1272   1.435   .     S
C1158  C1211   1.409   .     A
C1159  N1275   1.437   .     S
C1159  C1210   1.409   .     A
C1160  N1278   1.435   .     S
C1160  C1209   1.409   .     A
C1161  N1281   1.435   .     S
C1161  C1210   1.409   .     A
C1161  C1176   1.398   .     A
C1162  N1284   1.437   .     S
C1162  C1209   1.409   .     A
C1162  C1175   1.398   .     A
C1163  C1174   1.398   .     A
C1163  N1287   1.437   .     S
C1163  C1212   1.409   .     A
C1164  C1211   1.409   .     A
C1164  C1173   1.398   .     A
C1164  N1290   1.437   .     S
C1165  C1214   1.409   .     A
C1165  C1172   1.398   .     A
C1165  N1293   1.437   .     S
C1166  N1296   1.435   .     S
C1166  C1213   1.409   .     A
C1166  C1171   1.398   .     A
C1167  C1216   1.409   .     A
C1167  N1299   1.437   .     S
C1167  C1170   1.398   .     A
C1168  C1215   1.409   .     A
C1168  C1169   1.398   .     A
C1168  N1302   1.435   .     S
C1169  C1218   1.409   .     A
C1169  N1305   1.437   .     S
C1170  C1217   1.409   .     A
C1170  N1308   1.435   .     S
C1171  N1311   1.437   .     S
C1171  C1220   1.409   .     A
C1172  C1219   1.409   .     A
C1172  N1314   1.435   .     S
C1173  N1317   1.435   .     S
C1173  C1222   1.409   .     A
C1174  C1221   1.409   .     A
C1174  N1320   1.435   .     S
C1175  C1224   1.409   .     A
C1175  N1323   1.435   .     S
C1176  N1326   1.437   .     S
C1176  C1223   1.409   .     A
C1177  C1225   1.411   .     S
C1178  C894    1.411   1_655 A
C1179  C563    1.411   1_565 A
C1180  C1228   1.411   .     S
C1181  C893    1.411   1_655 A
C1182  C1226   1.411   .     S
C1183  C1227   1.411   .     S
C1184  C564    1.411   1_565 A
C1185  C565    1.411   1_565 S
C1186  C1230   1.411   .     A
C1187  C1231   1.411   .     A
C1188  C900    1.411   1_655 S
C1189  C1229   1.411   .     A
C1190  C566    1.411   1_565 S
C1191  C899    1.411   1_655 S
C1192  C1232   1.411   .     A
C1225  C1226   1.403   .     A
C1227  C1228   1.403   .     A
C1229  C1230   1.403   1_556 S
C1230  C1229   1.403   1_554 S
C1231  C1232   1.403   1_556 S
C1232  C1231   1.403   1_554 S
N1233  O1234   1.301   .     A
N1233  O1235   1.301   .     A
N1236  O1237   1.301   .     A
N1236  O1238   1.301   .     A
N1239  O1240   1.301   .     A
N1239  O1241   1.301   .     A
N1242  O1243   1.301   .     A
N1242  O1244   1.301   .     A
N1245  O1247   1.301   .     A
N1245  O1246   1.301   .     A
N1248  O1249   1.301   .     A
N1248  O1250   1.301   .     A
N1251  O1253   1.301   .     A
N1251  O1252   1.301   .     A
N1254  O1255   1.301   .     A
N1254  O1256   1.300   .     A
N1257  O1258   1.301   .     A
N1257  O1259   1.301   .     A
N1260  O1261   1.301   .     A
N1260  O1262   1.301   .     A
N1263  O1265   1.301   .     A
N1263  O1264   1.301   .     A
N1266  O1268   1.301   .     A
N1266  O1267   1.301   .     A
N1269  O1271   1.301   .     A
N1269  O1270   1.301   .     A
N1272  O1273   1.301   .     A
N1272  O1274   1.301   .     A
N1275  O1277   1.301   .     A
N1275  O1276   1.301   .     A
N1278  O1279   1.301   .     A
N1278  O1280   1.301   .     A
N1281  O1283   1.301   .     A
N1281  O1282   1.301   .     A
N1284  O1286   1.301   .     A
N1284  O1285   1.301   .     A
N1287  O1288   1.301   .     A
N1287  O1289   1.301   .     A
N1290  O1291   1.301   .     A
N1290  O1292   1.301   .     A
N1293  O1295   1.301   .     A
N1293  O1294   1.301   .     A
N1296  O1297   1.301   .     A
N1296  O1298   1.301   .     A
N1299  O1301   1.301   .     A
N1299  O1300   1.301   .     A
N1302  O1303   1.301   .     A
N1302  O1304   1.301   .     A
N1305  O1307   1.301   .     A
N1305  O1306   1.301   .     A
N1308  O1309   1.301   .     A
N1308  O1310   1.301   .     A
N1311  O1312   1.301   .     A
N1311  O1313   1.301   .     A
N1314  O1316   1.301   .     A
N1314  O1315   1.301   .     A
N1317  O1318   1.301   .     A
N1317  O1319   1.301   .     A
N1320  O1321   1.301   .     A
N1320  O1322   1.301   .     A
N1323  O1325   1.301   .     A
N1323  O1324   1.301   .     A
N1326  O1327   1.301   .     A
N1326  O1328   1.301   .     A
