data_str_m1_o10_o16_pcu_sym.132
_audit_creation_date              2020-01-03
_audit_creation_method            'Materials Studio'
_symmetry_space_group_name_H-M    'P1'
_symmetry_Int_Tables_number       1
_symmetry_cell_setting            triclinic
loop_
_symmetry_equiv_pos_as_xyz
  x,y,z
_cell_length_a                    32.6887
_cell_length_b                    32.4735
_cell_length_c                    31.0576
_cell_angle_alpha                 95.9447
_cell_angle_beta                  74.5157
_cell_angle_gamma                 98.1270
loop_
_atom_site_label
_atom_site_type_symbol
_atom_site_fract_x
_atom_site_fract_y
_atom_site_fract_z
_atom_site_U_iso_or_equiv
_atom_site_adp_type
_atom_site_occupancy
Zn1    Zn    0.19338   0.13994   0.28734   0.00000  Uiso   1.00
Zn2    Zn    0.13379   0.12458   0.21875   0.00000  Uiso   1.00
Zn3    Zn    0.21056   0.19775   0.20657   0.00000  Uiso   1.00
Zn4    Zn    0.12893   0.20439   0.28733   0.00000  Uiso   1.00
O5     O     0.16667   0.16667   0.25000   0.00000  Uiso   1.00
O6     O     0.07071   0.18878   0.28213   0.00000  Uiso   1.00
O7     O     0.25491   0.15226   0.27013   0.00000  Uiso   1.00
O8     O     0.13760   0.06944   0.23413   0.00000  Uiso   1.00
O9     O     0.20345   0.25620   0.21360   0.00000  Uiso   1.00
O10    O     0.15451   0.12637   0.15458   0.00000  Uiso   1.00
O11    O     0.12940   0.20391   0.34968   0.00000  Uiso   1.00
O12    O     0.20824   0.17759   0.14606   0.00000  Uiso   1.00
O13    O     0.17451   0.15880   0.34968   0.00000  Uiso   1.00
O14    O     0.17930   0.08019   0.28213   0.00000  Uiso   1.00
O15    O     0.14632   0.26085   0.27013   0.00000  Uiso   1.00
O16    O     0.07412   0.13291   0.23413   0.00000  Uiso   1.00
O17    O     0.26693   0.19272   0.21360   0.00000  Uiso   1.00
C18    C     0.05311   0.16026   0.25961   0.00000  Uiso   1.00
C19    C     0.28073   0.17369   0.24019   0.00000  Uiso   1.00
C20    C     0.15631   0.05595   0.26027   0.00000  Uiso   1.00
C21    C     0.17663   0.27794   0.24014   0.00000  Uiso   1.00
C22    C     0.18560   0.14838   0.12944   0.00000  Uiso   1.00
C23    C     0.14913   0.18510   0.37085   0.00000  Uiso   1.00
C24    C     0.24874   0.13639   0.01067   0.00000  Uiso   1.00
H25    H     0.25712   0.12434   0.07441   0.00000  Uiso   1.00
H26    H     0.26972   0.16051   0.42624   0.00000  Uiso   1.00
C27    C     0.19498   0.14249   0.08104   0.00000  Uiso   1.00
C28    C     0.09786   0.19921   0.44344   0.00000  Uiso   1.00
C29    C     0.08375   0.19628   0.48938   0.00000  Uiso   1.00
C30    C     0.10968   0.18280   0.01271   0.00000  Uiso   1.00
C31    C     0.15176   0.17388   0.49069   0.00000  Uiso   1.00
C32    C     0.16706   0.17989   0.44418   0.00000  Uiso   1.00
C33    C     0.17919   0.15936   0.01320   0.00000  Uiso   1.00
C34    C     0.22147   0.15162   0.48895   0.00000  Uiso   1.00
C35    C     0.23673   0.16210   0.44448   0.00000  Uiso   1.00
C36    C     0.21034   0.17665   0.42285   0.00000  Uiso   1.00
C37    C     0.16651   0.15364   0.05943   0.00000  Uiso   1.00
C38    C     0.23553   0.13337   0.05691   0.00000  Uiso   1.00
C39    C     0.13886   0.18981   0.42016   0.00000  Uiso   1.00
H40    H     0.13590   0.16048   0.08040   0.00000  Uiso   1.00
H41    H     0.07590   0.20721   0.42582   0.00000  Uiso   1.00
H42    H     0.09562   0.17986   0.04792   0.00000  Uiso   1.00
H43    H     0.05181   0.20313   0.00688   0.00000  Uiso   1.00
H44    H     0.22485   0.18624   0.38932   0.00000  Uiso   1.00
C45    C     0.32635   0.17484   0.23607   0.00000  Uiso   1.00
H46    H     0.01535   0.18958   0.20771   0.00000  Uiso   1.00
C47    C     0.00770   0.15767   0.26587   0.00000  Uiso   1.00
C48    C     0.18048   0.32254   0.23632   0.00000  Uiso   1.00
H49    H     0.20640   0.00373   0.21057   0.00000  Uiso   1.00
C50    C     0.15234   0.01186   0.26426   0.00000  Uiso   1.00
H51    H     0.12618   0.33148   0.29028   0.00000  Uiso   1.00
N52    N     0.31339   0.14068   0.30604   0.00000  Uiso   1.00
H53    H     0.33078   0.12470   0.32129   0.00000  Uiso   1.00
H54    H     0.30329   0.16580   0.32844   0.00000  Uiso   1.00
N55    N     0.28993   0.12449   0.48660   0.00000  Uiso   1.00
O56    O     0.29376   0.10050   0.44982   0.00000  Uiso   1.00
O57    O     0.32171   0.13113   0.00528   0.00000  Uiso   1.00
Zn58   Zn    0.52672   0.13994   0.28734   0.00000  Uiso   1.00
Zn59   Zn    0.46713   0.12458   0.21875   0.00000  Uiso   1.00
Zn60   Zn    0.54389   0.19775   0.20657   0.00000  Uiso   1.00
Zn61   Zn    0.46226   0.20439   0.28733   0.00000  Uiso   1.00
O62    O     0.50000   0.16667   0.25000   0.00000  Uiso   1.00
O63    O     0.40405   0.18878   0.28213   0.00000  Uiso   1.00
O64    O     0.58824   0.15226   0.27013   0.00000  Uiso   1.00
O65    O     0.47093   0.06944   0.23413   0.00000  Uiso   1.00
O66    O     0.53678   0.25620   0.21360   0.00000  Uiso   1.00
O67    O     0.48784   0.12637   0.15458   0.00000  Uiso   1.00
O68    O     0.46274   0.20391   0.34968   0.00000  Uiso   1.00
O69    O     0.54157   0.17759   0.14606   0.00000  Uiso   1.00
O70    O     0.50785   0.15880   0.34968   0.00000  Uiso   1.00
O71    O     0.51264   0.08019   0.28213   0.00000  Uiso   1.00
O72    O     0.47965   0.26085   0.27013   0.00000  Uiso   1.00
O73    O     0.40745   0.13291   0.23413   0.00000  Uiso   1.00
O74    O     0.60026   0.19272   0.21360   0.00000  Uiso   1.00
C75    C     0.38645   0.16026   0.25961   0.00000  Uiso   1.00
C76    C     0.61407   0.17369   0.24019   0.00000  Uiso   1.00
C77    C     0.48964   0.05595   0.26027   0.00000  Uiso   1.00
C78    C     0.50996   0.27794   0.24014   0.00000  Uiso   1.00
C79    C     0.51893   0.14838   0.12944   0.00000  Uiso   1.00
C80    C     0.48246   0.18510   0.37085   0.00000  Uiso   1.00
C81    C     0.58207   0.13639   0.01067   0.00000  Uiso   1.00
H82    H     0.59045   0.12434   0.07441   0.00000  Uiso   1.00
H83    H     0.60305   0.16051   0.42624   0.00000  Uiso   1.00
C84    C     0.52831   0.14249   0.08104   0.00000  Uiso   1.00
C85    C     0.43120   0.19921   0.44344   0.00000  Uiso   1.00
C86    C     0.41708   0.19628   0.48938   0.00000  Uiso   1.00
C87    C     0.44301   0.18280   0.01271   0.00000  Uiso   1.00
C88    C     0.48509   0.17388   0.49069   0.00000  Uiso   1.00
C89    C     0.50039   0.17989   0.44418   0.00000  Uiso   1.00
C90    C     0.51252   0.15936   0.01320   0.00000  Uiso   1.00
C91    C     0.55480   0.15162   0.48895   0.00000  Uiso   1.00
C92    C     0.57006   0.16210   0.44448   0.00000  Uiso   1.00
C93    C     0.54368   0.17665   0.42285   0.00000  Uiso   1.00
C94    C     0.49984   0.15364   0.05943   0.00000  Uiso   1.00
C95    C     0.56886   0.13337   0.05691   0.00000  Uiso   1.00
C96    C     0.47219   0.18981   0.42016   0.00000  Uiso   1.00
H97    H     0.46923   0.16048   0.08040   0.00000  Uiso   1.00
H98    H     0.40924   0.20721   0.42582   0.00000  Uiso   1.00
H99    H     0.42895   0.17986   0.04792   0.00000  Uiso   1.00
H100   H     0.38514   0.20313   0.00688   0.00000  Uiso   1.00
H101   H     0.55818   0.18624   0.38932   0.00000  Uiso   1.00
C102   C     0.65968   0.17484   0.23607   0.00000  Uiso   1.00
H103   H     0.34868   0.18958   0.20771   0.00000  Uiso   1.00
C104   C     0.34103   0.15767   0.26587   0.00000  Uiso   1.00
C105   C     0.51381   0.32254   0.23632   0.00000  Uiso   1.00
H106   H     0.53973   0.00373   0.21057   0.00000  Uiso   1.00
C107   C     0.48568   0.01186   0.26426   0.00000  Uiso   1.00
H108   H     0.45951   0.33148   0.29028   0.00000  Uiso   1.00
N109   N     0.64673   0.14068   0.30604   0.00000  Uiso   1.00
H110   H     0.66412   0.12470   0.32129   0.00000  Uiso   1.00
H111   H     0.63662   0.16580   0.32844   0.00000  Uiso   1.00
N112   N     0.62327   0.12449   0.48660   0.00000  Uiso   1.00
O113   O     0.62709   0.10050   0.44982   0.00000  Uiso   1.00
O114   O     0.65504   0.13113   0.00528   0.00000  Uiso   1.00
Zn115  Zn    0.86005   0.13994   0.28734   0.00000  Uiso   1.00
Zn116  Zn    0.80046   0.12458   0.21875   0.00000  Uiso   1.00
Zn117  Zn    0.87723   0.19775   0.20657   0.00000  Uiso   1.00
Zn118  Zn    0.79560   0.20439   0.28733   0.00000  Uiso   1.00
O119   O     0.83333   0.16667   0.25000   0.00000  Uiso   1.00
O120   O     0.73738   0.18878   0.28213   0.00000  Uiso   1.00
O121   O     0.92158   0.15226   0.27013   0.00000  Uiso   1.00
O122   O     0.80426   0.06944   0.23413   0.00000  Uiso   1.00
O123   O     0.87012   0.25620   0.21360   0.00000  Uiso   1.00
O124   O     0.82118   0.12637   0.15458   0.00000  Uiso   1.00
O125   O     0.79607   0.20391   0.34968   0.00000  Uiso   1.00
O126   O     0.87491   0.17759   0.14606   0.00000  Uiso   1.00
O127   O     0.84118   0.15880   0.34968   0.00000  Uiso   1.00
O128   O     0.84597   0.08019   0.28213   0.00000  Uiso   1.00
O129   O     0.81298   0.26085   0.27013   0.00000  Uiso   1.00
O130   O     0.74078   0.13291   0.23413   0.00000  Uiso   1.00
O131   O     0.93360   0.19272   0.21360   0.00000  Uiso   1.00
C132   C     0.71978   0.16026   0.25961   0.00000  Uiso   1.00
C133   C     0.94740   0.17369   0.24019   0.00000  Uiso   1.00
C134   C     0.82298   0.05595   0.26027   0.00000  Uiso   1.00
C135   C     0.84330   0.27794   0.24014   0.00000  Uiso   1.00
C136   C     0.85227   0.14838   0.12944   0.00000  Uiso   1.00
C137   C     0.81579   0.18510   0.37085   0.00000  Uiso   1.00
C138   C     0.91540   0.13639   0.01067   0.00000  Uiso   1.00
H139   H     0.92378   0.12434   0.07441   0.00000  Uiso   1.00
H140   H     0.93638   0.16051   0.42624   0.00000  Uiso   1.00
C141   C     0.86165   0.14249   0.08104   0.00000  Uiso   1.00
C142   C     0.76453   0.19921   0.44344   0.00000  Uiso   1.00
C143   C     0.75042   0.19628   0.48938   0.00000  Uiso   1.00
C144   C     0.77635   0.18280   0.01271   0.00000  Uiso   1.00
C145   C     0.81842   0.17388   0.49069   0.00000  Uiso   1.00
C146   C     0.83372   0.17989   0.44418   0.00000  Uiso   1.00
C147   C     0.84586   0.15936   0.01320   0.00000  Uiso   1.00
C148   C     0.88813   0.15162   0.48895   0.00000  Uiso   1.00
C149   C     0.90339   0.16210   0.44448   0.00000  Uiso   1.00
C150   C     0.87701   0.17665   0.42285   0.00000  Uiso   1.00
C151   C     0.83318   0.15364   0.05943   0.00000  Uiso   1.00
C152   C     0.90219   0.13337   0.05691   0.00000  Uiso   1.00
C153   C     0.80552   0.18981   0.42016   0.00000  Uiso   1.00
H154   H     0.80257   0.16048   0.08040   0.00000  Uiso   1.00
H155   H     0.74257   0.20721   0.42582   0.00000  Uiso   1.00
H156   H     0.76228   0.17986   0.04792   0.00000  Uiso   1.00
H157   H     0.71847   0.20313   0.00688   0.00000  Uiso   1.00
H158   H     0.89151   0.18624   0.38932   0.00000  Uiso   1.00
C159   C     0.99301   0.17484   0.23607   0.00000  Uiso   1.00
H160   H     0.68202   0.18958   0.20771   0.00000  Uiso   1.00
C161   C     0.67437   0.15767   0.26587   0.00000  Uiso   1.00
C162   C     0.84714   0.32254   0.23632   0.00000  Uiso   1.00
H163   H     0.87307   0.00373   0.21057   0.00000  Uiso   1.00
C164   C     0.81901   0.01186   0.26426   0.00000  Uiso   1.00
H165   H     0.79285   0.33148   0.29028   0.00000  Uiso   1.00
N166   N     0.98006   0.14068   0.30604   0.00000  Uiso   1.00
H167   H     0.99745   0.12470   0.32129   0.00000  Uiso   1.00
H168   H     0.96996   0.16580   0.32844   0.00000  Uiso   1.00
N169   N     0.95660   0.12449   0.48660   0.00000  Uiso   1.00
O170   O     0.96042   0.10050   0.44982   0.00000  Uiso   1.00
O171   O     0.98838   0.13113   0.00528   0.00000  Uiso   1.00
Zn172  Zn    0.19338   0.47327   0.28734   0.00000  Uiso   1.00
Zn173  Zn    0.13379   0.45791   0.21875   0.00000  Uiso   1.00
Zn174  Zn    0.21056   0.53109   0.20657   0.00000  Uiso   1.00
Zn175  Zn    0.12893   0.53773   0.28733   0.00000  Uiso   1.00
O176   O     0.16667   0.50000   0.25000   0.00000  Uiso   1.00
O177   O     0.07071   0.52211   0.28213   0.00000  Uiso   1.00
O178   O     0.25491   0.48559   0.27013   0.00000  Uiso   1.00
O179   O     0.13760   0.40277   0.23413   0.00000  Uiso   1.00
O180   O     0.20345   0.58953   0.21360   0.00000  Uiso   1.00
O181   O     0.15451   0.45970   0.15458   0.00000  Uiso   1.00
O182   O     0.12940   0.53724   0.34968   0.00000  Uiso   1.00
O183   O     0.20824   0.51092   0.14606   0.00000  Uiso   1.00
O184   O     0.17451   0.49213   0.34968   0.00000  Uiso   1.00
O185   O     0.17930   0.41352   0.28213   0.00000  Uiso   1.00
O186   O     0.14632   0.59418   0.27013   0.00000  Uiso   1.00
O187   O     0.07412   0.46625   0.23413   0.00000  Uiso   1.00
O188   O     0.26693   0.52605   0.21360   0.00000  Uiso   1.00
C189   C     0.05311   0.49360   0.25961   0.00000  Uiso   1.00
C190   C     0.28073   0.50702   0.24019   0.00000  Uiso   1.00
C191   C     0.15631   0.38928   0.26027   0.00000  Uiso   1.00
C192   C     0.17663   0.61127   0.24014   0.00000  Uiso   1.00
C193   C     0.18560   0.48171   0.12944   0.00000  Uiso   1.00
C194   C     0.14913   0.51843   0.37085   0.00000  Uiso   1.00
C195   C     0.24874   0.46973   0.01067   0.00000  Uiso   1.00
H196   H     0.25712   0.45767   0.07441   0.00000  Uiso   1.00
H197   H     0.26972   0.49384   0.42624   0.00000  Uiso   1.00
C198   C     0.19498   0.47582   0.08104   0.00000  Uiso   1.00
C199   C     0.09786   0.53254   0.44344   0.00000  Uiso   1.00
C200   C     0.08375   0.52962   0.48938   0.00000  Uiso   1.00
C201   C     0.10968   0.51613   0.01271   0.00000  Uiso   1.00
C202   C     0.15176   0.50721   0.49069   0.00000  Uiso   1.00
C203   C     0.16706   0.51323   0.44418   0.00000  Uiso   1.00
C204   C     0.17919   0.49269   0.01320   0.00000  Uiso   1.00
C205   C     0.22147   0.48495   0.48895   0.00000  Uiso   1.00
C206   C     0.23673   0.49543   0.44448   0.00000  Uiso   1.00
C207   C     0.21034   0.50998   0.42285   0.00000  Uiso   1.00
C208   C     0.16651   0.48698   0.05943   0.00000  Uiso   1.00
C209   C     0.23553   0.46670   0.05691   0.00000  Uiso   1.00
C210   C     0.13886   0.52314   0.42016   0.00000  Uiso   1.00
H211   H     0.13590   0.49381   0.08040   0.00000  Uiso   1.00
H212   H     0.07590   0.54054   0.42582   0.00000  Uiso   1.00
H213   H     0.09562   0.51319   0.04792   0.00000  Uiso   1.00
H214   H     0.05181   0.53646   0.00688   0.00000  Uiso   1.00
H215   H     0.22485   0.51957   0.38932   0.00000  Uiso   1.00
C216   C     0.32635   0.50817   0.23607   0.00000  Uiso   1.00
H217   H     0.01535   0.52291   0.20771   0.00000  Uiso   1.00
C218   C     0.00770   0.49100   0.26587   0.00000  Uiso   1.00
C219   C     0.18048   0.65588   0.23632   0.00000  Uiso   1.00
H220   H     0.20640   0.33707   0.21057   0.00000  Uiso   1.00
C221   C     0.15234   0.34519   0.26426   0.00000  Uiso   1.00
H222   H     0.12618   0.66481   0.29028   0.00000  Uiso   1.00
N223   N     0.31339   0.47401   0.30604   0.00000  Uiso   1.00
H224   H     0.33078   0.45803   0.32129   0.00000  Uiso   1.00
H225   H     0.30329   0.49913   0.32844   0.00000  Uiso   1.00
N226   N     0.28993   0.45783   0.48660   0.00000  Uiso   1.00
O227   O     0.29376   0.43384   0.44982   0.00000  Uiso   1.00
O228   O     0.32171   0.46447   0.00528   0.00000  Uiso   1.00
Zn229  Zn    0.52672   0.47327   0.28734   0.00000  Uiso   1.00
Zn230  Zn    0.46713   0.45791   0.21875   0.00000  Uiso   1.00
Zn231  Zn    0.54389   0.53109   0.20657   0.00000  Uiso   1.00
Zn232  Zn    0.46226   0.53773   0.28733   0.00000  Uiso   1.00
O233   O     0.50000   0.50000   0.25000   0.00000  Uiso   1.00
O234   O     0.40405   0.52211   0.28213   0.00000  Uiso   1.00
O235   O     0.58824   0.48559   0.27013   0.00000  Uiso   1.00
O236   O     0.47093   0.40277   0.23413   0.00000  Uiso   1.00
O237   O     0.53678   0.58953   0.21360   0.00000  Uiso   1.00
O238   O     0.48784   0.45970   0.15458   0.00000  Uiso   1.00
O239   O     0.46274   0.53724   0.34968   0.00000  Uiso   1.00
O240   O     0.54157   0.51092   0.14606   0.00000  Uiso   1.00
O241   O     0.50785   0.49213   0.34968   0.00000  Uiso   1.00
O242   O     0.51264   0.41352   0.28213   0.00000  Uiso   1.00
O243   O     0.47965   0.59418   0.27013   0.00000  Uiso   1.00
O244   O     0.40745   0.46625   0.23413   0.00000  Uiso   1.00
O245   O     0.60026   0.52605   0.21360   0.00000  Uiso   1.00
C246   C     0.38645   0.49360   0.25961   0.00000  Uiso   1.00
C247   C     0.61407   0.50702   0.24019   0.00000  Uiso   1.00
C248   C     0.48964   0.38928   0.26027   0.00000  Uiso   1.00
C249   C     0.50996   0.61127   0.24014   0.00000  Uiso   1.00
C250   C     0.51893   0.48171   0.12944   0.00000  Uiso   1.00
C251   C     0.48246   0.51843   0.37085   0.00000  Uiso   1.00
C252   C     0.58207   0.46973   0.01067   0.00000  Uiso   1.00
H253   H     0.59045   0.45767   0.07441   0.00000  Uiso   1.00
H254   H     0.60305   0.49384   0.42624   0.00000  Uiso   1.00
C255   C     0.52831   0.47582   0.08104   0.00000  Uiso   1.00
C256   C     0.43120   0.53254   0.44344   0.00000  Uiso   1.00
C257   C     0.41708   0.52962   0.48938   0.00000  Uiso   1.00
C258   C     0.44301   0.51613   0.01271   0.00000  Uiso   1.00
C259   C     0.48509   0.50721   0.49069   0.00000  Uiso   1.00
C260   C     0.50039   0.51323   0.44418   0.00000  Uiso   1.00
C261   C     0.51252   0.49269   0.01320   0.00000  Uiso   1.00
C262   C     0.55480   0.48495   0.48895   0.00000  Uiso   1.00
C263   C     0.57006   0.49543   0.44448   0.00000  Uiso   1.00
C264   C     0.54368   0.50998   0.42285   0.00000  Uiso   1.00
C265   C     0.49984   0.48698   0.05943   0.00000  Uiso   1.00
C266   C     0.56886   0.46670   0.05691   0.00000  Uiso   1.00
C267   C     0.47219   0.52314   0.42016   0.00000  Uiso   1.00
H268   H     0.46923   0.49381   0.08040   0.00000  Uiso   1.00
H269   H     0.40924   0.54054   0.42582   0.00000  Uiso   1.00
H270   H     0.42895   0.51319   0.04792   0.00000  Uiso   1.00
H271   H     0.38514   0.53646   0.00688   0.00000  Uiso   1.00
H272   H     0.55818   0.51957   0.38932   0.00000  Uiso   1.00
C273   C     0.65968   0.50817   0.23607   0.00000  Uiso   1.00
H274   H     0.34868   0.52291   0.20771   0.00000  Uiso   1.00
C275   C     0.34103   0.49100   0.26587   0.00000  Uiso   1.00
C276   C     0.51381   0.65588   0.23632   0.00000  Uiso   1.00
H277   H     0.53973   0.33707   0.21057   0.00000  Uiso   1.00
C278   C     0.48568   0.34519   0.26426   0.00000  Uiso   1.00
H279   H     0.45951   0.66481   0.29028   0.00000  Uiso   1.00
N280   N     0.64673   0.47401   0.30604   0.00000  Uiso   1.00
H281   H     0.66412   0.45803   0.32129   0.00000  Uiso   1.00
H282   H     0.63662   0.49913   0.32844   0.00000  Uiso   1.00
N283   N     0.62327   0.45783   0.48660   0.00000  Uiso   1.00
O284   O     0.62709   0.43384   0.44982   0.00000  Uiso   1.00
O285   O     0.65504   0.46447   0.00528   0.00000  Uiso   1.00
Zn286  Zn    0.86005   0.47327   0.28734   0.00000  Uiso   1.00
Zn287  Zn    0.80046   0.45791   0.21875   0.00000  Uiso   1.00
Zn288  Zn    0.87723   0.53109   0.20657   0.00000  Uiso   1.00
Zn289  Zn    0.79560   0.53773   0.28733   0.00000  Uiso   1.00
O290   O     0.83333   0.50000   0.25000   0.00000  Uiso   1.00
O291   O     0.73738   0.52211   0.28213   0.00000  Uiso   1.00
O292   O     0.92158   0.48559   0.27013   0.00000  Uiso   1.00
O293   O     0.80426   0.40277   0.23413   0.00000  Uiso   1.00
O294   O     0.87012   0.58953   0.21360   0.00000  Uiso   1.00
O295   O     0.82118   0.45970   0.15458   0.00000  Uiso   1.00
O296   O     0.79607   0.53724   0.34968   0.00000  Uiso   1.00
O297   O     0.87491   0.51092   0.14606   0.00000  Uiso   1.00
O298   O     0.84118   0.49213   0.34968   0.00000  Uiso   1.00
O299   O     0.84597   0.41352   0.28213   0.00000  Uiso   1.00
O300   O     0.81298   0.59418   0.27013   0.00000  Uiso   1.00
O301   O     0.74078   0.46625   0.23413   0.00000  Uiso   1.00
O302   O     0.93360   0.52605   0.21360   0.00000  Uiso   1.00
C303   C     0.71978   0.49360   0.25961   0.00000  Uiso   1.00
C304   C     0.94740   0.50702   0.24019   0.00000  Uiso   1.00
C305   C     0.82298   0.38928   0.26027   0.00000  Uiso   1.00
C306   C     0.84330   0.61127   0.24014   0.00000  Uiso   1.00
C307   C     0.85227   0.48171   0.12944   0.00000  Uiso   1.00
C308   C     0.81579   0.51843   0.37085   0.00000  Uiso   1.00
C309   C     0.91540   0.46973   0.01067   0.00000  Uiso   1.00
H310   H     0.92378   0.45767   0.07441   0.00000  Uiso   1.00
H311   H     0.93638   0.49384   0.42624   0.00000  Uiso   1.00
C312   C     0.86165   0.47582   0.08104   0.00000  Uiso   1.00
C313   C     0.76453   0.53254   0.44344   0.00000  Uiso   1.00
C314   C     0.75042   0.52962   0.48938   0.00000  Uiso   1.00
C315   C     0.77635   0.51613   0.01271   0.00000  Uiso   1.00
C316   C     0.81842   0.50721   0.49069   0.00000  Uiso   1.00
C317   C     0.83372   0.51323   0.44418   0.00000  Uiso   1.00
C318   C     0.84586   0.49269   0.01320   0.00000  Uiso   1.00
C319   C     0.88813   0.48495   0.48895   0.00000  Uiso   1.00
C320   C     0.90339   0.49543   0.44448   0.00000  Uiso   1.00
C321   C     0.87701   0.50998   0.42285   0.00000  Uiso   1.00
C322   C     0.83318   0.48698   0.05943   0.00000  Uiso   1.00
C323   C     0.90219   0.46670   0.05691   0.00000  Uiso   1.00
C324   C     0.80552   0.52314   0.42016   0.00000  Uiso   1.00
H325   H     0.80257   0.49381   0.08040   0.00000  Uiso   1.00
H326   H     0.74257   0.54054   0.42582   0.00000  Uiso   1.00
H327   H     0.76228   0.51319   0.04792   0.00000  Uiso   1.00
H328   H     0.71847   0.53646   0.00688   0.00000  Uiso   1.00
H329   H     0.89151   0.51957   0.38932   0.00000  Uiso   1.00
C330   C     0.99301   0.50817   0.23607   0.00000  Uiso   1.00
H331   H     0.68202   0.52291   0.20771   0.00000  Uiso   1.00
C332   C     0.67437   0.49100   0.26587   0.00000  Uiso   1.00
C333   C     0.84714   0.65588   0.23632   0.00000  Uiso   1.00
H334   H     0.87307   0.33707   0.21057   0.00000  Uiso   1.00
C335   C     0.81901   0.34519   0.26426   0.00000  Uiso   1.00
H336   H     0.79285   0.66481   0.29028   0.00000  Uiso   1.00
N337   N     0.98006   0.47401   0.30604   0.00000  Uiso   1.00
H338   H     0.99745   0.45803   0.32129   0.00000  Uiso   1.00
H339   H     0.96996   0.49913   0.32844   0.00000  Uiso   1.00
N340   N     0.95660   0.45783   0.48660   0.00000  Uiso   1.00
O341   O     0.96042   0.43384   0.44982   0.00000  Uiso   1.00
O342   O     0.98838   0.46447   0.00528   0.00000  Uiso   1.00
Zn343  Zn    0.19338   0.80661   0.28734   0.00000  Uiso   1.00
Zn344  Zn    0.13379   0.79124   0.21875   0.00000  Uiso   1.00
Zn345  Zn    0.21056   0.86442   0.20657   0.00000  Uiso   1.00
Zn346  Zn    0.12893   0.87106   0.28733   0.00000  Uiso   1.00
O347   O     0.16667   0.83333   0.25000   0.00000  Uiso   1.00
O348   O     0.07071   0.85544   0.28213   0.00000  Uiso   1.00
O349   O     0.25491   0.81892   0.27013   0.00000  Uiso   1.00
O350   O     0.13760   0.73610   0.23413   0.00000  Uiso   1.00
O351   O     0.20345   0.92286   0.21360   0.00000  Uiso   1.00
O352   O     0.15451   0.79304   0.15458   0.00000  Uiso   1.00
O353   O     0.12940   0.87058   0.34968   0.00000  Uiso   1.00
O354   O     0.20824   0.84425   0.14606   0.00000  Uiso   1.00
O355   O     0.17451   0.82546   0.34968   0.00000  Uiso   1.00
O356   O     0.17930   0.74686   0.28213   0.00000  Uiso   1.00
O357   O     0.14632   0.92751   0.27013   0.00000  Uiso   1.00
O358   O     0.07412   0.79958   0.23413   0.00000  Uiso   1.00
O359   O     0.26693   0.85939   0.21360   0.00000  Uiso   1.00
C360   C     0.05311   0.82693   0.25961   0.00000  Uiso   1.00
C361   C     0.28073   0.84035   0.24019   0.00000  Uiso   1.00
C362   C     0.15631   0.72261   0.26027   0.00000  Uiso   1.00
C363   C     0.17663   0.94460   0.24014   0.00000  Uiso   1.00
C364   C     0.18560   0.81505   0.12944   0.00000  Uiso   1.00
C365   C     0.14913   0.85177   0.37085   0.00000  Uiso   1.00
C366   C     0.24874   0.80306   0.01067   0.00000  Uiso   1.00
H367   H     0.25712   0.79100   0.07441   0.00000  Uiso   1.00
H368   H     0.26972   0.82717   0.42624   0.00000  Uiso   1.00
C369   C     0.19498   0.80916   0.08104   0.00000  Uiso   1.00
C370   C     0.09786   0.86588   0.44344   0.00000  Uiso   1.00
C371   C     0.08375   0.86295   0.48938   0.00000  Uiso   1.00
C372   C     0.10968   0.84946   0.01271   0.00000  Uiso   1.00
C373   C     0.15176   0.84054   0.49069   0.00000  Uiso   1.00
C374   C     0.16706   0.84656   0.44418   0.00000  Uiso   1.00
C375   C     0.17919   0.82603   0.01320   0.00000  Uiso   1.00
C376   C     0.22147   0.81829   0.48895   0.00000  Uiso   1.00
C377   C     0.23673   0.82876   0.44448   0.00000  Uiso   1.00
C378   C     0.21034   0.84331   0.42285   0.00000  Uiso   1.00
C379   C     0.16651   0.82031   0.05943   0.00000  Uiso   1.00
C380   C     0.23553   0.80003   0.05691   0.00000  Uiso   1.00
C381   C     0.13886   0.85647   0.42016   0.00000  Uiso   1.00
H382   H     0.13590   0.82715   0.08040   0.00000  Uiso   1.00
H383   H     0.07590   0.87388   0.42582   0.00000  Uiso   1.00
H384   H     0.09562   0.84653   0.04792   0.00000  Uiso   1.00
H385   H     0.05181   0.86979   0.00688   0.00000  Uiso   1.00
H386   H     0.22485   0.85291   0.38932   0.00000  Uiso   1.00
C387   C     0.32635   0.84150   0.23607   0.00000  Uiso   1.00
H388   H     0.01535   0.85624   0.20771   0.00000  Uiso   1.00
C389   C     0.00770   0.82433   0.26587   0.00000  Uiso   1.00
C390   C     0.18048   0.98921   0.23632   0.00000  Uiso   1.00
H391   H     0.20640   0.67040   0.21057   0.00000  Uiso   1.00
C392   C     0.15234   0.67852   0.26426   0.00000  Uiso   1.00
H393   H     0.12618   0.99814   0.29028   0.00000  Uiso   1.00
N394   N     0.31339   0.80735   0.30604   0.00000  Uiso   1.00
H395   H     0.33078   0.79137   0.32129   0.00000  Uiso   1.00
H396   H     0.30329   0.83247   0.32844   0.00000  Uiso   1.00
N397   N     0.28993   0.79116   0.48660   0.00000  Uiso   1.00
O398   O     0.29376   0.76717   0.44982   0.00000  Uiso   1.00
O399   O     0.32171   0.79780   0.00528   0.00000  Uiso   1.00
Zn400  Zn    0.52672   0.80661   0.28734   0.00000  Uiso   1.00
Zn401  Zn    0.46713   0.79124   0.21875   0.00000  Uiso   1.00
Zn402  Zn    0.54389   0.86442   0.20657   0.00000  Uiso   1.00
Zn403  Zn    0.46226   0.87106   0.28733   0.00000  Uiso   1.00
O404   O     0.50000   0.83333   0.25000   0.00000  Uiso   1.00
O405   O     0.40405   0.85544   0.28213   0.00000  Uiso   1.00
O406   O     0.58824   0.81892   0.27013   0.00000  Uiso   1.00
O407   O     0.47093   0.73610   0.23413   0.00000  Uiso   1.00
O408   O     0.53678   0.92286   0.21360   0.00000  Uiso   1.00
O409   O     0.48784   0.79304   0.15458   0.00000  Uiso   1.00
O410   O     0.46274   0.87058   0.34968   0.00000  Uiso   1.00
O411   O     0.54157   0.84425   0.14606   0.00000  Uiso   1.00
O412   O     0.50785   0.82546   0.34968   0.00000  Uiso   1.00
O413   O     0.51264   0.74686   0.28213   0.00000  Uiso   1.00
O414   O     0.47965   0.92751   0.27013   0.00000  Uiso   1.00
O415   O     0.40745   0.79958   0.23413   0.00000  Uiso   1.00
O416   O     0.60026   0.85939   0.21360   0.00000  Uiso   1.00
C417   C     0.38645   0.82693   0.25961   0.00000  Uiso   1.00
C418   C     0.61407   0.84035   0.24019   0.00000  Uiso   1.00
C419   C     0.48964   0.72261   0.26027   0.00000  Uiso   1.00
C420   C     0.50996   0.94460   0.24014   0.00000  Uiso   1.00
C421   C     0.51893   0.81505   0.12944   0.00000  Uiso   1.00
C422   C     0.48246   0.85177   0.37085   0.00000  Uiso   1.00
C423   C     0.58207   0.80306   0.01067   0.00000  Uiso   1.00
H424   H     0.59045   0.79100   0.07441   0.00000  Uiso   1.00
H425   H     0.60305   0.82717   0.42624   0.00000  Uiso   1.00
C426   C     0.52831   0.80916   0.08104   0.00000  Uiso   1.00
C427   C     0.43120   0.86588   0.44344   0.00000  Uiso   1.00
C428   C     0.41708   0.86295   0.48938   0.00000  Uiso   1.00
C429   C     0.44301   0.84946   0.01271   0.00000  Uiso   1.00
C430   C     0.48509   0.84054   0.49069   0.00000  Uiso   1.00
C431   C     0.50039   0.84656   0.44418   0.00000  Uiso   1.00
C432   C     0.51252   0.82603   0.01320   0.00000  Uiso   1.00
C433   C     0.55480   0.81829   0.48895   0.00000  Uiso   1.00
C434   C     0.57006   0.82876   0.44448   0.00000  Uiso   1.00
C435   C     0.54368   0.84331   0.42285   0.00000  Uiso   1.00
C436   C     0.49984   0.82031   0.05943   0.00000  Uiso   1.00
C437   C     0.56886   0.80003   0.05691   0.00000  Uiso   1.00
C438   C     0.47219   0.85647   0.42016   0.00000  Uiso   1.00
H439   H     0.46923   0.82715   0.08040   0.00000  Uiso   1.00
H440   H     0.40924   0.87388   0.42582   0.00000  Uiso   1.00
H441   H     0.42895   0.84653   0.04792   0.00000  Uiso   1.00
H442   H     0.38514   0.86979   0.00688   0.00000  Uiso   1.00
H443   H     0.55818   0.85291   0.38932   0.00000  Uiso   1.00
C444   C     0.65968   0.84150   0.23607   0.00000  Uiso   1.00
H445   H     0.34868   0.85624   0.20771   0.00000  Uiso   1.00
C446   C     0.34103   0.82433   0.26587   0.00000  Uiso   1.00
C447   C     0.51381   0.98921   0.23632   0.00000  Uiso   1.00
H448   H     0.53973   0.67040   0.21057   0.00000  Uiso   1.00
C449   C     0.48568   0.67852   0.26426   0.00000  Uiso   1.00
H450   H     0.45951   0.99814   0.29028   0.00000  Uiso   1.00
N451   N     0.64673   0.80735   0.30604   0.00000  Uiso   1.00
H452   H     0.66412   0.79137   0.32129   0.00000  Uiso   1.00
H453   H     0.63662   0.83247   0.32844   0.00000  Uiso   1.00
N454   N     0.62327   0.79116   0.48660   0.00000  Uiso   1.00
O455   O     0.62709   0.76717   0.44982   0.00000  Uiso   1.00
O456   O     0.65504   0.79780   0.00528   0.00000  Uiso   1.00
Zn457  Zn    0.86005   0.80661   0.28734   0.00000  Uiso   1.00
Zn458  Zn    0.80046   0.79124   0.21875   0.00000  Uiso   1.00
Zn459  Zn    0.87723   0.86442   0.20657   0.00000  Uiso   1.00
Zn460  Zn    0.79560   0.87106   0.28733   0.00000  Uiso   1.00
O461   O     0.83333   0.83333   0.25000   0.00000  Uiso   1.00
O462   O     0.73738   0.85544   0.28213   0.00000  Uiso   1.00
O463   O     0.92158   0.81892   0.27013   0.00000  Uiso   1.00
O464   O     0.80426   0.73610   0.23413   0.00000  Uiso   1.00
O465   O     0.87012   0.92286   0.21360   0.00000  Uiso   1.00
O466   O     0.82118   0.79304   0.15458   0.00000  Uiso   1.00
O467   O     0.79607   0.87058   0.34968   0.00000  Uiso   1.00
O468   O     0.87491   0.84425   0.14606   0.00000  Uiso   1.00
O469   O     0.84118   0.82546   0.34968   0.00000  Uiso   1.00
O470   O     0.84597   0.74686   0.28213   0.00000  Uiso   1.00
O471   O     0.81298   0.92751   0.27013   0.00000  Uiso   1.00
O472   O     0.74078   0.79958   0.23413   0.00000  Uiso   1.00
O473   O     0.93360   0.85939   0.21360   0.00000  Uiso   1.00
C474   C     0.71978   0.82693   0.25961   0.00000  Uiso   1.00
C475   C     0.94740   0.84035   0.24019   0.00000  Uiso   1.00
C476   C     0.82298   0.72261   0.26027   0.00000  Uiso   1.00
C477   C     0.84330   0.94460   0.24014   0.00000  Uiso   1.00
C478   C     0.85227   0.81505   0.12944   0.00000  Uiso   1.00
C479   C     0.81579   0.85177   0.37085   0.00000  Uiso   1.00
C480   C     0.91540   0.80306   0.01067   0.00000  Uiso   1.00
H481   H     0.92378   0.79100   0.07441   0.00000  Uiso   1.00
H482   H     0.93638   0.82717   0.42624   0.00000  Uiso   1.00
C483   C     0.86165   0.80916   0.08104   0.00000  Uiso   1.00
C484   C     0.76453   0.86588   0.44344   0.00000  Uiso   1.00
C485   C     0.75042   0.86295   0.48938   0.00000  Uiso   1.00
C486   C     0.77635   0.84946   0.01271   0.00000  Uiso   1.00
C487   C     0.81842   0.84054   0.49069   0.00000  Uiso   1.00
C488   C     0.83372   0.84656   0.44418   0.00000  Uiso   1.00
C489   C     0.84586   0.82603   0.01320   0.00000  Uiso   1.00
C490   C     0.88813   0.81829   0.48895   0.00000  Uiso   1.00
C491   C     0.90339   0.82876   0.44448   0.00000  Uiso   1.00
C492   C     0.87701   0.84331   0.42285   0.00000  Uiso   1.00
C493   C     0.83318   0.82031   0.05943   0.00000  Uiso   1.00
C494   C     0.90219   0.80003   0.05691   0.00000  Uiso   1.00
C495   C     0.80552   0.85647   0.42016   0.00000  Uiso   1.00
H496   H     0.80257   0.82715   0.08040   0.00000  Uiso   1.00
H497   H     0.74257   0.87388   0.42582   0.00000  Uiso   1.00
H498   H     0.76228   0.84653   0.04792   0.00000  Uiso   1.00
H499   H     0.71847   0.86979   0.00688   0.00000  Uiso   1.00
H500   H     0.89151   0.85291   0.38932   0.00000  Uiso   1.00
C501   C     0.99301   0.84150   0.23607   0.00000  Uiso   1.00
H502   H     0.68202   0.85624   0.20771   0.00000  Uiso   1.00
C503   C     0.67437   0.82433   0.26587   0.00000  Uiso   1.00
C504   C     0.84714   0.98921   0.23632   0.00000  Uiso   1.00
H505   H     0.87307   0.67040   0.21057   0.00000  Uiso   1.00
C506   C     0.81901   0.67852   0.26426   0.00000  Uiso   1.00
H507   H     0.79285   0.99814   0.29028   0.00000  Uiso   1.00
N508   N     0.98006   0.80735   0.30604   0.00000  Uiso   1.00
H509   H     0.99745   0.79137   0.32129   0.00000  Uiso   1.00
H510   H     0.96996   0.83247   0.32844   0.00000  Uiso   1.00
N511   N     0.95660   0.79116   0.48660   0.00000  Uiso   1.00
O512   O     0.96042   0.76717   0.44982   0.00000  Uiso   1.00
O513   O     0.98838   0.79780   0.00528   0.00000  Uiso   1.00
Zn514  Zn    0.19338   0.13994   0.78734   0.00000  Uiso   1.00
Zn515  Zn    0.13379   0.12458   0.71875   0.00000  Uiso   1.00
Zn516  Zn    0.21056   0.19775   0.70657   0.00000  Uiso   1.00
Zn517  Zn    0.12893   0.20439   0.78733   0.00000  Uiso   1.00
O518   O     0.16667   0.16667   0.75000   0.00000  Uiso   1.00
O519   O     0.07071   0.18878   0.78213   0.00000  Uiso   1.00
O520   O     0.25491   0.15226   0.77013   0.00000  Uiso   1.00
O521   O     0.13760   0.06944   0.73413   0.00000  Uiso   1.00
O522   O     0.20345   0.25620   0.71360   0.00000  Uiso   1.00
O523   O     0.15451   0.12637   0.65458   0.00000  Uiso   1.00
O524   O     0.12940   0.20391   0.84968   0.00000  Uiso   1.00
O525   O     0.20824   0.17759   0.64606   0.00000  Uiso   1.00
O526   O     0.17451   0.15880   0.84968   0.00000  Uiso   1.00
O527   O     0.17930   0.08019   0.78213   0.00000  Uiso   1.00
O528   O     0.14632   0.26085   0.77013   0.00000  Uiso   1.00
O529   O     0.07412   0.13291   0.73413   0.00000  Uiso   1.00
O530   O     0.26693   0.19272   0.71360   0.00000  Uiso   1.00
C531   C     0.05311   0.16026   0.75961   0.00000  Uiso   1.00
C532   C     0.28073   0.17369   0.74019   0.00000  Uiso   1.00
C533   C     0.15631   0.05595   0.76027   0.00000  Uiso   1.00
C534   C     0.17663   0.27794   0.74014   0.00000  Uiso   1.00
C535   C     0.18560   0.14838   0.62944   0.00000  Uiso   1.00
C536   C     0.14913   0.18510   0.87085   0.00000  Uiso   1.00
C537   C     0.24874   0.13639   0.51067   0.00000  Uiso   1.00
H538   H     0.25712   0.12434   0.57441   0.00000  Uiso   1.00
H539   H     0.26972   0.16051   0.92624   0.00000  Uiso   1.00
C540   C     0.19498   0.14249   0.58104   0.00000  Uiso   1.00
C541   C     0.09786   0.19921   0.94344   0.00000  Uiso   1.00
C542   C     0.08375   0.19628   0.98938   0.00000  Uiso   1.00
C543   C     0.10968   0.18280   0.51271   0.00000  Uiso   1.00
C544   C     0.15176   0.17388   0.99069   0.00000  Uiso   1.00
C545   C     0.16706   0.17989   0.94418   0.00000  Uiso   1.00
C546   C     0.17919   0.15936   0.51320   0.00000  Uiso   1.00
C547   C     0.22147   0.15162   0.98895   0.00000  Uiso   1.00
C548   C     0.23673   0.16210   0.94448   0.00000  Uiso   1.00
C549   C     0.21034   0.17665   0.92285   0.00000  Uiso   1.00
C550   C     0.16651   0.15364   0.55943   0.00000  Uiso   1.00
C551   C     0.23553   0.13337   0.55691   0.00000  Uiso   1.00
C552   C     0.13886   0.18981   0.92016   0.00000  Uiso   1.00
H553   H     0.13590   0.16048   0.58040   0.00000  Uiso   1.00
H554   H     0.07590   0.20721   0.92582   0.00000  Uiso   1.00
H555   H     0.09562   0.17986   0.54792   0.00000  Uiso   1.00
H556   H     0.05181   0.20313   0.50688   0.00000  Uiso   1.00
H557   H     0.22485   0.18624   0.88932   0.00000  Uiso   1.00
C558   C     0.32635   0.17484   0.73607   0.00000  Uiso   1.00
H559   H     0.01535   0.18958   0.70771   0.00000  Uiso   1.00
C560   C     0.00770   0.15767   0.76587   0.00000  Uiso   1.00
C561   C     0.18048   0.32254   0.73632   0.00000  Uiso   1.00
H562   H     0.20640   0.00373   0.71057   0.00000  Uiso   1.00
C563   C     0.15234   0.01186   0.76426   0.00000  Uiso   1.00
H564   H     0.12618   0.33148   0.79028   0.00000  Uiso   1.00
N565   N     0.31339   0.14068   0.80604   0.00000  Uiso   1.00
H566   H     0.33078   0.12470   0.82129   0.00000  Uiso   1.00
H567   H     0.30329   0.16580   0.82844   0.00000  Uiso   1.00
N568   N     0.28993   0.12449   0.98660   0.00000  Uiso   1.00
O569   O     0.29376   0.10050   0.94982   0.00000  Uiso   1.00
O570   O     0.32171   0.13113   0.50528   0.00000  Uiso   1.00
Zn571  Zn    0.52672   0.13994   0.78734   0.00000  Uiso   1.00
Zn572  Zn    0.46713   0.12458   0.71875   0.00000  Uiso   1.00
Zn573  Zn    0.54389   0.19775   0.70657   0.00000  Uiso   1.00
Zn574  Zn    0.46226   0.20439   0.78733   0.00000  Uiso   1.00
O575   O     0.50000   0.16667   0.75000   0.00000  Uiso   1.00
O576   O     0.40405   0.18878   0.78213   0.00000  Uiso   1.00
O577   O     0.58824   0.15226   0.77013   0.00000  Uiso   1.00
O578   O     0.47093   0.06944   0.73413   0.00000  Uiso   1.00
O579   O     0.53678   0.25620   0.71360   0.00000  Uiso   1.00
O580   O     0.48784   0.12637   0.65458   0.00000  Uiso   1.00
O581   O     0.46274   0.20391   0.84968   0.00000  Uiso   1.00
O582   O     0.54157   0.17759   0.64606   0.00000  Uiso   1.00
O583   O     0.50785   0.15880   0.84968   0.00000  Uiso   1.00
O584   O     0.51264   0.08019   0.78213   0.00000  Uiso   1.00
O585   O     0.47965   0.26085   0.77013   0.00000  Uiso   1.00
O586   O     0.40745   0.13291   0.73413   0.00000  Uiso   1.00
O587   O     0.60026   0.19272   0.71360   0.00000  Uiso   1.00
C588   C     0.38645   0.16026   0.75961   0.00000  Uiso   1.00
C589   C     0.61407   0.17369   0.74019   0.00000  Uiso   1.00
C590   C     0.48964   0.05595   0.76027   0.00000  Uiso   1.00
C591   C     0.50996   0.27794   0.74014   0.00000  Uiso   1.00
C592   C     0.51893   0.14838   0.62944   0.00000  Uiso   1.00
C593   C     0.48246   0.18510   0.87085   0.00000  Uiso   1.00
C594   C     0.58207   0.13639   0.51067   0.00000  Uiso   1.00
H595   H     0.59045   0.12434   0.57441   0.00000  Uiso   1.00
H596   H     0.60305   0.16051   0.92624   0.00000  Uiso   1.00
C597   C     0.52831   0.14249   0.58104   0.00000  Uiso   1.00
C598   C     0.43120   0.19921   0.94344   0.00000  Uiso   1.00
C599   C     0.41708   0.19628   0.98938   0.00000  Uiso   1.00
C600   C     0.44301   0.18280   0.51271   0.00000  Uiso   1.00
C601   C     0.48509   0.17388   0.99069   0.00000  Uiso   1.00
C602   C     0.50039   0.17989   0.94418   0.00000  Uiso   1.00
C603   C     0.51252   0.15936   0.51320   0.00000  Uiso   1.00
C604   C     0.55480   0.15162   0.98895   0.00000  Uiso   1.00
C605   C     0.57006   0.16210   0.94448   0.00000  Uiso   1.00
C606   C     0.54368   0.17665   0.92285   0.00000  Uiso   1.00
C607   C     0.49984   0.15364   0.55943   0.00000  Uiso   1.00
C608   C     0.56886   0.13337   0.55691   0.00000  Uiso   1.00
C609   C     0.47219   0.18981   0.92016   0.00000  Uiso   1.00
H610   H     0.46923   0.16048   0.58040   0.00000  Uiso   1.00
H611   H     0.40924   0.20721   0.92582   0.00000  Uiso   1.00
H612   H     0.42895   0.17986   0.54792   0.00000  Uiso   1.00
H613   H     0.38514   0.20313   0.50688   0.00000  Uiso   1.00
H614   H     0.55818   0.18624   0.88932   0.00000  Uiso   1.00
C615   C     0.65968   0.17484   0.73607   0.00000  Uiso   1.00
H616   H     0.34868   0.18958   0.70771   0.00000  Uiso   1.00
C617   C     0.34103   0.15767   0.76587   0.00000  Uiso   1.00
C618   C     0.51381   0.32254   0.73632   0.00000  Uiso   1.00
H619   H     0.53973   0.00373   0.71057   0.00000  Uiso   1.00
C620   C     0.48568   0.01186   0.76426   0.00000  Uiso   1.00
H621   H     0.45951   0.33148   0.79028   0.00000  Uiso   1.00
N622   N     0.64673   0.14068   0.80604   0.00000  Uiso   1.00
H623   H     0.66412   0.12470   0.82129   0.00000  Uiso   1.00
H624   H     0.63662   0.16580   0.82844   0.00000  Uiso   1.00
N625   N     0.62327   0.12449   0.98660   0.00000  Uiso   1.00
O626   O     0.62709   0.10050   0.94982   0.00000  Uiso   1.00
O627   O     0.65504   0.13113   0.50528   0.00000  Uiso   1.00
Zn628  Zn    0.86005   0.13994   0.78734   0.00000  Uiso   1.00
Zn629  Zn    0.80046   0.12458   0.71875   0.00000  Uiso   1.00
Zn630  Zn    0.87723   0.19775   0.70657   0.00000  Uiso   1.00
Zn631  Zn    0.79560   0.20439   0.78733   0.00000  Uiso   1.00
O632   O     0.83333   0.16667   0.75000   0.00000  Uiso   1.00
O633   O     0.73738   0.18878   0.78213   0.00000  Uiso   1.00
O634   O     0.92158   0.15226   0.77013   0.00000  Uiso   1.00
O635   O     0.80426   0.06944   0.73413   0.00000  Uiso   1.00
O636   O     0.87012   0.25620   0.71360   0.00000  Uiso   1.00
O637   O     0.82118   0.12637   0.65458   0.00000  Uiso   1.00
O638   O     0.79607   0.20391   0.84968   0.00000  Uiso   1.00
O639   O     0.87491   0.17759   0.64606   0.00000  Uiso   1.00
O640   O     0.84118   0.15880   0.84968   0.00000  Uiso   1.00
O641   O     0.84597   0.08019   0.78213   0.00000  Uiso   1.00
O642   O     0.81298   0.26085   0.77013   0.00000  Uiso   1.00
O643   O     0.74078   0.13291   0.73413   0.00000  Uiso   1.00
O644   O     0.93360   0.19272   0.71360   0.00000  Uiso   1.00
C645   C     0.71978   0.16026   0.75961   0.00000  Uiso   1.00
C646   C     0.94740   0.17369   0.74019   0.00000  Uiso   1.00
C647   C     0.82298   0.05595   0.76027   0.00000  Uiso   1.00
C648   C     0.84330   0.27794   0.74014   0.00000  Uiso   1.00
C649   C     0.85227   0.14838   0.62944   0.00000  Uiso   1.00
C650   C     0.81579   0.18510   0.87085   0.00000  Uiso   1.00
C651   C     0.91540   0.13639   0.51067   0.00000  Uiso   1.00
H652   H     0.92378   0.12434   0.57441   0.00000  Uiso   1.00
H653   H     0.93638   0.16051   0.92624   0.00000  Uiso   1.00
C654   C     0.86165   0.14249   0.58104   0.00000  Uiso   1.00
C655   C     0.76453   0.19921   0.94344   0.00000  Uiso   1.00
C656   C     0.75042   0.19628   0.98938   0.00000  Uiso   1.00
C657   C     0.77635   0.18280   0.51271   0.00000  Uiso   1.00
C658   C     0.81842   0.17388   0.99069   0.00000  Uiso   1.00
C659   C     0.83372   0.17989   0.94418   0.00000  Uiso   1.00
C660   C     0.84586   0.15936   0.51320   0.00000  Uiso   1.00
C661   C     0.88813   0.15162   0.98895   0.00000  Uiso   1.00
C662   C     0.90339   0.16210   0.94448   0.00000  Uiso   1.00
C663   C     0.87701   0.17665   0.92285   0.00000  Uiso   1.00
C664   C     0.83318   0.15364   0.55943   0.00000  Uiso   1.00
C665   C     0.90219   0.13337   0.55691   0.00000  Uiso   1.00
C666   C     0.80552   0.18981   0.92016   0.00000  Uiso   1.00
H667   H     0.80257   0.16048   0.58040   0.00000  Uiso   1.00
H668   H     0.74257   0.20721   0.92582   0.00000  Uiso   1.00
H669   H     0.76228   0.17986   0.54792   0.00000  Uiso   1.00
H670   H     0.71847   0.20313   0.50688   0.00000  Uiso   1.00
H671   H     0.89151   0.18624   0.88932   0.00000  Uiso   1.00
C672   C     0.99301   0.17484   0.73607   0.00000  Uiso   1.00
H673   H     0.68202   0.18958   0.70771   0.00000  Uiso   1.00
C674   C     0.67437   0.15767   0.76587   0.00000  Uiso   1.00
C675   C     0.84714   0.32254   0.73632   0.00000  Uiso   1.00
H676   H     0.87307   0.00373   0.71057   0.00000  Uiso   1.00
C677   C     0.81901   0.01186   0.76426   0.00000  Uiso   1.00
H678   H     0.79285   0.33148   0.79028   0.00000  Uiso   1.00
N679   N     0.98006   0.14068   0.80604   0.00000  Uiso   1.00
H680   H     0.99745   0.12470   0.82129   0.00000  Uiso   1.00
H681   H     0.96996   0.16580   0.82844   0.00000  Uiso   1.00
N682   N     0.95660   0.12449   0.98660   0.00000  Uiso   1.00
O683   O     0.96042   0.10050   0.94982   0.00000  Uiso   1.00
O684   O     0.98838   0.13113   0.50528   0.00000  Uiso   1.00
Zn685  Zn    0.19338   0.47327   0.78734   0.00000  Uiso   1.00
Zn686  Zn    0.13379   0.45791   0.71875   0.00000  Uiso   1.00
Zn687  Zn    0.21056   0.53109   0.70657   0.00000  Uiso   1.00
Zn688  Zn    0.12893   0.53773   0.78733   0.00000  Uiso   1.00
O689   O     0.16667   0.50000   0.75000   0.00000  Uiso   1.00
O690   O     0.07071   0.52211   0.78213   0.00000  Uiso   1.00
O691   O     0.25491   0.48559   0.77013   0.00000  Uiso   1.00
O692   O     0.13760   0.40277   0.73413   0.00000  Uiso   1.00
O693   O     0.20345   0.58953   0.71360   0.00000  Uiso   1.00
O694   O     0.15451   0.45970   0.65458   0.00000  Uiso   1.00
O695   O     0.12940   0.53724   0.84968   0.00000  Uiso   1.00
O696   O     0.20824   0.51092   0.64606   0.00000  Uiso   1.00
O697   O     0.17451   0.49213   0.84968   0.00000  Uiso   1.00
O698   O     0.17930   0.41352   0.78213   0.00000  Uiso   1.00
O699   O     0.14632   0.59418   0.77013   0.00000  Uiso   1.00
O700   O     0.07412   0.46625   0.73413   0.00000  Uiso   1.00
O701   O     0.26693   0.52605   0.71360   0.00000  Uiso   1.00
C702   C     0.05311   0.49360   0.75961   0.00000  Uiso   1.00
C703   C     0.28073   0.50702   0.74019   0.00000  Uiso   1.00
C704   C     0.15631   0.38928   0.76027   0.00000  Uiso   1.00
C705   C     0.17663   0.61127   0.74014   0.00000  Uiso   1.00
C706   C     0.18560   0.48171   0.62944   0.00000  Uiso   1.00
C707   C     0.14913   0.51843   0.87085   0.00000  Uiso   1.00
C708   C     0.24874   0.46973   0.51067   0.00000  Uiso   1.00
H709   H     0.25712   0.45767   0.57441   0.00000  Uiso   1.00
H710   H     0.26972   0.49384   0.92624   0.00000  Uiso   1.00
C711   C     0.19498   0.47582   0.58104   0.00000  Uiso   1.00
C712   C     0.09786   0.53254   0.94344   0.00000  Uiso   1.00
C713   C     0.08375   0.52962   0.98938   0.00000  Uiso   1.00
C714   C     0.10968   0.51613   0.51271   0.00000  Uiso   1.00
C715   C     0.15176   0.50721   0.99069   0.00000  Uiso   1.00
C716   C     0.16706   0.51323   0.94418   0.00000  Uiso   1.00
C717   C     0.17919   0.49269   0.51320   0.00000  Uiso   1.00
C718   C     0.22147   0.48495   0.98895   0.00000  Uiso   1.00
C719   C     0.23673   0.49543   0.94448   0.00000  Uiso   1.00
C720   C     0.21034   0.50998   0.92285   0.00000  Uiso   1.00
C721   C     0.16651   0.48698   0.55943   0.00000  Uiso   1.00
C722   C     0.23553   0.46670   0.55691   0.00000  Uiso   1.00
C723   C     0.13886   0.52314   0.92016   0.00000  Uiso   1.00
H724   H     0.13590   0.49381   0.58040   0.00000  Uiso   1.00
H725   H     0.07590   0.54054   0.92582   0.00000  Uiso   1.00
H726   H     0.09562   0.51319   0.54792   0.00000  Uiso   1.00
H727   H     0.05181   0.53646   0.50688   0.00000  Uiso   1.00
H728   H     0.22485   0.51957   0.88932   0.00000  Uiso   1.00
C729   C     0.32635   0.50817   0.73607   0.00000  Uiso   1.00
H730   H     0.01535   0.52291   0.70771   0.00000  Uiso   1.00
C731   C     0.00770   0.49100   0.76587   0.00000  Uiso   1.00
C732   C     0.18048   0.65588   0.73632   0.00000  Uiso   1.00
H733   H     0.20640   0.33707   0.71057   0.00000  Uiso   1.00
C734   C     0.15234   0.34519   0.76426   0.00000  Uiso   1.00
H735   H     0.12618   0.66481   0.79028   0.00000  Uiso   1.00
N736   N     0.31339   0.47401   0.80604   0.00000  Uiso   1.00
H737   H     0.33078   0.45803   0.82129   0.00000  Uiso   1.00
H738   H     0.30329   0.49913   0.82844   0.00000  Uiso   1.00
N739   N     0.28993   0.45783   0.98660   0.00000  Uiso   1.00
O740   O     0.29376   0.43384   0.94982   0.00000  Uiso   1.00
O741   O     0.32171   0.46447   0.50528   0.00000  Uiso   1.00
Zn742  Zn    0.52672   0.47327   0.78734   0.00000  Uiso   1.00
Zn743  Zn    0.46713   0.45791   0.71875   0.00000  Uiso   1.00
Zn744  Zn    0.54389   0.53109   0.70657   0.00000  Uiso   1.00
Zn745  Zn    0.46226   0.53773   0.78733   0.00000  Uiso   1.00
O746   O     0.50000   0.50000   0.75000   0.00000  Uiso   1.00
O747   O     0.40405   0.52211   0.78213   0.00000  Uiso   1.00
O748   O     0.58824   0.48559   0.77013   0.00000  Uiso   1.00
O749   O     0.47093   0.40277   0.73413   0.00000  Uiso   1.00
O750   O     0.53678   0.58953   0.71360   0.00000  Uiso   1.00
O751   O     0.48784   0.45970   0.65458   0.00000  Uiso   1.00
O752   O     0.46274   0.53724   0.84968   0.00000  Uiso   1.00
O753   O     0.54157   0.51092   0.64606   0.00000  Uiso   1.00
O754   O     0.50785   0.49213   0.84968   0.00000  Uiso   1.00
O755   O     0.51264   0.41352   0.78213   0.00000  Uiso   1.00
O756   O     0.47965   0.59418   0.77013   0.00000  Uiso   1.00
O757   O     0.40745   0.46625   0.73413   0.00000  Uiso   1.00
O758   O     0.60026   0.52605   0.71360   0.00000  Uiso   1.00
C759   C     0.38645   0.49360   0.75961   0.00000  Uiso   1.00
C760   C     0.61407   0.50702   0.74019   0.00000  Uiso   1.00
C761   C     0.48964   0.38928   0.76027   0.00000  Uiso   1.00
C762   C     0.50996   0.61127   0.74014   0.00000  Uiso   1.00
C763   C     0.51893   0.48171   0.62944   0.00000  Uiso   1.00
C764   C     0.48246   0.51843   0.87085   0.00000  Uiso   1.00
C765   C     0.58207   0.46973   0.51067   0.00000  Uiso   1.00
H766   H     0.59045   0.45767   0.57441   0.00000  Uiso   1.00
H767   H     0.60305   0.49384   0.92624   0.00000  Uiso   1.00
C768   C     0.52831   0.47582   0.58104   0.00000  Uiso   1.00
C769   C     0.43120   0.53254   0.94344   0.00000  Uiso   1.00
C770   C     0.41708   0.52962   0.98938   0.00000  Uiso   1.00
C771   C     0.44301   0.51613   0.51271   0.00000  Uiso   1.00
C772   C     0.48509   0.50721   0.99069   0.00000  Uiso   1.00
C773   C     0.50039   0.51323   0.94418   0.00000  Uiso   1.00
C774   C     0.51252   0.49269   0.51320   0.00000  Uiso   1.00
C775   C     0.55480   0.48495   0.98895   0.00000  Uiso   1.00
C776   C     0.57006   0.49543   0.94448   0.00000  Uiso   1.00
C777   C     0.54368   0.50998   0.92285   0.00000  Uiso   1.00
C778   C     0.49984   0.48698   0.55943   0.00000  Uiso   1.00
C779   C     0.56886   0.46670   0.55691   0.00000  Uiso   1.00
C780   C     0.47219   0.52314   0.92016   0.00000  Uiso   1.00
H781   H     0.46923   0.49381   0.58040   0.00000  Uiso   1.00
H782   H     0.40924   0.54054   0.92582   0.00000  Uiso   1.00
H783   H     0.42895   0.51319   0.54792   0.00000  Uiso   1.00
H784   H     0.38514   0.53646   0.50688   0.00000  Uiso   1.00
H785   H     0.55818   0.51957   0.88932   0.00000  Uiso   1.00
C786   C     0.65968   0.50817   0.73607   0.00000  Uiso   1.00
H787   H     0.34868   0.52291   0.70771   0.00000  Uiso   1.00
C788   C     0.34103   0.49100   0.76587   0.00000  Uiso   1.00
C789   C     0.51381   0.65588   0.73632   0.00000  Uiso   1.00
H790   H     0.53973   0.33707   0.71057   0.00000  Uiso   1.00
C791   C     0.48568   0.34519   0.76426   0.00000  Uiso   1.00
H792   H     0.45951   0.66481   0.79028   0.00000  Uiso   1.00
N793   N     0.64673   0.47401   0.80604   0.00000  Uiso   1.00
H794   H     0.66412   0.45803   0.82129   0.00000  Uiso   1.00
H795   H     0.63662   0.49913   0.82844   0.00000  Uiso   1.00
N796   N     0.62327   0.45783   0.98660   0.00000  Uiso   1.00
O797   O     0.62709   0.43384   0.94982   0.00000  Uiso   1.00
O798   O     0.65504   0.46447   0.50528   0.00000  Uiso   1.00
Zn799  Zn    0.86005   0.47327   0.78734   0.00000  Uiso   1.00
Zn800  Zn    0.80046   0.45791   0.71875   0.00000  Uiso   1.00
Zn801  Zn    0.87723   0.53109   0.70657   0.00000  Uiso   1.00
Zn802  Zn    0.79560   0.53773   0.78733   0.00000  Uiso   1.00
O803   O     0.83333   0.50000   0.75000   0.00000  Uiso   1.00
O804   O     0.73738   0.52211   0.78213   0.00000  Uiso   1.00
O805   O     0.92158   0.48559   0.77013   0.00000  Uiso   1.00
O806   O     0.80426   0.40277   0.73413   0.00000  Uiso   1.00
O807   O     0.87012   0.58953   0.71360   0.00000  Uiso   1.00
O808   O     0.82118   0.45970   0.65458   0.00000  Uiso   1.00
O809   O     0.79607   0.53724   0.84968   0.00000  Uiso   1.00
O810   O     0.87491   0.51092   0.64606   0.00000  Uiso   1.00
O811   O     0.84118   0.49213   0.84968   0.00000  Uiso   1.00
O812   O     0.84597   0.41352   0.78213   0.00000  Uiso   1.00
O813   O     0.81298   0.59418   0.77013   0.00000  Uiso   1.00
O814   O     0.74078   0.46625   0.73413   0.00000  Uiso   1.00
O815   O     0.93360   0.52605   0.71360   0.00000  Uiso   1.00
C816   C     0.71978   0.49360   0.75961   0.00000  Uiso   1.00
C817   C     0.94740   0.50702   0.74019   0.00000  Uiso   1.00
C818   C     0.82298   0.38928   0.76027   0.00000  Uiso   1.00
C819   C     0.84330   0.61127   0.74014   0.00000  Uiso   1.00
C820   C     0.85227   0.48171   0.62944   0.00000  Uiso   1.00
C821   C     0.81579   0.51843   0.87085   0.00000  Uiso   1.00
C822   C     0.91540   0.46973   0.51067   0.00000  Uiso   1.00
H823   H     0.92378   0.45767   0.57441   0.00000  Uiso   1.00
H824   H     0.93638   0.49384   0.92624   0.00000  Uiso   1.00
C825   C     0.86165   0.47582   0.58104   0.00000  Uiso   1.00
C826   C     0.76453   0.53254   0.94344   0.00000  Uiso   1.00
C827   C     0.75042   0.52962   0.98938   0.00000  Uiso   1.00
C828   C     0.77635   0.51613   0.51271   0.00000  Uiso   1.00
C829   C     0.81842   0.50721   0.99069   0.00000  Uiso   1.00
C830   C     0.83372   0.51323   0.94418   0.00000  Uiso   1.00
C831   C     0.84586   0.49269   0.51320   0.00000  Uiso   1.00
C832   C     0.88813   0.48495   0.98895   0.00000  Uiso   1.00
C833   C     0.90339   0.49543   0.94448   0.00000  Uiso   1.00
C834   C     0.87701   0.50998   0.92285   0.00000  Uiso   1.00
C835   C     0.83318   0.48698   0.55943   0.00000  Uiso   1.00
C836   C     0.90219   0.46670   0.55691   0.00000  Uiso   1.00
C837   C     0.80552   0.52314   0.92016   0.00000  Uiso   1.00
H838   H     0.80257   0.49381   0.58040   0.00000  Uiso   1.00
H839   H     0.74257   0.54054   0.92582   0.00000  Uiso   1.00
H840   H     0.76228   0.51319   0.54792   0.00000  Uiso   1.00
H841   H     0.71847   0.53646   0.50688   0.00000  Uiso   1.00
H842   H     0.89151   0.51957   0.88932   0.00000  Uiso   1.00
C843   C     0.99301   0.50817   0.73607   0.00000  Uiso   1.00
H844   H     0.68202   0.52291   0.70771   0.00000  Uiso   1.00
C845   C     0.67437   0.49100   0.76587   0.00000  Uiso   1.00
C846   C     0.84714   0.65588   0.73632   0.00000  Uiso   1.00
H847   H     0.87307   0.33707   0.71057   0.00000  Uiso   1.00
C848   C     0.81901   0.34519   0.76426   0.00000  Uiso   1.00
H849   H     0.79285   0.66481   0.79028   0.00000  Uiso   1.00
N850   N     0.98006   0.47401   0.80604   0.00000  Uiso   1.00
H851   H     0.99745   0.45803   0.82129   0.00000  Uiso   1.00
H852   H     0.96996   0.49913   0.82844   0.00000  Uiso   1.00
N853   N     0.95660   0.45783   0.98660   0.00000  Uiso   1.00
O854   O     0.96042   0.43384   0.94982   0.00000  Uiso   1.00
O855   O     0.98838   0.46447   0.50528   0.00000  Uiso   1.00
Zn856  Zn    0.19338   0.80661   0.78734   0.00000  Uiso   1.00
Zn857  Zn    0.13379   0.79124   0.71875   0.00000  Uiso   1.00
Zn858  Zn    0.21056   0.86442   0.70657   0.00000  Uiso   1.00
Zn859  Zn    0.12893   0.87106   0.78733   0.00000  Uiso   1.00
O860   O     0.16667   0.83333   0.75000   0.00000  Uiso   1.00
O861   O     0.07071   0.85544   0.78213   0.00000  Uiso   1.00
O862   O     0.25491   0.81892   0.77013   0.00000  Uiso   1.00
O863   O     0.13760   0.73610   0.73413   0.00000  Uiso   1.00
O864   O     0.20345   0.92286   0.71360   0.00000  Uiso   1.00
O865   O     0.15451   0.79304   0.65458   0.00000  Uiso   1.00
O866   O     0.12940   0.87058   0.84968   0.00000  Uiso   1.00
O867   O     0.20824   0.84425   0.64606   0.00000  Uiso   1.00
O868   O     0.17451   0.82546   0.84968   0.00000  Uiso   1.00
O869   O     0.17930   0.74686   0.78213   0.00000  Uiso   1.00
O870   O     0.14632   0.92751   0.77013   0.00000  Uiso   1.00
O871   O     0.07412   0.79958   0.73413   0.00000  Uiso   1.00
O872   O     0.26693   0.85939   0.71360   0.00000  Uiso   1.00
C873   C     0.05311   0.82693   0.75961   0.00000  Uiso   1.00
C874   C     0.28073   0.84035   0.74019   0.00000  Uiso   1.00
C875   C     0.15631   0.72261   0.76027   0.00000  Uiso   1.00
C876   C     0.17663   0.94460   0.74014   0.00000  Uiso   1.00
C877   C     0.18560   0.81505   0.62944   0.00000  Uiso   1.00
C878   C     0.14913   0.85177   0.87085   0.00000  Uiso   1.00
C879   C     0.24874   0.80306   0.51067   0.00000  Uiso   1.00
H880   H     0.25712   0.79100   0.57441   0.00000  Uiso   1.00
H881   H     0.26972   0.82717   0.92624   0.00000  Uiso   1.00
C882   C     0.19498   0.80916   0.58104   0.00000  Uiso   1.00
C883   C     0.09786   0.86588   0.94344   0.00000  Uiso   1.00
C884   C     0.08375   0.86295   0.98938   0.00000  Uiso   1.00
C885   C     0.10968   0.84946   0.51271   0.00000  Uiso   1.00
C886   C     0.15176   0.84054   0.99069   0.00000  Uiso   1.00
C887   C     0.16706   0.84656   0.94418   0.00000  Uiso   1.00
C888   C     0.17919   0.82603   0.51320   0.00000  Uiso   1.00
C889   C     0.22147   0.81829   0.98895   0.00000  Uiso   1.00
C890   C     0.23673   0.82876   0.94448   0.00000  Uiso   1.00
C891   C     0.21034   0.84331   0.92285   0.00000  Uiso   1.00
C892   C     0.16651   0.82031   0.55943   0.00000  Uiso   1.00
C893   C     0.23553   0.80003   0.55691   0.00000  Uiso   1.00
C894   C     0.13886   0.85647   0.92016   0.00000  Uiso   1.00
H895   H     0.13590   0.82715   0.58040   0.00000  Uiso   1.00
H896   H     0.07590   0.87388   0.92582   0.00000  Uiso   1.00
H897   H     0.09562   0.84653   0.54792   0.00000  Uiso   1.00
H898   H     0.05181   0.86979   0.50688   0.00000  Uiso   1.00
H899   H     0.22485   0.85291   0.88932   0.00000  Uiso   1.00
C900   C     0.32635   0.84150   0.73607   0.00000  Uiso   1.00
H901   H     0.01535   0.85624   0.70771   0.00000  Uiso   1.00
C902   C     0.00770   0.82433   0.76587   0.00000  Uiso   1.00
C903   C     0.18048   0.98921   0.73632   0.00000  Uiso   1.00
H904   H     0.20640   0.67040   0.71057   0.00000  Uiso   1.00
C905   C     0.15234   0.67852   0.76426   0.00000  Uiso   1.00
H906   H     0.12618   0.99814   0.79028   0.00000  Uiso   1.00
N907   N     0.31339   0.80735   0.80604   0.00000  Uiso   1.00
H908   H     0.33078   0.79137   0.82129   0.00000  Uiso   1.00
H909   H     0.30329   0.83247   0.82844   0.00000  Uiso   1.00
N910   N     0.28993   0.79116   0.98660   0.00000  Uiso   1.00
O911   O     0.29376   0.76717   0.94982   0.00000  Uiso   1.00
O912   O     0.32171   0.79780   0.50528   0.00000  Uiso   1.00
Zn913  Zn    0.52672   0.80661   0.78734   0.00000  Uiso   1.00
Zn914  Zn    0.46713   0.79124   0.71875   0.00000  Uiso   1.00
Zn915  Zn    0.54389   0.86442   0.70657   0.00000  Uiso   1.00
Zn916  Zn    0.46226   0.87106   0.78733   0.00000  Uiso   1.00
O917   O     0.50000   0.83333   0.75000   0.00000  Uiso   1.00
O918   O     0.40405   0.85544   0.78213   0.00000  Uiso   1.00
O919   O     0.58824   0.81892   0.77013   0.00000  Uiso   1.00
O920   O     0.47093   0.73610   0.73413   0.00000  Uiso   1.00
O921   O     0.53678   0.92286   0.71360   0.00000  Uiso   1.00
O922   O     0.48784   0.79304   0.65458   0.00000  Uiso   1.00
O923   O     0.46274   0.87058   0.84968   0.00000  Uiso   1.00
O924   O     0.54157   0.84425   0.64606   0.00000  Uiso   1.00
O925   O     0.50785   0.82546   0.84968   0.00000  Uiso   1.00
O926   O     0.51264   0.74686   0.78213   0.00000  Uiso   1.00
O927   O     0.47965   0.92751   0.77013   0.00000  Uiso   1.00
O928   O     0.40745   0.79958   0.73413   0.00000  Uiso   1.00
O929   O     0.60026   0.85939   0.71360   0.00000  Uiso   1.00
C930   C     0.38645   0.82693   0.75961   0.00000  Uiso   1.00
C931   C     0.61407   0.84035   0.74019   0.00000  Uiso   1.00
C932   C     0.48964   0.72261   0.76027   0.00000  Uiso   1.00
C933   C     0.50996   0.94460   0.74014   0.00000  Uiso   1.00
C934   C     0.51893   0.81505   0.62944   0.00000  Uiso   1.00
C935   C     0.48246   0.85177   0.87085   0.00000  Uiso   1.00
C936   C     0.58207   0.80306   0.51067   0.00000  Uiso   1.00
H937   H     0.59045   0.79100   0.57441   0.00000  Uiso   1.00
H938   H     0.60305   0.82717   0.92624   0.00000  Uiso   1.00
C939   C     0.52831   0.80916   0.58104   0.00000  Uiso   1.00
C940   C     0.43120   0.86588   0.94344   0.00000  Uiso   1.00
C941   C     0.41708   0.86295   0.98938   0.00000  Uiso   1.00
C942   C     0.44301   0.84946   0.51271   0.00000  Uiso   1.00
C943   C     0.48509   0.84054   0.99069   0.00000  Uiso   1.00
C944   C     0.50039   0.84656   0.94418   0.00000  Uiso   1.00
C945   C     0.51252   0.82603   0.51320   0.00000  Uiso   1.00
C946   C     0.55480   0.81829   0.98895   0.00000  Uiso   1.00
C947   C     0.57006   0.82876   0.94448   0.00000  Uiso   1.00
C948   C     0.54368   0.84331   0.92285   0.00000  Uiso   1.00
C949   C     0.49984   0.82031   0.55943   0.00000  Uiso   1.00
C950   C     0.56886   0.80003   0.55691   0.00000  Uiso   1.00
C951   C     0.47219   0.85647   0.92016   0.00000  Uiso   1.00
H952   H     0.46923   0.82715   0.58040   0.00000  Uiso   1.00
H953   H     0.40924   0.87388   0.92582   0.00000  Uiso   1.00
H954   H     0.42895   0.84653   0.54792   0.00000  Uiso   1.00
H955   H     0.38514   0.86979   0.50688   0.00000  Uiso   1.00
H956   H     0.55818   0.85291   0.88932   0.00000  Uiso   1.00
C957   C     0.65968   0.84150   0.73607   0.00000  Uiso   1.00
H958   H     0.34868   0.85624   0.70771   0.00000  Uiso   1.00
C959   C     0.34103   0.82433   0.76587   0.00000  Uiso   1.00
C960   C     0.51381   0.98921   0.73632   0.00000  Uiso   1.00
H961   H     0.53973   0.67040   0.71057   0.00000  Uiso   1.00
C962   C     0.48568   0.67852   0.76426   0.00000  Uiso   1.00
H963   H     0.45951   0.99814   0.79028   0.00000  Uiso   1.00
N964   N     0.64673   0.80735   0.80604   0.00000  Uiso   1.00
H965   H     0.66412   0.79137   0.82129   0.00000  Uiso   1.00
H966   H     0.63662   0.83247   0.82844   0.00000  Uiso   1.00
N967   N     0.62327   0.79116   0.98660   0.00000  Uiso   1.00
O968   O     0.62709   0.76717   0.94982   0.00000  Uiso   1.00
O969   O     0.65504   0.79780   0.50528   0.00000  Uiso   1.00
Zn970  Zn    0.86005   0.80661   0.78734   0.00000  Uiso   1.00
Zn971  Zn    0.80046   0.79124   0.71875   0.00000  Uiso   1.00
Zn972  Zn    0.87723   0.86442   0.70657   0.00000  Uiso   1.00
Zn973  Zn    0.79560   0.87106   0.78733   0.00000  Uiso   1.00
O974   O     0.83333   0.83333   0.75000   0.00000  Uiso   1.00
O975   O     0.73738   0.85544   0.78213   0.00000  Uiso   1.00
O976   O     0.92158   0.81892   0.77013   0.00000  Uiso   1.00
O977   O     0.80426   0.73610   0.73413   0.00000  Uiso   1.00
O978   O     0.87012   0.92286   0.71360   0.00000  Uiso   1.00
O979   O     0.82118   0.79304   0.65458   0.00000  Uiso   1.00
O980   O     0.79607   0.87058   0.84968   0.00000  Uiso   1.00
O981   O     0.87491   0.84425   0.64606   0.00000  Uiso   1.00
O982   O     0.84118   0.82546   0.84968   0.00000  Uiso   1.00
O983   O     0.84597   0.74686   0.78213   0.00000  Uiso   1.00
O984   O     0.81298   0.92751   0.77013   0.00000  Uiso   1.00
O985   O     0.74078   0.79958   0.73413   0.00000  Uiso   1.00
O986   O     0.93360   0.85939   0.71360   0.00000  Uiso   1.00
C987   C     0.71978   0.82693   0.75961   0.00000  Uiso   1.00
C988   C     0.94740   0.84035   0.74019   0.00000  Uiso   1.00
C989   C     0.82298   0.72261   0.76027   0.00000  Uiso   1.00
C990   C     0.84330   0.94460   0.74014   0.00000  Uiso   1.00
C991   C     0.85227   0.81505   0.62944   0.00000  Uiso   1.00
C992   C     0.81579   0.85177   0.87085   0.00000  Uiso   1.00
C993   C     0.91540   0.80306   0.51067   0.00000  Uiso   1.00
H994   H     0.92378   0.79100   0.57441   0.00000  Uiso   1.00
H995   H     0.93638   0.82717   0.92624   0.00000  Uiso   1.00
C996   C     0.86165   0.80916   0.58104   0.00000  Uiso   1.00
C997   C     0.76453   0.86588   0.94344   0.00000  Uiso   1.00
C998   C     0.75042   0.86295   0.98938   0.00000  Uiso   1.00
C999   C     0.77635   0.84946   0.51271   0.00000  Uiso   1.00
C1000  C     0.81842   0.84054   0.99069   0.00000  Uiso   1.00
C1001  C     0.83372   0.84656   0.94418   0.00000  Uiso   1.00
C1002  C     0.84586   0.82603   0.51320   0.00000  Uiso   1.00
C1003  C     0.88813   0.81829   0.98895   0.00000  Uiso   1.00
C1004  C     0.90339   0.82876   0.94448   0.00000  Uiso   1.00
C1005  C     0.87701   0.84331   0.92285   0.00000  Uiso   1.00
C1006  C     0.83318   0.82031   0.55943   0.00000  Uiso   1.00
C1007  C     0.90219   0.80003   0.55691   0.00000  Uiso   1.00
C1008  C     0.80552   0.85647   0.92016   0.00000  Uiso   1.00
H1009  H     0.80257   0.82715   0.58040   0.00000  Uiso   1.00
H1010  H     0.74257   0.87388   0.92582   0.00000  Uiso   1.00
H1011  H     0.76228   0.84653   0.54792   0.00000  Uiso   1.00
H1012  H     0.71847   0.86979   0.50688   0.00000  Uiso   1.00
H1013  H     0.89151   0.85291   0.88932   0.00000  Uiso   1.00
C1014  C     0.99301   0.84150   0.73607   0.00000  Uiso   1.00
H1015  H     0.68202   0.85624   0.70771   0.00000  Uiso   1.00
C1016  C     0.67437   0.82433   0.76587   0.00000  Uiso   1.00
C1017  C     0.84714   0.98921   0.73632   0.00000  Uiso   1.00
H1018  H     0.87307   0.67040   0.71057   0.00000  Uiso   1.00
C1019  C     0.81901   0.67852   0.76426   0.00000  Uiso   1.00
H1020  H     0.79285   0.99814   0.79028   0.00000  Uiso   1.00
N1021  N     0.98006   0.80735   0.80604   0.00000  Uiso   1.00
H1022  H     0.99745   0.79137   0.82129   0.00000  Uiso   1.00
H1023  H     0.96996   0.83247   0.82844   0.00000  Uiso   1.00
N1024  N     0.95660   0.79116   0.98660   0.00000  Uiso   1.00
O1025  O     0.96042   0.76717   0.94982   0.00000  Uiso   1.00
O1026  O     0.98838   0.79780   0.50528   0.00000  Uiso   1.00
loop_
_geom_bond_atom_site_label_1
_geom_bond_atom_site_label_2
_geom_bond_distance
_geom_bond_site_symmetry_2
_ccdc_geom_bond_type
Zn1    O5      1.956   .     S
Zn1    O13     1.931   .     S
Zn1    O14     1.930   .     S
Zn1    O7      1.932   .     S
Zn2    O16     1.932   .     S
Zn2    O5      1.957   .     S
Zn2    O10     1.930   .     S
Zn2    O8      1.929   .     S
Zn3    O9      1.928   .     S
Zn3    O5      1.933   .     S
Zn3    O12     1.943   .     S
Zn3    O17     1.944   .     S
Zn4    O15     1.928   .     S
Zn4    O6      1.944   .     S
Zn4    O5      1.933   .     S
Zn4    O11     1.942   .     S
O6     C18     1.268   .     A
O7     C19     1.269   .     A
O8     C20     1.281   .     A
O9     C21     1.271   .     A
O10    C22     1.281   .     A
O11    C23     1.281   .     A
O12    C22     1.272   .     A
O13    C23     1.282   .     A
O14    C20     1.281   .     A
O15    C21     1.271   .     A
O16    C18     1.274   .     A
O17    C19     1.285   .     A
C18    C47     1.436   .     S
C19    C45     1.458   .     S
C20    C50     1.434   .     S
C21    C48     1.451   .     S
C22    C27     1.450   .     S
C23    C39     1.474   .     S
C24    C38     1.395   .     A
C24    C547    1.417   1_554 S
C24    N568    1.439   1_554 S
H25    C38     1.084   .     S
H26    C35     1.082   .     S
C27    C37     1.388   .     A
C27    C38     1.393   .     A
C28    H41     1.083   .     S
C28    C29     1.386   .     A
C28    C39     1.402   .     A
C29    C543    1.391   .     S
C29    H556    1.083   .     S
C30    H42     1.076   .     S
C30    C542    1.391   1_554 S
C30    C544    1.419   1_554 S
C31    C32     1.421   .     A
C31    C543    1.419   .     S
C31    C546    1.428   .     S
C32    C36     1.407   .     A
C32    C39     1.418   .     A
C33    C37     1.408   .     A
C33    C544    1.428   1_554 S
C33    C547    1.429   1_554 S
C34    C35     1.398   .     A
C34    C537    1.417   .     S
C34    C546    1.429   .     S
C35    C36     1.382   .     A
C36    H44     1.081   .     S
C37    H40     1.077   .     S
H43    C542    1.083   1_554 S
C45    H103    1.088   .     S
C45    C104    1.348   .     S
H46    C159    1.088   1_455 S
C47    C159    1.348   1_455 S
C47    N166    1.441   1_455 S
C48    H220    1.088   .     S
C48    C221    1.331   .     S
H49    C390    1.088   1_545 S
C50    C390    1.331   1_545 S
C50    H393    1.086   1_545 S
H51    C221    1.086   .     S
N52    H54     1.046   .     S
N52    H53     1.046   .     S
N52    C104    1.441   .     S
N55    O56     1.302   .     A
N55    C537    1.439   .     S
N55    O570    1.302   .     S
O57    N568    1.302   1_554 S
Zn58   O62     1.956   .     S
Zn58   O70     1.931   .     S
Zn58   O71     1.930   .     S
Zn58   O64     1.932   .     S
Zn59   O73     1.932   .     S
Zn59   O62     1.957   .     S
Zn59   O67     1.930   .     S
Zn59   O65     1.929   .     S
Zn60   O66     1.928   .     S
Zn60   O62     1.933   .     S
Zn60   O69     1.943   .     S
Zn60   O74     1.944   .     S
Zn61   O72     1.928   .     S
Zn61   O63     1.944   .     S
Zn61   O62     1.933   .     S
Zn61   O68     1.942   .     S
O63    C75     1.268   .     A
O64    C76     1.269   .     A
O65    C77     1.281   .     A
O66    C78     1.271   .     A
O67    C79     1.281   .     A
O68    C80     1.281   .     A
O69    C79     1.272   .     A
O70    C80     1.282   .     A
O71    C77     1.281   .     A
O72    C78     1.271   .     A
O73    C75     1.274   .     A
O74    C76     1.285   .     A
C75    C104    1.436   .     S
C76    C102    1.458   .     S
C77    C107    1.434   .     S
C78    C105    1.451   .     S
C79    C84     1.450   .     S
C80    C96     1.474   .     S
C81    C95     1.395   .     A
C81    C604    1.417   1_554 S
C81    N625    1.439   1_554 S
H82    C95     1.084   .     S
H83    C92     1.082   .     S
C84    C94     1.388   .     A
C84    C95     1.393   .     A
C85    H98     1.083   .     S
C85    C86     1.386   .     A
C85    C96     1.402   .     A
C86    C600    1.391   .     S
C86    H613    1.083   .     S
C87    H99     1.076   .     S
C87    C599    1.391   1_554 S
C87    C601    1.419   1_554 S
C88    C89     1.421   .     A
C88    C600    1.419   .     S
C88    C603    1.428   .     S
C89    C93     1.407   .     A
C89    C96     1.418   .     A
C90    C94     1.408   .     A
C90    C601    1.428   1_554 S
C90    C604    1.429   1_554 S
C91    C92     1.398   .     A
C91    C594    1.417   .     S
C91    C603    1.429   .     S
C92    C93     1.382   .     A
C93    H101    1.081   .     S
C94    H97     1.077   .     S
H100   C599    1.083   1_554 S
C102   H160    1.088   .     S
C102   C161    1.348   .     S
C105   H277    1.088   .     S
C105   C278    1.331   .     S
H106   C447    1.088   1_545 S
C107   C447    1.331   1_545 S
C107   H450    1.086   1_545 S
H108   C278    1.086   .     S
N109   H111    1.046   .     S
N109   H110    1.046   .     S
N109   C161    1.441   .     S
N112   O113    1.302   .     A
N112   C594    1.439   .     S
N112   O627    1.302   .     S
O114   N625    1.302   1_554 S
Zn115  O119    1.956   .     S
Zn115  O127    1.931   .     S
Zn115  O128    1.930   .     S
Zn115  O121    1.932   .     S
Zn116  O130    1.932   .     S
Zn116  O119    1.957   .     S
Zn116  O124    1.930   .     S
Zn116  O122    1.929   .     S
Zn117  O123    1.928   .     S
Zn117  O119    1.933   .     S
Zn117  O126    1.943   .     S
Zn117  O131    1.944   .     S
Zn118  O129    1.928   .     S
Zn118  O120    1.944   .     S
Zn118  O119    1.933   .     S
Zn118  O125    1.942   .     S
O120   C132    1.268   .     A
O121   C133    1.269   .     A
O122   C134    1.281   .     A
O123   C135    1.271   .     A
O124   C136    1.281   .     A
O125   C137    1.281   .     A
O126   C136    1.272   .     A
O127   C137    1.282   .     A
O128   C134    1.281   .     A
O129   C135    1.271   .     A
O130   C132    1.274   .     A
O131   C133    1.285   .     A
C132   C161    1.436   .     S
C133   C159    1.458   .     S
C134   C164    1.434   .     S
C135   C162    1.451   .     S
C136   C141    1.450   .     S
C137   C153    1.474   .     S
C138   C152    1.395   .     A
C138   C661    1.417   1_554 S
C138   N682    1.439   1_554 S
H139   C152    1.084   .     S
H140   C149    1.082   .     S
C141   C151    1.388   .     A
C141   C152    1.393   .     A
C142   H155    1.083   .     S
C142   C143    1.386   .     A
C142   C153    1.402   .     A
C143   C657    1.391   .     S
C143   H670    1.083   .     S
C144   H156    1.076   .     S
C144   C656    1.391   1_554 S
C144   C658    1.419   1_554 S
C145   C146    1.421   .     A
C145   C657    1.419   .     S
C145   C660    1.428   .     S
C146   C150    1.407   .     A
C146   C153    1.418   .     A
C147   C151    1.408   .     A
C147   C658    1.428   1_554 S
C147   C661    1.429   1_554 S
C148   C149    1.398   .     A
C148   C651    1.417   .     S
C148   C660    1.429   .     S
C149   C150    1.382   .     A
C150   H158    1.081   .     S
C151   H154    1.077   .     S
H157   C656    1.083   1_554 S
C159   H46     1.088   1_655 S
C159   C47     1.348   1_655 S
C162   H334    1.088   .     S
C162   C335    1.331   .     S
H163   C504    1.088   1_545 S
C164   C504    1.331   1_545 S
C164   H507    1.086   1_545 S
H165   C335    1.086   .     S
N166   H168    1.046   .     S
N166   H167    1.046   .     S
N166   C47     1.441   1_655 S
N169   O170    1.302   .     A
N169   C651    1.439   .     S
N169   O684    1.302   .     S
O171   N682    1.302   1_554 S
Zn172  O176    1.956   .     S
Zn172  O184    1.931   .     S
Zn172  O185    1.930   .     S
Zn172  O178    1.932   .     S
Zn173  O187    1.932   .     S
Zn173  O176    1.957   .     S
Zn173  O181    1.930   .     S
Zn173  O179    1.929   .     S
Zn174  O180    1.928   .     S
Zn174  O176    1.933   .     S
Zn174  O183    1.943   .     S
Zn174  O188    1.944   .     S
Zn175  O186    1.928   .     S
Zn175  O177    1.944   .     S
Zn175  O176    1.933   .     S
Zn175  O182    1.942   .     S
O177   C189    1.268   .     A
O178   C190    1.269   .     A
O179   C191    1.281   .     A
O180   C192    1.271   .     A
O181   C193    1.281   .     A
O182   C194    1.281   .     A
O183   C193    1.272   .     A
O184   C194    1.282   .     A
O185   C191    1.281   .     A
O186   C192    1.271   .     A
O187   C189    1.274   .     A
O188   C190    1.285   .     A
C189   C218    1.436   .     S
C190   C216    1.458   .     S
C191   C221    1.434   .     S
C192   C219    1.451   .     S
C193   C198    1.450   .     S
C194   C210    1.474   .     S
C195   C209    1.395   .     A
C195   C718    1.417   1_554 S
C195   N739    1.439   1_554 S
H196   C209    1.084   .     S
H197   C206    1.082   .     S
C198   C208    1.388   .     A
C198   C209    1.393   .     A
C199   H212    1.083   .     S
C199   C200    1.386   .     A
C199   C210    1.402   .     A
C200   C714    1.391   .     S
C200   H727    1.083   .     S
C201   H213    1.076   .     S
C201   C713    1.391   1_554 S
C201   C715    1.419   1_554 S
C202   C203    1.421   .     A
C202   C714    1.419   .     S
C202   C717    1.428   .     S
C203   C207    1.407   .     A
C203   C210    1.418   .     A
C204   C208    1.408   .     A
C204   C715    1.428   1_554 S
C204   C718    1.429   1_554 S
C205   C206    1.398   .     A
C205   C708    1.417   .     S
C205   C717    1.429   .     S
C206   C207    1.382   .     A
C207   H215    1.081   .     S
C208   H211    1.077   .     S
H214   C713    1.083   1_554 S
C216   H274    1.088   .     S
C216   C275    1.348   .     S
H217   C330    1.088   1_455 S
C218   C330    1.348   1_455 S
C218   N337    1.441   1_455 S
C219   H391    1.088   .     S
C219   C392    1.331   .     S
H222   C392    1.086   .     S
N223   H225    1.046   .     S
N223   H224    1.046   .     S
N223   C275    1.441   .     S
N226   O227    1.302   .     A
N226   C708    1.439   .     S
N226   O741    1.302   .     S
O228   N739    1.302   1_554 S
Zn229  O233    1.956   .     S
Zn229  O241    1.931   .     S
Zn229  O242    1.930   .     S
Zn229  O235    1.932   .     S
Zn230  O244    1.932   .     S
Zn230  O233    1.957   .     S
Zn230  O238    1.930   .     S
Zn230  O236    1.929   .     S
Zn231  O237    1.928   .     S
Zn231  O233    1.933   .     S
Zn231  O240    1.943   .     S
Zn231  O245    1.944   .     S
Zn232  O243    1.928   .     S
Zn232  O234    1.944   .     S
Zn232  O233    1.933   .     S
Zn232  O239    1.942   .     S
O234   C246    1.268   .     A
O235   C247    1.269   .     A
O236   C248    1.281   .     A
O237   C249    1.271   .     A
O238   C250    1.281   .     A
O239   C251    1.281   .     A
O240   C250    1.272   .     A
O241   C251    1.282   .     A
O242   C248    1.281   .     A
O243   C249    1.271   .     A
O244   C246    1.274   .     A
O245   C247    1.285   .     A
C246   C275    1.436   .     S
C247   C273    1.458   .     S
C248   C278    1.434   .     S
C249   C276    1.451   .     S
C250   C255    1.450   .     S
C251   C267    1.474   .     S
C252   C266    1.395   .     A
C252   C775    1.417   1_554 S
C252   N796    1.439   1_554 S
H253   C266    1.084   .     S
H254   C263    1.082   .     S
C255   C265    1.388   .     A
C255   C266    1.393   .     A
C256   H269    1.083   .     S
C256   C257    1.386   .     A
C256   C267    1.402   .     A
C257   C771    1.391   .     S
C257   H784    1.083   .     S
C258   H270    1.076   .     S
C258   C770    1.391   1_554 S
C258   C772    1.419   1_554 S
C259   C260    1.421   .     A
C259   C771    1.419   .     S
C259   C774    1.428   .     S
C260   C264    1.407   .     A
C260   C267    1.418   .     A
C261   C265    1.408   .     A
C261   C772    1.428   1_554 S
C261   C775    1.429   1_554 S
C262   C263    1.398   .     A
C262   C765    1.417   .     S
C262   C774    1.429   .     S
C263   C264    1.382   .     A
C264   H272    1.081   .     S
C265   H268    1.077   .     S
H271   C770    1.083   1_554 S
C273   H331    1.088   .     S
C273   C332    1.348   .     S
C276   H448    1.088   .     S
C276   C449    1.331   .     S
H279   C449    1.086   .     S
N280   H282    1.046   .     S
N280   H281    1.046   .     S
N280   C332    1.441   .     S
N283   O284    1.302   .     A
N283   C765    1.439   .     S
N283   O798    1.302   .     S
O285   N796    1.302   1_554 S
Zn286  O290    1.956   .     S
Zn286  O298    1.931   .     S
Zn286  O299    1.930   .     S
Zn286  O292    1.932   .     S
Zn287  O301    1.932   .     S
Zn287  O290    1.957   .     S
Zn287  O295    1.930   .     S
Zn287  O293    1.929   .     S
Zn288  O294    1.928   .     S
Zn288  O290    1.933   .     S
Zn288  O297    1.943   .     S
Zn288  O302    1.944   .     S
Zn289  O300    1.928   .     S
Zn289  O291    1.944   .     S
Zn289  O290    1.933   .     S
Zn289  O296    1.942   .     S
O291   C303    1.268   .     A
O292   C304    1.269   .     A
O293   C305    1.281   .     A
O294   C306    1.271   .     A
O295   C307    1.281   .     A
O296   C308    1.281   .     A
O297   C307    1.272   .     A
O298   C308    1.282   .     A
O299   C305    1.281   .     A
O300   C306    1.271   .     A
O301   C303    1.274   .     A
O302   C304    1.285   .     A
C303   C332    1.436   .     S
C304   C330    1.458   .     S
C305   C335    1.434   .     S
C306   C333    1.451   .     S
C307   C312    1.450   .     S
C308   C324    1.474   .     S
C309   C323    1.395   .     A
C309   C832    1.417   1_554 S
C309   N853    1.439   1_554 S
H310   C323    1.084   .     S
H311   C320    1.082   .     S
C312   C322    1.388   .     A
C312   C323    1.393   .     A
C313   H326    1.083   .     S
C313   C314    1.386   .     A
C313   C324    1.402   .     A
C314   C828    1.391   .     S
C314   H841    1.083   .     S
C315   H327    1.076   .     S
C315   C827    1.391   1_554 S
C315   C829    1.419   1_554 S
C316   C317    1.421   .     A
C316   C828    1.419   .     S
C316   C831    1.428   .     S
C317   C321    1.407   .     A
C317   C324    1.418   .     A
C318   C322    1.408   .     A
C318   C829    1.428   1_554 S
C318   C832    1.429   1_554 S
C319   C320    1.398   .     A
C319   C822    1.417   .     S
C319   C831    1.429   .     S
C320   C321    1.382   .     A
C321   H329    1.081   .     S
C322   H325    1.077   .     S
H328   C827    1.083   1_554 S
C330   H217    1.088   1_655 S
C330   C218    1.348   1_655 S
C333   H505    1.088   .     S
C333   C506    1.331   .     S
H336   C506    1.086   .     S
N337   H339    1.046   .     S
N337   H338    1.046   .     S
N337   C218    1.441   1_655 S
N340   O341    1.302   .     A
N340   C822    1.439   .     S
N340   O855    1.302   .     S
O342   N853    1.302   1_554 S
Zn343  O347    1.956   .     S
Zn343  O355    1.931   .     S
Zn343  O356    1.930   .     S
Zn343  O349    1.932   .     S
Zn344  O358    1.932   .     S
Zn344  O347    1.957   .     S
Zn344  O352    1.930   .     S
Zn344  O350    1.929   .     S
Zn345  O351    1.928   .     S
Zn345  O347    1.933   .     S
Zn345  O354    1.943   .     S
Zn345  O359    1.944   .     S
Zn346  O357    1.928   .     S
Zn346  O348    1.944   .     S
Zn346  O347    1.933   .     S
Zn346  O353    1.942   .     S
O348   C360    1.268   .     A
O349   C361    1.269   .     A
O350   C362    1.281   .     A
O351   C363    1.271   .     A
O352   C364    1.281   .     A
O353   C365    1.281   .     A
O354   C364    1.272   .     A
O355   C365    1.282   .     A
O356   C362    1.281   .     A
O357   C363    1.271   .     A
O358   C360    1.274   .     A
O359   C361    1.285   .     A
C360   C389    1.436   .     S
C361   C387    1.458   .     S
C362   C392    1.434   .     S
C363   C390    1.451   .     S
C364   C369    1.450   .     S
C365   C381    1.474   .     S
C366   C380    1.395   .     A
C366   C889    1.417   1_554 S
C366   N910    1.439   1_554 S
H367   C380    1.084   .     S
H368   C377    1.082   .     S
C369   C379    1.388   .     A
C369   C380    1.393   .     A
C370   H383    1.083   .     S
C370   C371    1.386   .     A
C370   C381    1.402   .     A
C371   C885    1.391   .     S
C371   H898    1.083   .     S
C372   H384    1.076   .     S
C372   C884    1.391   1_554 S
C372   C886    1.419   1_554 S
C373   C374    1.421   .     A
C373   C885    1.419   .     S
C373   C888    1.428   .     S
C374   C378    1.407   .     A
C374   C381    1.418   .     A
C375   C379    1.408   .     A
C375   C886    1.428   1_554 S
C375   C889    1.429   1_554 S
C376   C377    1.398   .     A
C376   C879    1.417   .     S
C376   C888    1.429   .     S
C377   C378    1.382   .     A
C378   H386    1.081   .     S
C379   H382    1.077   .     S
H385   C884    1.083   1_554 S
C387   H445    1.088   .     S
C387   C446    1.348   .     S
H388   C501    1.088   1_455 S
C389   C501    1.348   1_455 S
C389   N508    1.441   1_455 S
C390   H49     1.088   1_565 S
C390   C50     1.331   1_565 S
H393   C50     1.086   1_565 S
N394   H396    1.046   .     S
N394   H395    1.046   .     S
N394   C446    1.441   .     S
N397   O398    1.302   .     A
N397   C879    1.439   .     S
N397   O912    1.302   .     S
O399   N910    1.302   1_554 S
Zn400  O404    1.956   .     S
Zn400  O412    1.931   .     S
Zn400  O413    1.930   .     S
Zn400  O406    1.932   .     S
Zn401  O415    1.932   .     S
Zn401  O404    1.957   .     S
Zn401  O409    1.930   .     S
Zn401  O407    1.929   .     S
Zn402  O408    1.928   .     S
Zn402  O404    1.933   .     S
Zn402  O411    1.943   .     S
Zn402  O416    1.944   .     S
Zn403  O414    1.928   .     S
Zn403  O405    1.944   .     S
Zn403  O404    1.933   .     S
Zn403  O410    1.942   .     S
O405   C417    1.268   .     A
O406   C418    1.269   .     A
O407   C419    1.281   .     A
O408   C420    1.271   .     A
O409   C421    1.281   .     A
O410   C422    1.281   .     A
O411   C421    1.272   .     A
O412   C422    1.282   .     A
O413   C419    1.281   .     A
O414   C420    1.271   .     A
O415   C417    1.274   .     A
O416   C418    1.285   .     A
C417   C446    1.436   .     S
C418   C444    1.458   .     S
C419   C449    1.434   .     S
C420   C447    1.451   .     S
C421   C426    1.450   .     S
C422   C438    1.474   .     S
C423   C437    1.395   .     A
C423   C946    1.417   1_554 S
C423   N967    1.439   1_554 S
H424   C437    1.084   .     S
H425   C434    1.082   .     S
C426   C436    1.388   .     A
C426   C437    1.393   .     A
C427   H440    1.083   .     S
C427   C428    1.386   .     A
C427   C438    1.402   .     A
C428   C942    1.391   .     S
C428   H955    1.083   .     S
C429   H441    1.076   .     S
C429   C941    1.391   1_554 S
C429   C943    1.419   1_554 S
C430   C431    1.421   .     A
C430   C942    1.419   .     S
C430   C945    1.428   .     S
C431   C435    1.407   .     A
C431   C438    1.418   .     A
C432   C436    1.408   .     A
C432   C943    1.428   1_554 S
C432   C946    1.429   1_554 S
C433   C434    1.398   .     A
C433   C936    1.417   .     S
C433   C945    1.429   .     S
C434   C435    1.382   .     A
C435   H443    1.081   .     S
C436   H439    1.077   .     S
H442   C941    1.083   1_554 S
C444   H502    1.088   .     S
C444   C503    1.348   .     S
C447   H106    1.088   1_565 S
C447   C107    1.331   1_565 S
H450   C107    1.086   1_565 S
N451   H453    1.046   .     S
N451   H452    1.046   .     S
N451   C503    1.441   .     S
N454   O455    1.302   .     A
N454   C936    1.439   .     S
N454   O969    1.302   .     S
O456   N967    1.302   1_554 S
Zn457  O461    1.956   .     S
Zn457  O469    1.931   .     S
Zn457  O470    1.930   .     S
Zn457  O463    1.932   .     S
Zn458  O472    1.932   .     S
Zn458  O461    1.957   .     S
Zn458  O466    1.930   .     S
Zn458  O464    1.929   .     S
Zn459  O465    1.928   .     S
Zn459  O461    1.933   .     S
Zn459  O468    1.943   .     S
Zn459  O473    1.944   .     S
Zn460  O471    1.928   .     S
Zn460  O462    1.944   .     S
Zn460  O461    1.933   .     S
Zn460  O467    1.942   .     S
O462   C474    1.268   .     A
O463   C475    1.269   .     A
O464   C476    1.281   .     A
O465   C477    1.271   .     A
O466   C478    1.281   .     A
O467   C479    1.281   .     A
O468   C478    1.272   .     A
O469   C479    1.282   .     A
O470   C476    1.281   .     A
O471   C477    1.271   .     A
O472   C474    1.274   .     A
O473   C475    1.285   .     A
C474   C503    1.436   .     S
C475   C501    1.458   .     S
C476   C506    1.434   .     S
C477   C504    1.451   .     S
C478   C483    1.450   .     S
C479   C495    1.474   .     S
C480   C494    1.395   .     A
C480   C1003   1.417   1_554 S
C480   N1024   1.439   1_554 S
H481   C494    1.084   .     S
H482   C491    1.082   .     S
C483   C493    1.388   .     A
C483   C494    1.393   .     A
C484   H497    1.083   .     S
C484   C485    1.386   .     A
C484   C495    1.402   .     A
C485   C999    1.391   .     S
C485   H1012   1.083   .     S
C486   H498    1.076   .     S
C486   C998    1.391   1_554 S
C486   C1000   1.419   1_554 S
C487   C488    1.421   .     A
C487   C999    1.419   .     S
C487   C1002   1.428   .     S
C488   C492    1.407   .     A
C488   C495    1.418   .     A
C489   C493    1.408   .     A
C489   C1000   1.428   1_554 S
C489   C1003   1.429   1_554 S
C490   C491    1.398   .     A
C490   C993    1.417   .     S
C490   C1002   1.429   .     S
C491   C492    1.382   .     A
C492   H500    1.081   .     S
C493   H496    1.077   .     S
H499   C998    1.083   1_554 S
C501   H388    1.088   1_655 S
C501   C389    1.348   1_655 S
C504   H163    1.088   1_565 S
C504   C164    1.331   1_565 S
H507   C164    1.086   1_565 S
N508   H510    1.046   .     S
N508   H509    1.046   .     S
N508   C389    1.441   1_655 S
N511   O512    1.302   .     A
N511   C993    1.439   .     S
N511   O1026   1.302   .     S
O513   N1024   1.302   1_554 S
Zn514  O518    1.956   .     S
Zn514  O526    1.931   .     S
Zn514  O527    1.930   .     S
Zn514  O520    1.932   .     S
Zn515  O529    1.932   .     S
Zn515  O518    1.957   .     S
Zn515  O523    1.930   .     S
Zn515  O521    1.929   .     S
Zn516  O522    1.928   .     S
Zn516  O518    1.933   .     S
Zn516  O525    1.943   .     S
Zn516  O530    1.944   .     S
Zn517  O528    1.928   .     S
Zn517  O519    1.944   .     S
Zn517  O518    1.933   .     S
Zn517  O524    1.942   .     S
O519   C531    1.268   .     A
O520   C532    1.269   .     A
O521   C533    1.281   .     A
O522   C534    1.271   .     A
O523   C535    1.281   .     A
O524   C536    1.281   .     A
O525   C535    1.272   .     A
O526   C536    1.282   .     A
O527   C533    1.281   .     A
O528   C534    1.271   .     A
O529   C531    1.274   .     A
O530   C532    1.285   .     A
C531   C560    1.436   .     S
C532   C558    1.458   .     S
C533   C563    1.434   .     S
C534   C561    1.451   .     S
C535   C540    1.450   .     S
C536   C552    1.474   .     S
C537   C551    1.395   .     A
H538   C551    1.084   .     S
H539   C548    1.082   .     S
C540   C550    1.388   .     A
C540   C551    1.393   .     A
C541   H554    1.083   .     S
C541   C542    1.386   .     A
C541   C552    1.402   .     A
C542   C30     1.391   1_556 S
C542   H43     1.083   1_556 S
C543   H555    1.076   .     S
C544   C545    1.421   .     A
C544   C30     1.419   1_556 S
C544   C33     1.428   1_556 S
C545   C549    1.407   .     A
C545   C552    1.418   .     A
C546   C550    1.408   .     A
C547   C548    1.398   .     A
C547   C24     1.417   1_556 S
C547   C33     1.429   1_556 S
C548   C549    1.382   .     A
C549   H557    1.081   .     S
C550   H553    1.077   .     S
C558   H616    1.088   .     S
C558   C617    1.348   .     S
H559   C672    1.088   1_455 S
C560   C672    1.348   1_455 S
C560   N679    1.441   1_455 S
C561   H733    1.088   .     S
C561   C734    1.331   .     S
H562   C903    1.088   1_545 S
C563   C903    1.331   1_545 S
C563   H906    1.086   1_545 S
H564   C734    1.086   .     S
N565   H567    1.046   .     S
N565   H566    1.046   .     S
N565   C617    1.441   .     S
N568   O569    1.302   .     A
N568   C24     1.439   1_556 S
N568   O57     1.302   1_556 S
Zn571  O575    1.956   .     S
Zn571  O583    1.931   .     S
Zn571  O584    1.930   .     S
Zn571  O577    1.932   .     S
Zn572  O586    1.932   .     S
Zn572  O575    1.957   .     S
Zn572  O580    1.930   .     S
Zn572  O578    1.929   .     S
Zn573  O579    1.928   .     S
Zn573  O575    1.933   .     S
Zn573  O582    1.943   .     S
Zn573  O587    1.944   .     S
Zn574  O585    1.928   .     S
Zn574  O576    1.944   .     S
Zn574  O575    1.933   .     S
Zn574  O581    1.942   .     S
O576   C588    1.268   .     A
O577   C589    1.269   .     A
O578   C590    1.281   .     A
O579   C591    1.271   .     A
O580   C592    1.281   .     A
O581   C593    1.281   .     A
O582   C592    1.272   .     A
O583   C593    1.282   .     A
O584   C590    1.281   .     A
O585   C591    1.271   .     A
O586   C588    1.274   .     A
O587   C589    1.285   .     A
C588   C617    1.436   .     S
C589   C615    1.458   .     S
C590   C620    1.434   .     S
C591   C618    1.451   .     S
C592   C597    1.450   .     S
C593   C609    1.474   .     S
C594   C608    1.395   .     A
H595   C608    1.084   .     S
H596   C605    1.082   .     S
C597   C607    1.388   .     A
C597   C608    1.393   .     A
C598   H611    1.083   .     S
C598   C599    1.386   .     A
C598   C609    1.402   .     A
C599   C87     1.391   1_556 S
C599   H100    1.083   1_556 S
C600   H612    1.076   .     S
C601   C602    1.421   .     A
C601   C87     1.419   1_556 S
C601   C90     1.428   1_556 S
C602   C606    1.407   .     A
C602   C609    1.418   .     A
C603   C607    1.408   .     A
C604   C605    1.398   .     A
C604   C81     1.417   1_556 S
C604   C90     1.429   1_556 S
C605   C606    1.382   .     A
C606   H614    1.081   .     S
C607   H610    1.077   .     S
C615   H673    1.088   .     S
C615   C674    1.348   .     S
C618   H790    1.088   .     S
C618   C791    1.331   .     S
H619   C960    1.088   1_545 S
C620   C960    1.331   1_545 S
C620   H963    1.086   1_545 S
H621   C791    1.086   .     S
N622   H624    1.046   .     S
N622   H623    1.046   .     S
N622   C674    1.441   .     S
N625   O626    1.302   .     A
N625   C81     1.439   1_556 S
N625   O114    1.302   1_556 S
Zn628  O632    1.956   .     S
Zn628  O640    1.931   .     S
Zn628  O641    1.930   .     S
Zn628  O634    1.932   .     S
Zn629  O643    1.932   .     S
Zn629  O632    1.957   .     S
Zn629  O637    1.930   .     S
Zn629  O635    1.929   .     S
Zn630  O636    1.928   .     S
Zn630  O632    1.933   .     S
Zn630  O639    1.943   .     S
Zn630  O644    1.944   .     S
Zn631  O642    1.928   .     S
Zn631  O633    1.944   .     S
Zn631  O632    1.933   .     S
Zn631  O638    1.942   .     S
O633   C645    1.268   .     A
O634   C646    1.269   .     A
O635   C647    1.281   .     A
O636   C648    1.271   .     A
O637   C649    1.281   .     A
O638   C650    1.281   .     A
O639   C649    1.272   .     A
O640   C650    1.282   .     A
O641   C647    1.281   .     A
O642   C648    1.271   .     A
O643   C645    1.274   .     A
O644   C646    1.285   .     A
C645   C674    1.436   .     S
C646   C672    1.458   .     S
C647   C677    1.434   .     S
C648   C675    1.451   .     S
C649   C654    1.450   .     S
C650   C666    1.474   .     S
C651   C665    1.395   .     A
H652   C665    1.084   .     S
H653   C662    1.082   .     S
C654   C664    1.388   .     A
C654   C665    1.393   .     A
C655   H668    1.083   .     S
C655   C656    1.386   .     A
C655   C666    1.402   .     A
C656   C144    1.391   1_556 S
C656   H157    1.083   1_556 S
C657   H669    1.076   .     S
C658   C659    1.421   .     A
C658   C144    1.419   1_556 S
C658   C147    1.428   1_556 S
C659   C663    1.407   .     A
C659   C666    1.418   .     A
C660   C664    1.408   .     A
C661   C662    1.398   .     A
C661   C138    1.417   1_556 S
C661   C147    1.429   1_556 S
C662   C663    1.382   .     A
C663   H671    1.081   .     S
C664   H667    1.077   .     S
C672   H559    1.088   1_655 S
C672   C560    1.348   1_655 S
C675   H847    1.088   .     S
C675   C848    1.331   .     S
H676   C1017   1.088   1_545 S
C677   C1017   1.331   1_545 S
C677   H1020   1.086   1_545 S
H678   C848    1.086   .     S
N679   H681    1.046   .     S
N679   H680    1.046   .     S
N679   C560    1.441   1_655 S
N682   O683    1.302   .     A
N682   C138    1.439   1_556 S
N682   O171    1.302   1_556 S
Zn685  O689    1.956   .     S
Zn685  O697    1.931   .     S
Zn685  O698    1.930   .     S
Zn685  O691    1.932   .     S
Zn686  O700    1.932   .     S
Zn686  O689    1.957   .     S
Zn686  O694    1.930   .     S
Zn686  O692    1.929   .     S
Zn687  O693    1.928   .     S
Zn687  O689    1.933   .     S
Zn687  O696    1.943   .     S
Zn687  O701    1.944   .     S
Zn688  O699    1.928   .     S
Zn688  O690    1.944   .     S
Zn688  O689    1.933   .     S
Zn688  O695    1.942   .     S
O690   C702    1.268   .     A
O691   C703    1.269   .     A
O692   C704    1.281   .     A
O693   C705    1.271   .     A
O694   C706    1.281   .     A
O695   C707    1.281   .     A
O696   C706    1.272   .     A
O697   C707    1.282   .     A
O698   C704    1.281   .     A
O699   C705    1.271   .     A
O700   C702    1.274   .     A
O701   C703    1.285   .     A
C702   C731    1.436   .     S
C703   C729    1.458   .     S
C704   C734    1.434   .     S
C705   C732    1.451   .     S
C706   C711    1.450   .     S
C707   C723    1.474   .     S
C708   C722    1.395   .     A
H709   C722    1.084   .     S
H710   C719    1.082   .     S
C711   C721    1.388   .     A
C711   C722    1.393   .     A
C712   H725    1.083   .     S
C712   C713    1.386   .     A
C712   C723    1.402   .     A
C713   C201    1.391   1_556 S
C713   H214    1.083   1_556 S
C714   H726    1.076   .     S
C715   C716    1.421   .     A
C715   C201    1.419   1_556 S
C715   C204    1.428   1_556 S
C716   C720    1.407   .     A
C716   C723    1.418   .     A
C717   C721    1.408   .     A
C718   C719    1.398   .     A
C718   C195    1.417   1_556 S
C718   C204    1.429   1_556 S
C719   C720    1.382   .     A
C720   H728    1.081   .     S
C721   H724    1.077   .     S
C729   H787    1.088   .     S
C729   C788    1.348   .     S
H730   C843    1.088   1_455 S
C731   C843    1.348   1_455 S
C731   N850    1.441   1_455 S
C732   H904    1.088   .     S
C732   C905    1.331   .     S
H735   C905    1.086   .     S
N736   H738    1.046   .     S
N736   H737    1.046   .     S
N736   C788    1.441   .     S
N739   O740    1.302   .     A
N739   C195    1.439   1_556 S
N739   O228    1.302   1_556 S
Zn742  O746    1.956   .     S
Zn742  O754    1.931   .     S
Zn742  O755    1.930   .     S
Zn742  O748    1.932   .     S
Zn743  O757    1.932   .     S
Zn743  O746    1.957   .     S
Zn743  O751    1.930   .     S
Zn743  O749    1.929   .     S
Zn744  O750    1.928   .     S
Zn744  O746    1.933   .     S
Zn744  O753    1.943   .     S
Zn744  O758    1.944   .     S
Zn745  O756    1.928   .     S
Zn745  O747    1.944   .     S
Zn745  O746    1.933   .     S
Zn745  O752    1.942   .     S
O747   C759    1.268   .     A
O748   C760    1.269   .     A
O749   C761    1.281   .     A
O750   C762    1.271   .     A
O751   C763    1.281   .     A
O752   C764    1.281   .     A
O753   C763    1.272   .     A
O754   C764    1.282   .     A
O755   C761    1.281   .     A
O756   C762    1.271   .     A
O757   C759    1.274   .     A
O758   C760    1.285   .     A
C759   C788    1.436   .     S
C760   C786    1.458   .     S
C761   C791    1.434   .     S
C762   C789    1.451   .     S
C763   C768    1.450   .     S
C764   C780    1.474   .     S
C765   C779    1.395   .     A
H766   C779    1.084   .     S
H767   C776    1.082   .     S
C768   C778    1.388   .     A
C768   C779    1.393   .     A
C769   H782    1.083   .     S
C769   C770    1.386   .     A
C769   C780    1.402   .     A
C770   C258    1.391   1_556 S
C770   H271    1.083   1_556 S
C771   H783    1.076   .     S
C772   C773    1.421   .     A
C772   C258    1.419   1_556 S
C772   C261    1.428   1_556 S
C773   C777    1.407   .     A
C773   C780    1.418   .     A
C774   C778    1.408   .     A
C775   C776    1.398   .     A
C775   C252    1.417   1_556 S
C775   C261    1.429   1_556 S
C776   C777    1.382   .     A
C777   H785    1.081   .     S
C778   H781    1.077   .     S
C786   H844    1.088   .     S
C786   C845    1.348   .     S
C789   H961    1.088   .     S
C789   C962    1.331   .     S
H792   C962    1.086   .     S
N793   H795    1.046   .     S
N793   H794    1.046   .     S
N793   C845    1.441   .     S
N796   O797    1.302   .     A
N796   C252    1.439   1_556 S
N796   O285    1.302   1_556 S
Zn799  O803    1.956   .     S
Zn799  O811    1.931   .     S
Zn799  O812    1.930   .     S
Zn799  O805    1.932   .     S
Zn800  O814    1.932   .     S
Zn800  O803    1.957   .     S
Zn800  O808    1.930   .     S
Zn800  O806    1.929   .     S
Zn801  O807    1.928   .     S
Zn801  O803    1.933   .     S
Zn801  O810    1.943   .     S
Zn801  O815    1.944   .     S
Zn802  O813    1.928   .     S
Zn802  O804    1.944   .     S
Zn802  O803    1.933   .     S
Zn802  O809    1.942   .     S
O804   C816    1.268   .     A
O805   C817    1.269   .     A
O806   C818    1.281   .     A
O807   C819    1.271   .     A
O808   C820    1.281   .     A
O809   C821    1.281   .     A
O810   C820    1.272   .     A
O811   C821    1.282   .     A
O812   C818    1.281   .     A
O813   C819    1.271   .     A
O814   C816    1.274   .     A
O815   C817    1.285   .     A
C816   C845    1.436   .     S
C817   C843    1.458   .     S
C818   C848    1.434   .     S
C819   C846    1.451   .     S
C820   C825    1.450   .     S
C821   C837    1.474   .     S
C822   C836    1.395   .     A
H823   C836    1.084   .     S
H824   C833    1.082   .     S
C825   C835    1.388   .     A
C825   C836    1.393   .     A
C826   H839    1.083   .     S
C826   C827    1.386   .     A
C826   C837    1.402   .     A
C827   C315    1.391   1_556 S
C827   H328    1.083   1_556 S
C828   H840    1.076   .     S
C829   C830    1.421   .     A
C829   C315    1.419   1_556 S
C829   C318    1.428   1_556 S
C830   C834    1.407   .     A
C830   C837    1.418   .     A
C831   C835    1.408   .     A
C832   C833    1.398   .     A
C832   C309    1.417   1_556 S
C832   C318    1.429   1_556 S
C833   C834    1.382   .     A
C834   H842    1.081   .     S
C835   H838    1.077   .     S
C843   H730    1.088   1_655 S
C843   C731    1.348   1_655 S
C846   H1018   1.088   .     S
C846   C1019   1.331   .     S
H849   C1019   1.086   .     S
N850   H852    1.046   .     S
N850   H851    1.046   .     S
N850   C731    1.441   1_655 S
N853   O854    1.302   .     A
N853   C309    1.439   1_556 S
N853   O342    1.302   1_556 S
Zn856  O860    1.956   .     S
Zn856  O868    1.931   .     S
Zn856  O869    1.930   .     S
Zn856  O862    1.932   .     S
Zn857  O871    1.932   .     S
Zn857  O860    1.957   .     S
Zn857  O865    1.930   .     S
Zn857  O863    1.929   .     S
Zn858  O864    1.928   .     S
Zn858  O860    1.933   .     S
Zn858  O867    1.943   .     S
Zn858  O872    1.944   .     S
Zn859  O870    1.928   .     S
Zn859  O861    1.944   .     S
Zn859  O860    1.933   .     S
Zn859  O866    1.942   .     S
O861   C873    1.268   .     A
O862   C874    1.269   .     A
O863   C875    1.281   .     A
O864   C876    1.271   .     A
O865   C877    1.281   .     A
O866   C878    1.281   .     A
O867   C877    1.272   .     A
O868   C878    1.282   .     A
O869   C875    1.281   .     A
O870   C876    1.271   .     A
O871   C873    1.274   .     A
O872   C874    1.285   .     A
C873   C902    1.436   .     S
C874   C900    1.458   .     S
C875   C905    1.434   .     S
C876   C903    1.451   .     S
C877   C882    1.450   .     S
C878   C894    1.474   .     S
C879   C893    1.395   .     A
H880   C893    1.084   .     S
H881   C890    1.082   .     S
C882   C892    1.388   .     A
C882   C893    1.393   .     A
C883   H896    1.083   .     S
C883   C884    1.386   .     A
C883   C894    1.402   .     A
C884   C372    1.391   1_556 S
C884   H385    1.083   1_556 S
C885   H897    1.076   .     S
C886   C887    1.421   .     A
C886   C372    1.419   1_556 S
C886   C375    1.428   1_556 S
C887   C891    1.407   .     A
C887   C894    1.418   .     A
C888   C892    1.408   .     A
C889   C890    1.398   .     A
C889   C366    1.417   1_556 S
C889   C375    1.429   1_556 S
C890   C891    1.382   .     A
C891   H899    1.081   .     S
C892   H895    1.077   .     S
C900   H958    1.088   .     S
C900   C959    1.348   .     S
H901   C1014   1.088   1_455 S
C902   C1014   1.348   1_455 S
C902   N1021   1.441   1_455 S
C903   H562    1.088   1_565 S
C903   C563    1.331   1_565 S
H906   C563    1.086   1_565 S
N907   H909    1.046   .     S
N907   H908    1.046   .     S
N907   C959    1.441   .     S
N910   O911    1.302   .     A
N910   C366    1.439   1_556 S
N910   O399    1.302   1_556 S
Zn913  O917    1.956   .     S
Zn913  O925    1.931   .     S
Zn913  O926    1.930   .     S
Zn913  O919    1.932   .     S
Zn914  O928    1.932   .     S
Zn914  O917    1.957   .     S
Zn914  O922    1.930   .     S
Zn914  O920    1.929   .     S
Zn915  O921    1.928   .     S
Zn915  O917    1.933   .     S
Zn915  O924    1.943   .     S
Zn915  O929    1.944   .     S
Zn916  O927    1.928   .     S
Zn916  O918    1.944   .     S
Zn916  O917    1.933   .     S
Zn916  O923    1.942   .     S
O918   C930    1.268   .     A
O919   C931    1.269   .     A
O920   C932    1.281   .     A
O921   C933    1.271   .     A
O922   C934    1.281   .     A
O923   C935    1.281   .     A
O924   C934    1.272   .     A
O925   C935    1.282   .     A
O926   C932    1.281   .     A
O927   C933    1.271   .     A
O928   C930    1.274   .     A
O929   C931    1.285   .     A
C930   C959    1.436   .     S
C931   C957    1.458   .     S
C932   C962    1.434   .     S
C933   C960    1.451   .     S
C934   C939    1.450   .     S
C935   C951    1.474   .     S
C936   C950    1.395   .     A
H937   C950    1.084   .     S
H938   C947    1.082   .     S
C939   C949    1.388   .     A
C939   C950    1.393   .     A
C940   H953    1.083   .     S
C940   C941    1.386   .     A
C940   C951    1.402   .     A
C941   C429    1.391   1_556 S
C941   H442    1.083   1_556 S
C942   H954    1.076   .     S
C943   C944    1.421   .     A
C943   C429    1.419   1_556 S
C943   C432    1.428   1_556 S
C944   C948    1.407   .     A
C944   C951    1.418   .     A
C945   C949    1.408   .     A
C946   C947    1.398   .     A
C946   C423    1.417   1_556 S
C946   C432    1.429   1_556 S
C947   C948    1.382   .     A
C948   H956    1.081   .     S
C949   H952    1.077   .     S
C957   H1015   1.088   .     S
C957   C1016   1.348   .     S
C960   H619    1.088   1_565 S
C960   C620    1.331   1_565 S
H963   C620    1.086   1_565 S
N964   H966    1.046   .     S
N964   H965    1.046   .     S
N964   C1016   1.441   .     S
N967   O968    1.302   .     A
N967   C423    1.439   1_556 S
N967   O456    1.302   1_556 S
Zn970  O974    1.956   .     S
Zn970  O982    1.931   .     S
Zn970  O983    1.930   .     S
Zn970  O976    1.932   .     S
Zn971  O985    1.932   .     S
Zn971  O974    1.957   .     S
Zn971  O979    1.930   .     S
Zn971  O977    1.929   .     S
Zn972  O978    1.928   .     S
Zn972  O974    1.933   .     S
Zn972  O981    1.943   .     S
Zn972  O986    1.944   .     S
Zn973  O984    1.928   .     S
Zn973  O975    1.944   .     S
Zn973  O974    1.933   .     S
Zn973  O980    1.942   .     S
O975   C987    1.268   .     A
O976   C988    1.269   .     A
O977   C989    1.281   .     A
O978   C990    1.271   .     A
O979   C991    1.281   .     A
O980   C992    1.281   .     A
O981   C991    1.272   .     A
O982   C992    1.282   .     A
O983   C989    1.281   .     A
O984   C990    1.271   .     A
O985   C987    1.274   .     A
O986   C988    1.285   .     A
C987   C1016   1.436   .     S
C988   C1014   1.458   .     S
C989   C1019   1.434   .     S
C990   C1017   1.451   .     S
C991   C996    1.450   .     S
C992   C1008   1.474   .     S
C993   C1007   1.395   .     A
H994   C1007   1.084   .     S
H995   C1004   1.082   .     S
C996   C1006   1.388   .     A
C996   C1007   1.393   .     A
C997   H1010   1.083   .     S
C997   C998    1.386   .     A
C997   C1008   1.402   .     A
C998   C486    1.391   1_556 S
C998   H499    1.083   1_556 S
C999   H1011   1.076   .     S
C1000  C1001   1.421   .     A
C1000  C486    1.419   1_556 S
C1000  C489    1.428   1_556 S
C1001  C1005   1.407   .     A
C1001  C1008   1.418   .     A
C1002  C1006   1.408   .     A
C1003  C1004   1.398   .     A
C1003  C480    1.417   1_556 S
C1003  C489    1.429   1_556 S
C1004  C1005   1.382   .     A
C1005  H1013   1.081   .     S
C1006  H1009   1.077   .     S
C1014  H901    1.088   1_655 S
C1014  C902    1.348   1_655 S
C1017  H676    1.088   1_565 S
C1017  C677    1.331   1_565 S
H1020  C677    1.086   1_565 S
N1021  H1023   1.046   .     S
N1021  H1022   1.046   .     S
N1021  C902    1.441   1_655 S
N1024  O1025   1.302   .     A
N1024  C480    1.439   1_556 S
N1024  O513    1.302   1_556 S
