data_str_m1_o1_o17_pcu_sym.49
_audit_creation_date              2020-01-03
_audit_creation_method            'Materials Studio'
_symmetry_space_group_name_H-M    'P1'
_symmetry_Int_Tables_number       1
_symmetry_cell_setting            triclinic
loop_
_symmetry_equiv_pos_as_xyz
  x,y,z
_cell_length_a                    36.6801
_cell_length_b                    36.6654
_cell_length_c                    34.3355
_cell_angle_alpha                 90.0000
_cell_angle_beta                  90.0002
_cell_angle_gamma                 90.0349
loop_
_atom_site_label
_atom_site_type_symbol
_atom_site_fract_x
_atom_site_fract_y
_atom_site_fract_z
_atom_site_U_iso_or_equiv
_atom_site_adp_type
_atom_site_occupancy
C1     C     0.49256   0.28255   0.41785   0.00000  Uiso   1.00
C2     C     0.25761   0.46745   0.08237   0.00000  Uiso   1.00
C3     C     0.21638   0.00250   0.54124   0.00000  Uiso   1.00
C4     C     0.49735   0.28362   0.45876   0.00000  Uiso   1.00
C5     C     0.49785   0.21634   0.54125   0.00000  Uiso   1.00
C6     C     0.21636   0.49769   0.45875   0.00000  Uiso   1.00
C7     C     0.28362   0.49750   0.54124   0.00000  Uiso   1.00
C8     C     0.25592   0.46691   0.95876   0.00000  Uiso   1.00
C9     C     0.24541   0.03360   0.04125   0.00000  Uiso   1.00
C10    C     0.03371   0.25114   0.95864   0.00000  Uiso   1.00
C11    C     0.46655   0.25385   0.04108   0.00000  Uiso   1.00
C12    C     0.24408   0.03309   0.95876   0.00000  Uiso   1.00
C13    C     0.46715   0.24403   0.91775   0.00000  Uiso   1.00
C14    C     0.25458   0.46640   0.04125   0.00000  Uiso   1.00
C15    C     0.46629   0.24887   0.95864   0.00000  Uiso   1.00
C16    C     0.03345   0.24617   0.04108   0.00000  Uiso   1.00
C17    C     0.09796   0.34832   0.25027   0.00000  Uiso   1.00
C18    C     0.40187   0.15189   0.75002   0.00000  Uiso   1.00
C19    C     0.15185   0.09814   0.25000   0.00000  Uiso   1.00
C20    C     0.34827   0.40201   0.74980   0.00000  Uiso   1.00
C21    C     0.40204   0.15168   0.25027   0.00000  Uiso   1.00
C22    C     0.09813   0.34811   0.75002   0.00000  Uiso   1.00
C23    C     0.34815   0.40186   0.24999   0.00000  Uiso   1.00
C24    C     0.03216   0.24126   0.08196   0.00000  Uiso   1.00
C25    C     0.15174   0.09799   0.74980   0.00000  Uiso   1.00
C26    C     0.09805   0.15175   0.74986   0.00000  Uiso   1.00
C27    C     0.40190   0.34816   0.25002   0.00000  Uiso   1.00
C28    C     0.15185   0.40185   0.74999   0.00000  Uiso   1.00
C29    C     0.34831   0.09794   0.25029   0.00000  Uiso   1.00
C30    C     0.40195   0.34825   0.74986   0.00000  Uiso   1.00
C31    C     0.09810   0.15184   0.25002   0.00000  Uiso   1.00
C32    C     0.34815   0.09815   0.74999   0.00000  Uiso   1.00
C33    C     0.15169   0.40206   0.25029   0.00000  Uiso   1.00
C34    C    -0.00000   0.25000   0.47939   0.00000  Uiso   1.00
C35    C     0.26087   0.46844   0.91792   0.00000  Uiso   1.00
C36    C    -0.00000   0.25000   0.52062   0.00000  Uiso   1.00
C37    C     0.25000   0.00000   0.47938   0.00000  Uiso   1.00
C38    C     0.25000   0.00000   0.52061   0.00000  Uiso   1.00
C39    C     0.25000   0.00000   0.97945   0.00000  Uiso   1.00
C40    C     0.25000   0.00000   0.02069   0.00000  Uiso   1.00
C41    C     0.00000   0.25001   0.97925   0.00000  Uiso   1.00
C42    C     0.00000   0.25001   0.02046   0.00000  Uiso   1.00
C43    C     0.47629   0.31342   0.39556   0.00000  Uiso   1.00
C44    C     0.49655   0.33198   0.36691   0.00000  Uiso   1.00
C45    C     0.48018   0.35924   0.34446   0.00000  Uiso   1.00
C46    C     0.24238   0.03255   0.08237   0.00000  Uiso   1.00
C47    C     0.44360   0.36826   0.35045   0.00000  Uiso   1.00
C48    C     0.42335   0.35012   0.37898   0.00000  Uiso   1.00
C49    C     0.43958   0.32278   0.40148   0.00000  Uiso   1.00
C50    C     0.47724   0.18622   0.60447   0.00000  Uiso   1.00
C51    C     0.49780   0.16796   0.63307   0.00000  Uiso   1.00
C52    C     0.48183   0.14045   0.65555   0.00000  Uiso   1.00
C53    C     0.44537   0.13088   0.64961   0.00000  Uiso   1.00
C54    C     0.42483   0.14872   0.62110   0.00000  Uiso   1.00
C55    C     0.44066   0.17631   0.59859   0.00000  Uiso   1.00
C56    C     0.18636   0.47689   0.39554   0.00000  Uiso   1.00
C57    C     0.03285   0.25598   0.91775   0.00000  Uiso   1.00
C58    C     0.16801   0.49734   0.36691   0.00000  Uiso   1.00
C59    C     0.14062   0.48121   0.34443   0.00000  Uiso   1.00
C60    C     0.13124   0.44468   0.35039   0.00000  Uiso   1.00
C61    C     0.14917   0.42425   0.37892   0.00000  Uiso   1.00
C62    C     0.17665   0.44024   0.40144   0.00000  Uiso   1.00
C63    C     0.31348   0.47652   0.60444   0.00000  Uiso   1.00
C64    C     0.33196   0.49685   0.63309   0.00000  Uiso   1.00
C65    C     0.35926   0.48056   0.65555   0.00000  Uiso   1.00
C66    C     0.36840   0.44399   0.64956   0.00000  Uiso   1.00
C67    C     0.35035   0.42368   0.62101   0.00000  Uiso   1.00
C68    C     0.46784   0.25874   0.08196   0.00000  Uiso   1.00
C69    C     0.32296   0.43983   0.59851   0.00000  Uiso   1.00
C70    C     0.02371   0.18658   0.39556   0.00000  Uiso   1.00
C71    C     0.00344   0.16802   0.36691   0.00000  Uiso   1.00
C72    C     0.01982   0.14076   0.34446   0.00000  Uiso   1.00
C73    C     0.05640   0.13173   0.35045   0.00000  Uiso   1.00
C74    C     0.07665   0.14987   0.37899   0.00000  Uiso   1.00
C75    C     0.06042   0.17722   0.40148   0.00000  Uiso   1.00
C76    C     0.02276   0.31378   0.60446   0.00000  Uiso   1.00
C77    C     0.00221   0.33204   0.63308   0.00000  Uiso   1.00
C78    C     0.01818   0.35955   0.65554   0.00000  Uiso   1.00
C79    C     0.00000   0.25000   0.39792   0.00000  Uiso   1.00
C80    C     0.05465   0.36912   0.64960   0.00000  Uiso   1.00
C81    C     0.07517   0.35128   0.62109   0.00000  Uiso   1.00
C82    C     0.05935   0.32369   0.59858   0.00000  Uiso   1.00
C83    C     0.31364   0.02311   0.39555   0.00000  Uiso   1.00
C84    C     0.33199   0.00266   0.36692   0.00000  Uiso   1.00
C85    C     0.35939   0.01879   0.34444   0.00000  Uiso   1.00
C86    C     0.36876   0.05532   0.35039   0.00000  Uiso   1.00
C87    C     0.35083   0.07575   0.37892   0.00000  Uiso   1.00
C88    C     0.32335   0.05976   0.40144   0.00000  Uiso   1.00
C89    C     0.18652   0.02348   0.60444   0.00000  Uiso   1.00
C90    C    -0.00000   0.25000   0.60208   0.00000  Uiso   1.00
C91    C     0.16804   0.00315   0.63309   0.00000  Uiso   1.00
C92    C     0.14074   0.01944   0.65555   0.00000  Uiso   1.00
C93    C     0.13160   0.05601   0.64956   0.00000  Uiso   1.00
C94    C     0.14966   0.07632   0.62101   0.00000  Uiso   1.00
C95    C     0.17704   0.06017   0.59851   0.00000  Uiso   1.00
C96    C     0.21992   0.06102   0.89604   0.00000  Uiso   1.00
C97    C     0.23781   0.08090   0.86659   0.00000  Uiso   1.00
C98    C     0.21907   0.10765   0.84560   0.00000  Uiso   1.00
C99    C     0.18250   0.11492   0.85390   0.00000  Uiso   1.00
C100   C     0.16456   0.09540   0.88314   0.00000  Uiso   1.00
C101   C     0.25000  -0.00000   0.39792   0.00000  Uiso   1.00
C102   C     0.18314   0.06854   0.90417   0.00000  Uiso   1.00
C103   C     0.27071   0.43613   0.10614   0.00000  Uiso   1.00
C104   C     0.30804   0.42786   0.10731   0.00000  Uiso   1.00
C105   C     0.32102   0.40134   0.13306   0.00000  Uiso   1.00
C106   C     0.29690   0.38276   0.15755   0.00000  Uiso   1.00
C107   C     0.25968   0.39073   0.15645   0.00000  Uiso   1.00
C108   C     0.24657   0.41742   0.13100   0.00000  Uiso   1.00
C109   C     0.43566   0.22902   0.89543   0.00000  Uiso   1.00
C110   C     0.41794   0.25007   0.86685   0.00000  Uiso   1.00
C111   C     0.39021   0.23474   0.84418   0.00000  Uiso   1.00
C112   C     0.49306   0.21733   0.58216   0.00000  Uiso   1.00
C113   C     0.25000  -0.00000   0.60207   0.00000  Uiso   1.00
C114   C     0.37990   0.19844   0.84989   0.00000  Uiso   1.00
C115   C     0.39719   0.17743   0.87840   0.00000  Uiso   1.00
C116   C     0.42498   0.19261   0.90111   0.00000  Uiso   1.00
C117   C     0.06202   0.22300   0.10387   0.00000  Uiso   1.00
C118   C     0.08177   0.24166   0.13283   0.00000  Uiso   1.00
C119   C     0.10818   0.22334   0.15470   0.00000  Uiso   1.00
C120   C     0.11504   0.18640   0.14786   0.00000  Uiso   1.00
C121   C     0.09553   0.16775   0.11911   0.00000  Uiso   1.00
C122   C     0.06916   0.18594   0.09713   0.00000  Uiso   1.00
C123   C     0.28008   0.43898   0.89604   0.00000  Uiso   1.00
C124   C     0.25000   0.00000   0.89791   0.00000  Uiso   1.00
C125   C     0.26219   0.41910   0.86660   0.00000  Uiso   1.00
C126   C     0.28093   0.39235   0.84560   0.00000  Uiso   1.00
C127   C     0.31750   0.38508   0.85390   0.00000  Uiso   1.00
C128   C     0.33544   0.40460   0.88314   0.00000  Uiso   1.00
C129   C     0.31686   0.43146   0.90417   0.00000  Uiso   1.00
C130   C     0.22927   0.06386   0.10614   0.00000  Uiso   1.00
C131   C     0.19194   0.07211   0.10732   0.00000  Uiso   1.00
C132   C     0.17894   0.09861   0.13309   0.00000  Uiso   1.00
C133   C     0.20306   0.11721   0.15758   0.00000  Uiso   1.00
C134   C     0.24029   0.10927   0.15646   0.00000  Uiso   1.00
C135   C     0.25000   0.00000   0.10209   0.00000  Uiso   1.00
C136   C     0.25340   0.08258   0.13100   0.00000  Uiso   1.00
C137   C     0.06434   0.27098   0.89543   0.00000  Uiso   1.00
C138   C     0.08206   0.24993   0.86685   0.00000  Uiso   1.00
C139   C     0.10979   0.26525   0.84418   0.00000  Uiso   1.00
C140   C     0.12009   0.30156   0.84988   0.00000  Uiso   1.00
C141   C     0.10281   0.32257   0.87838   0.00000  Uiso   1.00
C142   C     0.07502   0.30739   0.90110   0.00000  Uiso   1.00
C143   C     0.43798   0.27701   0.10387   0.00000  Uiso   1.00
C144   C     0.41823   0.25834   0.13282   0.00000  Uiso   1.00
C145   C     0.39183   0.27667   0.15471   0.00000  Uiso   1.00
C146   C     0.00000   0.25000   0.89786   0.00000  Uiso   1.00
C147   C     0.38499   0.31361   0.14789   0.00000  Uiso   1.00
C148   C     0.40451   0.33227   0.11915   0.00000  Uiso   1.00
C149   C     0.43086   0.31408   0.09716   0.00000  Uiso   1.00
C150   C     0.00000   0.25000   0.10197   0.00000  Uiso   1.00
C151   C     0.00078   0.18307   0.47965   0.00000  Uiso   1.00
C152   C     0.49981   0.31694   0.52035   0.00000  Uiso   1.00
C153   C     0.31691   0.00013   0.47965   0.00000  Uiso   1.00
C154   C     0.18309   0.00049   0.52035   0.00000  Uiso   1.00
C155   C     0.49921   0.31693   0.47965   0.00000  Uiso   1.00
C156   C     0.21738   0.49289   0.41784   0.00000  Uiso   1.00
C157   C     0.00019   0.18306   0.52035   0.00000  Uiso   1.00
C158   C     0.18309   0.49987   0.47965   0.00000  Uiso   1.00
C159   C     0.31691   0.49951   0.52035   0.00000  Uiso   1.00
C160   C     0.25531   0.43342   0.97927   0.00000  Uiso   1.00
C161   C     0.24533   0.06692   0.02002   0.00000  Uiso   1.00
C162   C     0.06688   0.24777   0.97955   0.00000  Uiso   1.00
C163   C     0.43319   0.25310   0.02025   0.00000  Uiso   1.00
C164   C     0.24469   0.06658   0.97926   0.00000  Uiso   1.00
C165   C     0.25465   0.43308   0.02002   0.00000  Uiso   1.00
C166   C     0.43312   0.25225   0.97955   0.00000  Uiso   1.00
C167   C     0.28257   0.49269   0.58215   0.00000  Uiso   1.00
C168   C     0.06681   0.24693   0.02025   0.00000  Uiso   1.00
C169   C     0.25000   0.00000   0.35564   0.00000  Uiso   1.00
C170   C     0.25000   0.00000   0.64436   0.00000  Uiso   1.00
C171   C     0.00000   0.25000   0.35563   0.00000  Uiso   1.00
C172   C     0.00000   0.25000   0.64437   0.00000  Uiso   1.00
C173   C     0.00000   0.25000   0.85561   0.00000  Uiso   1.00
C174   C     0.00000   0.25000   0.14432   0.00000  Uiso   1.00
C175   C     0.25000   0.00000   0.85564   0.00000  Uiso   1.00
C176   C     0.25000   0.00000   0.14441   0.00000  Uiso   1.00
C177   C     0.17993   0.07008   0.24999   0.00000  Uiso   1.00
C178   C     0.00744   0.21745   0.41785   0.00000  Uiso   1.00
C179   C     0.32011   0.42997   0.74994   0.00000  Uiso   1.00
C180   C     0.42997   0.17988   0.25007   0.00000  Uiso   1.00
C181   C     0.07007   0.32006   0.75001   0.00000  Uiso   1.00
C182   C     0.32007   0.42992   0.24999   0.00000  Uiso   1.00
C183   C     0.17989   0.07003   0.74994   0.00000  Uiso   1.00
C184   C     0.07003   0.32012   0.25007   0.00000  Uiso   1.00
C185   C     0.42993   0.17994   0.75001   0.00000  Uiso   1.00
C186   C     0.17992   0.42993   0.74999   0.00000  Uiso   1.00
C187   C     0.32012   0.07002   0.25008   0.00000  Uiso   1.00
C188   C     0.42994   0.32010   0.74998   0.00000  Uiso   1.00
C189   C     0.00694   0.28267   0.58216   0.00000  Uiso   1.00
C190   C     0.07006   0.17992   0.25001   0.00000  Uiso   1.00
C191   C     0.32008   0.07007   0.74999   0.00000  Uiso   1.00
C192   C     0.17988   0.42998   0.25008   0.00000  Uiso   1.00
C193   C     0.07006   0.17990   0.74998   0.00000  Uiso   1.00
C194   C     0.42994   0.32008   0.25001   0.00000  Uiso   1.00
C195   C     0.12284   0.40392   0.22361   0.00000  Uiso   1.00
C196   C     0.37595   0.09733   0.77798   0.00000  Uiso   1.00
C197   C     0.09622   0.12294   0.22336   0.00000  Uiso   1.00
C198   C     0.40400   0.37732   0.77629   0.00000  Uiso   1.00
C199   C     0.37716   0.09608   0.22361   0.00000  Uiso   1.00
C200   C     0.28262   0.00711   0.41784   0.00000  Uiso   1.00
C201   C     0.12405   0.40267   0.77798   0.00000  Uiso   1.00
C202   C     0.40380   0.37708   0.22339   0.00000  Uiso   1.00
C203   C     0.09600   0.12268   0.77629   0.00000  Uiso   1.00
C204   C     0.12267   0.09591   0.77621   0.00000  Uiso   1.00
C205   C     0.37705   0.40377   0.22336   0.00000  Uiso   1.00
C206   C     0.09732   0.37592   0.77800   0.00000  Uiso   1.00
C207   C     0.40389   0.12281   0.22360   0.00000  Uiso   1.00
C208   C     0.37733   0.40409   0.77621   0.00000  Uiso   1.00
C209   C     0.12297   0.09624   0.22333   0.00000  Uiso   1.00
C210   C     0.40268   0.12408   0.77800   0.00000  Uiso   1.00
C211   C     0.21743   0.00731   0.58215   0.00000  Uiso   1.00
C212   C     0.09611   0.37719   0.22360   0.00000  Uiso   1.00
C213   C     0.37407   0.15271   0.72203   0.00000  Uiso   1.00
C214   C     0.12669   0.34658   0.27714   0.00000  Uiso   1.00
C215   C     0.34628   0.37302   0.72327   0.00000  Uiso   1.00
C216   C     0.15371   0.12702   0.27667   0.00000  Uiso   1.00
C217   C     0.12593   0.34728   0.72203   0.00000  Uiso   1.00
C218   C     0.37331   0.15342   0.27714   0.00000  Uiso   1.00
C219   C     0.15372   0.12698   0.72327   0.00000  Uiso   1.00
C220   C     0.34627   0.37296   0.27664   0.00000  Uiso   1.00
C221   C     0.37301   0.34625   0.27665   0.00000  Uiso   1.00
C222   C     0.23913   0.03156   0.91792   0.00000  Uiso   1.00
C223   C     0.12701   0.15372   0.72330   0.00000  Uiso   1.00
C224   C     0.34658   0.12668   0.27715   0.00000  Uiso   1.00
C225   C     0.15266   0.37403   0.72202   0.00000  Uiso   1.00
C226   C     0.12697   0.15372   0.27668   0.00000  Uiso   1.00
C227   C     0.37300   0.34629   0.72330   0.00000  Uiso   1.00
C228   C     0.15342   0.37332   0.27715   0.00000  Uiso   1.00
C229   C     0.34734   0.12597   0.72201   0.00000  Uiso   1.00
C230   C     0.00264   0.21638   0.45876   0.00000  Uiso   1.00
C231   C     0.00215   0.28366   0.54125   0.00000  Uiso   1.00
C232   C     0.28364   0.00231   0.45875   0.00000  Uiso   1.00
Cl233  Cl    0.49359   0.14039   0.45635   0.00000  Uiso   1.00
Cl234  Cl    0.25080   0.11022   0.04261   0.00000  Uiso   1.00
Cl235  Cl    0.10923   0.23899   0.95623   0.00000  Uiso   1.00
Cl236  Cl    0.39036   0.24768   0.04372   0.00000  Uiso   1.00
Cl237  Cl    0.25099   0.10895   0.95491   0.00000  Uiso   1.00
Cl238  Cl    0.24915   0.38978   0.04261   0.00000  Uiso   1.00
Cl239  Cl    0.39078   0.26103   0.95623   0.00000  Uiso   1.00
Cl240  Cl    0.10964   0.25236   0.04373   0.00000  Uiso   1.00
Cl241  Cl    0.49202   0.35950   0.54365   0.00000  Uiso   1.00
Cl242  Cl    0.35950   0.49256   0.45635   0.00000  Uiso   1.00
Cl243  Cl    0.14046   0.49315   0.54365   0.00000  Uiso   1.00
Cl244  Cl    0.00640   0.35961   0.45636   0.00000  Uiso   1.00
Cl245  Cl    0.00797   0.14050   0.54365   0.00000  Uiso   1.00
Cl246  Cl    0.14051   0.00744   0.45635   0.00000  Uiso   1.00
Cl247  Cl    0.35954   0.00685   0.54366   0.00000  Uiso   1.00
Cl248  Cl    0.24901   0.39105   0.95491   0.00000  Uiso   1.00
H249   H     0.12097   0.42590   0.20263   0.00000  Uiso   1.00
H250   H     0.37896   0.42579   0.20242   0.00000  Uiso   1.00
H251   H     0.19289   0.13748   0.17772   0.00000  Uiso   1.00
H252   H     0.25892   0.12343   0.17567   0.00000  Uiso   1.00
H253   H     0.28220   0.07608   0.13093   0.00000  Uiso   1.00
H254   H     0.07422   0.22180   0.86205   0.00000  Uiso   1.00
H255   H     0.12315   0.24901   0.82206   0.00000  Uiso   1.00
H256   H     0.14142   0.31345   0.83215   0.00000  Uiso   1.00
H257   H     0.11076   0.35072   0.88266   0.00000  Uiso   1.00
H258   H     0.06144   0.32410   0.92269   0.00000  Uiso   1.00
H259   H     0.42342   0.22975   0.13845   0.00000  Uiso   1.00
H260   H     0.37681   0.26229   0.17709   0.00000  Uiso   1.00
H261   H     0.07619   0.37694   0.80001   0.00000  Uiso   1.00
H262   H     0.36472   0.32779   0.16502   0.00000  Uiso   1.00
H263   H     0.39955   0.36092   0.11403   0.00000  Uiso   1.00
H264   H     0.44611   0.32895   0.07530   0.00000  Uiso   1.00
H265   H     0.42586   0.12093   0.20262   0.00000  Uiso   1.00
H266   H     0.37935   0.42622   0.79700   0.00000  Uiso   1.00
H267   H     0.12108   0.07425   0.20238   0.00000  Uiso   1.00
H268   H     0.42381   0.12306   0.80001   0.00000  Uiso   1.00
H269   H     0.07414   0.37907   0.20261   0.00000  Uiso   1.00
H270   H     0.37306   0.17386   0.70003   0.00000  Uiso   1.00
H271   H     0.12853   0.32462   0.29815   0.00000  Uiso   1.00
H272   H     0.32418   0.37101   0.70246   0.00000  Uiso   1.00
H273   H     0.37700   0.07616   0.79995   0.00000  Uiso   1.00
H274   H     0.17573   0.12896   0.29759   0.00000  Uiso   1.00
H275   H     0.12694   0.32614   0.70003   0.00000  Uiso   1.00
H276   H     0.37147   0.17538   0.29815   0.00000  Uiso   1.00
H277   H     0.17582   0.12899   0.70246   0.00000  Uiso   1.00
H278   H     0.32424   0.37100   0.29754   0.00000  Uiso   1.00
H279   H     0.37110   0.32424   0.29759   0.00000  Uiso   1.00
H280   H     0.12904   0.17585   0.70252   0.00000  Uiso   1.00
H281   H     0.32466   0.12849   0.29820   0.00000  Uiso   1.00
H282   H     0.17382   0.37297   0.70003   0.00000  Uiso   1.00
H283   H     0.12886   0.17572   0.29764   0.00000  Uiso   1.00
H284   H     0.07424   0.12104   0.20239   0.00000  Uiso   1.00
H285   H     0.37096   0.32415   0.70252   0.00000  Uiso   1.00
H286   H     0.17534   0.37151   0.29820   0.00000  Uiso   1.00
H287   H     0.32618   0.12702   0.70003   0.00000  Uiso   1.00
H288   H     0.02490   0.32517   0.36192   0.00000  Uiso   1.00
H289   H     0.49582   0.37326   0.32230   0.00000  Uiso   1.00
H290   H     0.43091   0.38926   0.33291   0.00000  Uiso   1.00
H291   H     0.39499   0.35708   0.38348   0.00000  Uiso   1.00
H292   H     0.42348   0.30856   0.42314   0.00000  Uiso   1.00
H293   H     0.02605   0.17519   0.63802   0.00000  Uiso   1.00
H294   H     0.49769   0.12666   0.67767   0.00000  Uiso   1.00
H295   H     0.42610   0.37935   0.79710   0.00000  Uiso   1.00
H296   H     0.43299   0.10970   0.66716   0.00000  Uiso   1.00
H297   H     0.39657   0.14134   0.61664   0.00000  Uiso   1.00
H298   H     0.42434   0.19029   0.57696   0.00000  Uiso   1.00
H299   H     0.17510   0.02564   0.36195   0.00000  Uiso   1.00
H300   H     0.12676   0.49699   0.32229   0.00000  Uiso   1.00
H301   H     0.11015   0.43218   0.33283   0.00000  Uiso   1.00
H302   H     0.14194   0.39594   0.38339   0.00000  Uiso   1.00
H303   H     0.19070   0.42400   0.42309   0.00000  Uiso   1.00
H304   H     0.32505   0.02518   0.63809   0.00000  Uiso   1.00
H305   H     0.37321   0.49625   0.67771   0.00000  Uiso   1.00
H306   H     0.37903   0.07410   0.20263   0.00000  Uiso   1.00
H307   H     0.38942   0.43137   0.66710   0.00000  Uiso   1.00
H308   H     0.35740   0.39533   0.61651   0.00000  Uiso   1.00
H309   H     0.30881   0.42368   0.57685   0.00000  Uiso   1.00
H310   H     0.47510   0.17484   0.36192   0.00000  Uiso   1.00
H311   H     0.00418   0.12674   0.32230   0.00000  Uiso   1.00
H312   H     0.06909   0.11074   0.33292   0.00000  Uiso   1.00
H313   H     0.10501   0.14291   0.38350   0.00000  Uiso   1.00
H314   H     0.07652   0.19143   0.42315   0.00000  Uiso   1.00
H315   H     0.47396   0.32481   0.63803   0.00000  Uiso   1.00
H316   H     0.00233   0.37334   0.67768   0.00000  Uiso   1.00
H317   H     0.12300   0.42384   0.79995   0.00000  Uiso   1.00
H318   H     0.06703   0.39030   0.66714   0.00000  Uiso   1.00
H319   H     0.10344   0.35866   0.61662   0.00000  Uiso   1.00
H320   H     0.07566   0.30971   0.57694   0.00000  Uiso   1.00
H321   H     0.32490   0.47436   0.36195   0.00000  Uiso   1.00
H322   H     0.37324   0.00301   0.32229   0.00000  Uiso   1.00
H323   H     0.38985   0.06782   0.33283   0.00000  Uiso   1.00
H324   H     0.35806   0.10406   0.38339   0.00000  Uiso   1.00
H325   H     0.30930   0.07600   0.42309   0.00000  Uiso   1.00
H326   H     0.17495   0.47482   0.63808   0.00000  Uiso   1.00
H327   H     0.12679   0.00375   0.67771   0.00000  Uiso   1.00
H328   H     0.42579   0.37900   0.20244   0.00000  Uiso   1.00
H329   H     0.11058   0.06863   0.66710   0.00000  Uiso   1.00
H330   H     0.14261   0.10467   0.61651   0.00000  Uiso   1.00
H331   H     0.19119   0.07632   0.57685   0.00000  Uiso   1.00
H332   H     0.26623   0.07575   0.86007   0.00000  Uiso   1.00
H333   H     0.23291   0.12276   0.82290   0.00000  Uiso   1.00
H334   H     0.16806   0.13567   0.83764   0.00000  Uiso   1.00
H335   H     0.13620   0.10101   0.88944   0.00000  Uiso   1.00
H336   H     0.16888   0.05344   0.92660   0.00000  Uiso   1.00
H337   H     0.32709   0.44262   0.08906   0.00000  Uiso   1.00
H338   H     0.34987   0.39568   0.13454   0.00000  Uiso   1.00
H339   H     0.07390   0.12065   0.79709   0.00000  Uiso   1.00
H340   H     0.30706   0.36247   0.17769   0.00000  Uiso   1.00
H341   H     0.24104   0.37657   0.17567   0.00000  Uiso   1.00
H342   H     0.21778   0.42394   0.13094   0.00000  Uiso   1.00
H343   H     0.42578   0.27819   0.86204   0.00000  Uiso   1.00
H344   H     0.37685   0.25097   0.82206   0.00000  Uiso   1.00
H345   H     0.35858   0.18654   0.83216   0.00000  Uiso   1.00
H346   H     0.38924   0.14929   0.88268   0.00000  Uiso   1.00
H347   H     0.43856   0.17591   0.92271   0.00000  Uiso   1.00
H348   H     0.07657   0.27025   0.13847   0.00000  Uiso   1.00
H349   H     0.12318   0.23771   0.17709   0.00000  Uiso   1.00
H350   H     0.12065   0.07378   0.79700   0.00000  Uiso   1.00
H351   H     0.13531   0.17222   0.16498   0.00000  Uiso   1.00
H352   H     0.10051   0.13910   0.11397   0.00000  Uiso   1.00
H353   H     0.05393   0.17107   0.07525   0.00000  Uiso   1.00
H354   H     0.23377   0.42425   0.86007   0.00000  Uiso   1.00
H355   H     0.26709   0.37724   0.82291   0.00000  Uiso   1.00
H356   H     0.33194   0.36433   0.83765   0.00000  Uiso   1.00
H357   H     0.36380   0.39899   0.88945   0.00000  Uiso   1.00
H358   H     0.33112   0.44656   0.92660   0.00000  Uiso   1.00
H359   H     0.17289   0.05733   0.08909   0.00000  Uiso   1.00
H360   H     0.15009   0.10425   0.13458   0.00000  Uiso   1.00
O361   O     0.25000   0.00000   0.25000   0.00000  Uiso   1.00
O362   O     0.25000   0.46964   0.66245   0.00000  Uiso   1.00
O363   O     0.46964   0.25000   0.33755   0.00000  Uiso   1.00
O364   O     0.03037   0.25000   0.66245   0.00000  Uiso   1.00
O365   O     0.00000   0.21964   0.83755   0.00000  Uiso   1.00
O366   O     0.00000   0.28037   0.16245   0.00000  Uiso   1.00
O367   O     0.28037  -0.00000   0.83755   0.00000  Uiso   1.00
O368   O     0.21964   0.00000   0.16245   0.00000  Uiso   1.00
O369   O     0.00000   0.28037   0.83755   0.00000  Uiso   1.00
O370   O     0.00000   0.21963   0.16245   0.00000  Uiso   1.00
O371   O     0.21964  -0.00000   0.83755   0.00000  Uiso   1.00
O372   O     0.25000   0.00000   0.75000   0.00000  Uiso   1.00
O373   O     0.28037   0.00000   0.16245   0.00000  Uiso   1.00
O374   O     0.20725   0.07307   0.27302   0.00000  Uiso   1.00
O375   O     0.29276   0.42693   0.72698   0.00000  Uiso   1.00
O376   O     0.42693   0.20724   0.27302   0.00000  Uiso   1.00
O377   O     0.07308   0.29276   0.72698   0.00000  Uiso   1.00
O378   O     0.29276   0.42693   0.27302   0.00000  Uiso   1.00
O379   O     0.20725   0.07307   0.72698   0.00000  Uiso   1.00
O380   O     0.07308   0.29276   0.27302   0.00000  Uiso   1.00
O381   O     0.42693   0.20724   0.72698   0.00000  Uiso   1.00
O382   O     0.20725   0.42693   0.72698   0.00000  Uiso   1.00
O383   O     0.00000   0.25000   0.25000   0.00000  Uiso   1.00
O384   O     0.29276   0.07307   0.27302   0.00000  Uiso   1.00
O385   O     0.42693   0.29276   0.72698   0.00000  Uiso   1.00
O386   O     0.07308   0.20725   0.27302   0.00000  Uiso   1.00
O387   O     0.29276   0.07307   0.72698   0.00000  Uiso   1.00
O388   O     0.20725   0.42693   0.27302   0.00000  Uiso   1.00
O389   O     0.07308   0.20725   0.72698   0.00000  Uiso   1.00
O390   O     0.42693   0.29276   0.27302   0.00000  Uiso   1.00
O391   O     0.45725   0.32308   0.77302   0.00000  Uiso   1.00
O392   O     0.04276   0.17693   0.22698   0.00000  Uiso   1.00
O393   O     0.17693   0.45725   0.77302   0.00000  Uiso   1.00
O394   O     0.00000   0.25000   0.75000   0.00000  Uiso   1.00
O395   O     0.32308   0.04275   0.22698   0.00000  Uiso   1.00
O396   O     0.04276   0.17693   0.77302   0.00000  Uiso   1.00
O397   O     0.45725   0.32308   0.22698   0.00000  Uiso   1.00
O398   O     0.32308   0.04275   0.77302   0.00000  Uiso   1.00
O399   O     0.17693   0.45725   0.22698   0.00000  Uiso   1.00
O400   O     0.45725   0.17692   0.22698   0.00000  Uiso   1.00
O401   O     0.04276   0.32308   0.77302   0.00000  Uiso   1.00
O402   O     0.17693   0.04275   0.22698   0.00000  Uiso   1.00
O403   O     0.32308   0.45725   0.77302   0.00000  Uiso   1.00
O404   O     0.04276   0.32308   0.22698   0.00000  Uiso   1.00
O405   O     0.25000   0.46964   0.33755   0.00000  Uiso   1.00
O406   O     0.45725   0.17692   0.77302   0.00000  Uiso   1.00
O407   O     0.32308   0.45725   0.22698   0.00000  Uiso   1.00
O408   O     0.17693   0.04275   0.77302   0.00000  Uiso   1.00
O409   O     0.25000   0.03036   0.66245   0.00000  Uiso   1.00
O410   O     0.03037   0.25000   0.33755   0.00000  Uiso   1.00
O411   O     0.46964   0.25000   0.66245   0.00000  Uiso   1.00
O412   O     0.25000   0.03036   0.33755   0.00000  Uiso   1.00
Zn413  Zn    0.20660   0.00000   0.21735   0.00000  Uiso   1.00
Zn414  Zn    0.04341   0.25000   0.28265   0.00000  Uiso   1.00
Zn415  Zn    0.25000   0.45660   0.71735   0.00000  Uiso   1.00
Zn416  Zn    0.25000   0.04340   0.28265   0.00000  Uiso   1.00
Zn417  Zn    0.04341   0.25000   0.71735   0.00000  Uiso   1.00
Zn418  Zn    0.45660   0.25000   0.28265   0.00000  Uiso   1.00
Zn419  Zn    0.25000   0.04340   0.71735   0.00000  Uiso   1.00
Zn420  Zn    0.25000   0.45660   0.28265   0.00000  Uiso   1.00
Zn421  Zn    0.29341   0.00000   0.78265   0.00000  Uiso   1.00
Zn422  Zn    0.00000   0.20659   0.21735   0.00000  Uiso   1.00
Zn423  Zn    0.00000   0.29341   0.78265   0.00000  Uiso   1.00
Zn424  Zn    0.29341   0.00000   0.21735   0.00000  Uiso   1.00
Zn425  Zn    0.20660   0.00000   0.78265   0.00000  Uiso   1.00
Zn426  Zn    0.00000   0.29341   0.21735   0.00000  Uiso   1.00
Zn427  Zn    0.00000   0.20659   0.78265   0.00000  Uiso   1.00
Zn428  Zn    0.45660   0.25000   0.71735   0.00000  Uiso   1.00
C429   C     0.99256   0.28255   0.41785   0.00000  Uiso   1.00
C430   C     0.75761   0.46745   0.08237   0.00000  Uiso   1.00
C431   C     0.71638   0.00250   0.54124   0.00000  Uiso   1.00
C432   C     0.99735   0.28362   0.45876   0.00000  Uiso   1.00
C433   C     0.99785   0.21634   0.54125   0.00000  Uiso   1.00
C434   C     0.71636   0.49769   0.45875   0.00000  Uiso   1.00
C435   C     0.78362   0.49750   0.54124   0.00000  Uiso   1.00
C436   C     0.75592   0.46691   0.95876   0.00000  Uiso   1.00
C437   C     0.74541   0.03360   0.04125   0.00000  Uiso   1.00
C438   C     0.53371   0.25114   0.95864   0.00000  Uiso   1.00
C439   C     0.96655   0.25385   0.04108   0.00000  Uiso   1.00
C440   C     0.74408   0.03309   0.95876   0.00000  Uiso   1.00
C441   C     0.96715   0.24403   0.91775   0.00000  Uiso   1.00
C442   C     0.75458   0.46640   0.04125   0.00000  Uiso   1.00
C443   C     0.96629   0.24887   0.95864   0.00000  Uiso   1.00
C444   C     0.53345   0.24617   0.04108   0.00000  Uiso   1.00
C445   C     0.59796   0.34832   0.25027   0.00000  Uiso   1.00
C446   C     0.90187   0.15189   0.75002   0.00000  Uiso   1.00
C447   C     0.65185   0.09814   0.25000   0.00000  Uiso   1.00
C448   C     0.84827   0.40201   0.74980   0.00000  Uiso   1.00
C449   C     0.90204   0.15168   0.25027   0.00000  Uiso   1.00
C450   C     0.59813   0.34811   0.75002   0.00000  Uiso   1.00
C451   C     0.84815   0.40186   0.24999   0.00000  Uiso   1.00
C452   C     0.53216   0.24126   0.08196   0.00000  Uiso   1.00
C453   C     0.65174   0.09799   0.74980   0.00000  Uiso   1.00
C454   C     0.59805   0.15175   0.74986   0.00000  Uiso   1.00
C455   C     0.90190   0.34816   0.25002   0.00000  Uiso   1.00
C456   C     0.65185   0.40185   0.74999   0.00000  Uiso   1.00
C457   C     0.84831   0.09794   0.25029   0.00000  Uiso   1.00
C458   C     0.90195   0.34825   0.74986   0.00000  Uiso   1.00
C459   C     0.59810   0.15184   0.25002   0.00000  Uiso   1.00
C460   C     0.84815   0.09815   0.74999   0.00000  Uiso   1.00
C461   C     0.65169   0.40206   0.25029   0.00000  Uiso   1.00
C462   C     0.50000   0.25000   0.47939   0.00000  Uiso   1.00
C463   C     0.76087   0.46844   0.91792   0.00000  Uiso   1.00
C464   C     0.50000   0.25000   0.52062   0.00000  Uiso   1.00
C465   C     0.75000   0.00000   0.47938   0.00000  Uiso   1.00
C466   C     0.75000   0.00000   0.52061   0.00000  Uiso   1.00
C467   C     0.75000   0.00000   0.97945   0.00000  Uiso   1.00
C468   C     0.75000   0.00000   0.02069   0.00000  Uiso   1.00
C469   C     0.50000   0.25001   0.97925   0.00000  Uiso   1.00
C470   C     0.50000   0.25001   0.02046   0.00000  Uiso   1.00
C471   C     0.97629   0.31342   0.39556   0.00000  Uiso   1.00
C472   C     0.99655   0.33198   0.36691   0.00000  Uiso   1.00
C473   C     0.98018   0.35924   0.34446   0.00000  Uiso   1.00
C474   C     0.74238   0.03255   0.08237   0.00000  Uiso   1.00
C475   C     0.94360   0.36826   0.35045   0.00000  Uiso   1.00
C476   C     0.92335   0.35012   0.37898   0.00000  Uiso   1.00
C477   C     0.93958   0.32278   0.40148   0.00000  Uiso   1.00
C478   C     0.97724   0.18622   0.60447   0.00000  Uiso   1.00
C479   C     0.99780   0.16796   0.63307   0.00000  Uiso   1.00
C480   C     0.98183   0.14045   0.65555   0.00000  Uiso   1.00
C481   C     0.94537   0.13088   0.64961   0.00000  Uiso   1.00
C482   C     0.92483   0.14872   0.62110   0.00000  Uiso   1.00
C483   C     0.94066   0.17631   0.59859   0.00000  Uiso   1.00
C484   C     0.68636   0.47689   0.39554   0.00000  Uiso   1.00
C485   C     0.53285   0.25598   0.91775   0.00000  Uiso   1.00
C486   C     0.66801   0.49734   0.36691   0.00000  Uiso   1.00
C487   C     0.64062   0.48121   0.34443   0.00000  Uiso   1.00
C488   C     0.63124   0.44468   0.35039   0.00000  Uiso   1.00
C489   C     0.64917   0.42425   0.37892   0.00000  Uiso   1.00
C490   C     0.67665   0.44024   0.40144   0.00000  Uiso   1.00
C491   C     0.81348   0.47652   0.60444   0.00000  Uiso   1.00
C492   C     0.83196   0.49685   0.63309   0.00000  Uiso   1.00
C493   C     0.85926   0.48056   0.65555   0.00000  Uiso   1.00
C494   C     0.86840   0.44399   0.64956   0.00000  Uiso   1.00
C495   C     0.85035   0.42368   0.62101   0.00000  Uiso   1.00
C496   C     0.96784   0.25874   0.08196   0.00000  Uiso   1.00
C497   C     0.82296   0.43983   0.59851   0.00000  Uiso   1.00
C498   C     0.52371   0.18658   0.39556   0.00000  Uiso   1.00
C499   C     0.50344   0.16802   0.36691   0.00000  Uiso   1.00
C500   C     0.51982   0.14076   0.34446   0.00000  Uiso   1.00
C501   C     0.55640   0.13173   0.35045   0.00000  Uiso   1.00
C502   C     0.57665   0.14987   0.37899   0.00000  Uiso   1.00
C503   C     0.56042   0.17722   0.40148   0.00000  Uiso   1.00
C504   C     0.52276   0.31378   0.60446   0.00000  Uiso   1.00
C505   C     0.50221   0.33204   0.63308   0.00000  Uiso   1.00
C506   C     0.51818   0.35955   0.65554   0.00000  Uiso   1.00
C507   C     0.50000   0.25000   0.39792   0.00000  Uiso   1.00
C508   C     0.55465   0.36912   0.64960   0.00000  Uiso   1.00
C509   C     0.57517   0.35128   0.62109   0.00000  Uiso   1.00
C510   C     0.55935   0.32369   0.59858   0.00000  Uiso   1.00
C511   C     0.81364   0.02311   0.39555   0.00000  Uiso   1.00
C512   C     0.83199   0.00266   0.36692   0.00000  Uiso   1.00
C513   C     0.85939   0.01879   0.34444   0.00000  Uiso   1.00
C514   C     0.86876   0.05532   0.35039   0.00000  Uiso   1.00
C515   C     0.85083   0.07575   0.37892   0.00000  Uiso   1.00
C516   C     0.82335   0.05976   0.40144   0.00000  Uiso   1.00
C517   C     0.68652   0.02348   0.60444   0.00000  Uiso   1.00
C518   C     0.50000   0.25000   0.60208   0.00000  Uiso   1.00
C519   C     0.66804   0.00315   0.63309   0.00000  Uiso   1.00
C520   C     0.64074   0.01944   0.65555   0.00000  Uiso   1.00
C521   C     0.63160   0.05601   0.64956   0.00000  Uiso   1.00
C522   C     0.64966   0.07632   0.62101   0.00000  Uiso   1.00
C523   C     0.67704   0.06017   0.59851   0.00000  Uiso   1.00
C524   C     0.71992   0.06102   0.89604   0.00000  Uiso   1.00
C525   C     0.73781   0.08090   0.86659   0.00000  Uiso   1.00
C526   C     0.71907   0.10765   0.84560   0.00000  Uiso   1.00
C527   C     0.68250   0.11492   0.85390   0.00000  Uiso   1.00
C528   C     0.66456   0.09540   0.88314   0.00000  Uiso   1.00
C529   C     0.75000  -0.00000   0.39792   0.00000  Uiso   1.00
C530   C     0.68314   0.06854   0.90417   0.00000  Uiso   1.00
C531   C     0.77071   0.43613   0.10614   0.00000  Uiso   1.00
C532   C     0.80804   0.42786   0.10731   0.00000  Uiso   1.00
C533   C     0.82102   0.40134   0.13306   0.00000  Uiso   1.00
C534   C     0.79690   0.38276   0.15755   0.00000  Uiso   1.00
C535   C     0.75968   0.39073   0.15645   0.00000  Uiso   1.00
C536   C     0.74657   0.41742   0.13100   0.00000  Uiso   1.00
C537   C     0.93566   0.22902   0.89543   0.00000  Uiso   1.00
C538   C     0.91794   0.25007   0.86685   0.00000  Uiso   1.00
C539   C     0.89021   0.23474   0.84418   0.00000  Uiso   1.00
C540   C     0.99306   0.21733   0.58216   0.00000  Uiso   1.00
C541   C     0.75000  -0.00000   0.60207   0.00000  Uiso   1.00
C542   C     0.87990   0.19844   0.84989   0.00000  Uiso   1.00
C543   C     0.89719   0.17743   0.87840   0.00000  Uiso   1.00
C544   C     0.92498   0.19261   0.90111   0.00000  Uiso   1.00
C545   C     0.56202   0.22300   0.10387   0.00000  Uiso   1.00
C546   C     0.58177   0.24166   0.13283   0.00000  Uiso   1.00
C547   C     0.60818   0.22334   0.15470   0.00000  Uiso   1.00
C548   C     0.61504   0.18640   0.14786   0.00000  Uiso   1.00
C549   C     0.59553   0.16775   0.11911   0.00000  Uiso   1.00
C550   C     0.56916   0.18594   0.09713   0.00000  Uiso   1.00
C551   C     0.78008   0.43898   0.89604   0.00000  Uiso   1.00
C552   C     0.75000   0.00000   0.89791   0.00000  Uiso   1.00
C553   C     0.76219   0.41910   0.86660   0.00000  Uiso   1.00
C554   C     0.78093   0.39235   0.84560   0.00000  Uiso   1.00
C555   C     0.81750   0.38508   0.85390   0.00000  Uiso   1.00
C556   C     0.83544   0.40460   0.88314   0.00000  Uiso   1.00
C557   C     0.81686   0.43146   0.90417   0.00000  Uiso   1.00
C558   C     0.72927   0.06386   0.10614   0.00000  Uiso   1.00
C559   C     0.69194   0.07211   0.10732   0.00000  Uiso   1.00
C560   C     0.67894   0.09861   0.13309   0.00000  Uiso   1.00
C561   C     0.70306   0.11721   0.15758   0.00000  Uiso   1.00
C562   C     0.74029   0.10927   0.15646   0.00000  Uiso   1.00
C563   C     0.75000   0.00000   0.10209   0.00000  Uiso   1.00
C564   C     0.75340   0.08258   0.13100   0.00000  Uiso   1.00
C565   C     0.56434   0.27098   0.89543   0.00000  Uiso   1.00
C566   C     0.58206   0.24993   0.86685   0.00000  Uiso   1.00
C567   C     0.60979   0.26525   0.84418   0.00000  Uiso   1.00
C568   C     0.62009   0.30156   0.84988   0.00000  Uiso   1.00
C569   C     0.60281   0.32257   0.87838   0.00000  Uiso   1.00
C570   C     0.57502   0.30739   0.90110   0.00000  Uiso   1.00
C571   C     0.93798   0.27701   0.10387   0.00000  Uiso   1.00
C572   C     0.91823   0.25834   0.13282   0.00000  Uiso   1.00
C573   C     0.89183   0.27667   0.15471   0.00000  Uiso   1.00
C574   C     0.50000   0.25000   0.89786   0.00000  Uiso   1.00
C575   C     0.88499   0.31361   0.14789   0.00000  Uiso   1.00
C576   C     0.90451   0.33227   0.11915   0.00000  Uiso   1.00
C577   C     0.93086   0.31408   0.09716   0.00000  Uiso   1.00
C578   C     0.50000   0.25000   0.10197   0.00000  Uiso   1.00
C579   C     0.50078   0.18307   0.47965   0.00000  Uiso   1.00
C580   C     0.99981   0.31694   0.52035   0.00000  Uiso   1.00
C581   C     0.81691   0.00013   0.47965   0.00000  Uiso   1.00
C582   C     0.68309   0.00049   0.52035   0.00000  Uiso   1.00
C583   C     0.99921   0.31693   0.47965   0.00000  Uiso   1.00
C584   C     0.71738   0.49289   0.41784   0.00000  Uiso   1.00
C585   C     0.50019   0.18306   0.52035   0.00000  Uiso   1.00
C586   C     0.68309   0.49987   0.47965   0.00000  Uiso   1.00
C587   C     0.81691   0.49951   0.52035   0.00000  Uiso   1.00
C588   C     0.75531   0.43342   0.97927   0.00000  Uiso   1.00
C589   C     0.74533   0.06692   0.02002   0.00000  Uiso   1.00
C590   C     0.56688   0.24777   0.97955   0.00000  Uiso   1.00
C591   C     0.93319   0.25310   0.02025   0.00000  Uiso   1.00
C592   C     0.74469   0.06658   0.97926   0.00000  Uiso   1.00
C593   C     0.75465   0.43308   0.02002   0.00000  Uiso   1.00
C594   C     0.93312   0.25225   0.97955   0.00000  Uiso   1.00
C595   C     0.78257   0.49269   0.58215   0.00000  Uiso   1.00
C596   C     0.56681   0.24693   0.02025   0.00000  Uiso   1.00
C597   C     0.75000   0.00000   0.35564   0.00000  Uiso   1.00
C598   C     0.75000   0.00000   0.64436   0.00000  Uiso   1.00
C599   C     0.50000   0.25000   0.35563   0.00000  Uiso   1.00
C600   C     0.50000   0.25000   0.64437   0.00000  Uiso   1.00
C601   C     0.50000   0.25000   0.85561   0.00000  Uiso   1.00
C602   C     0.50000   0.25000   0.14432   0.00000  Uiso   1.00
C603   C     0.75000   0.00000   0.85564   0.00000  Uiso   1.00
C604   C     0.75000   0.00000   0.14441   0.00000  Uiso   1.00
C605   C     0.67993   0.07008   0.24999   0.00000  Uiso   1.00
C606   C     0.50744   0.21745   0.41785   0.00000  Uiso   1.00
C607   C     0.82011   0.42997   0.74994   0.00000  Uiso   1.00
C608   C     0.92997   0.17988   0.25007   0.00000  Uiso   1.00
C609   C     0.57007   0.32006   0.75001   0.00000  Uiso   1.00
C610   C     0.82007   0.42992   0.24999   0.00000  Uiso   1.00
C611   C     0.67989   0.07003   0.74994   0.00000  Uiso   1.00
C612   C     0.57003   0.32012   0.25007   0.00000  Uiso   1.00
C613   C     0.92993   0.17994   0.75001   0.00000  Uiso   1.00
C614   C     0.67992   0.42993   0.74999   0.00000  Uiso   1.00
C615   C     0.82012   0.07002   0.25008   0.00000  Uiso   1.00
C616   C     0.92994   0.32010   0.74998   0.00000  Uiso   1.00
C617   C     0.50694   0.28267   0.58216   0.00000  Uiso   1.00
C618   C     0.57006   0.17992   0.25001   0.00000  Uiso   1.00
C619   C     0.82008   0.07007   0.74999   0.00000  Uiso   1.00
C620   C     0.67988   0.42998   0.25008   0.00000  Uiso   1.00
C621   C     0.57006   0.17990   0.74998   0.00000  Uiso   1.00
C622   C     0.92994   0.32008   0.25001   0.00000  Uiso   1.00
C623   C     0.62284   0.40392   0.22361   0.00000  Uiso   1.00
C624   C     0.87595   0.09733   0.77798   0.00000  Uiso   1.00
C625   C     0.59622   0.12294   0.22336   0.00000  Uiso   1.00
C626   C     0.90400   0.37732   0.77629   0.00000  Uiso   1.00
C627   C     0.87716   0.09608   0.22361   0.00000  Uiso   1.00
C628   C     0.78262   0.00711   0.41784   0.00000  Uiso   1.00
C629   C     0.62405   0.40267   0.77798   0.00000  Uiso   1.00
C630   C     0.90380   0.37708   0.22339   0.00000  Uiso   1.00
C631   C     0.59600   0.12268   0.77629   0.00000  Uiso   1.00
C632   C     0.62267   0.09591   0.77621   0.00000  Uiso   1.00
C633   C     0.87705   0.40377   0.22336   0.00000  Uiso   1.00
C634   C     0.59732   0.37592   0.77800   0.00000  Uiso   1.00
C635   C     0.90389   0.12281   0.22360   0.00000  Uiso   1.00
C636   C     0.87733   0.40409   0.77621   0.00000  Uiso   1.00
C637   C     0.62297   0.09624   0.22333   0.00000  Uiso   1.00
C638   C     0.90268   0.12408   0.77800   0.00000  Uiso   1.00
C639   C     0.71743   0.00731   0.58215   0.00000  Uiso   1.00
C640   C     0.59611   0.37719   0.22360   0.00000  Uiso   1.00
C641   C     0.87407   0.15271   0.72203   0.00000  Uiso   1.00
C642   C     0.62669   0.34658   0.27714   0.00000  Uiso   1.00
C643   C     0.84628   0.37302   0.72327   0.00000  Uiso   1.00
C644   C     0.65371   0.12702   0.27667   0.00000  Uiso   1.00
C645   C     0.62593   0.34728   0.72203   0.00000  Uiso   1.00
C646   C     0.87331   0.15342   0.27714   0.00000  Uiso   1.00
C647   C     0.65372   0.12698   0.72327   0.00000  Uiso   1.00
C648   C     0.84627   0.37296   0.27664   0.00000  Uiso   1.00
C649   C     0.87301   0.34625   0.27665   0.00000  Uiso   1.00
C650   C     0.73913   0.03156   0.91792   0.00000  Uiso   1.00
C651   C     0.62701   0.15372   0.72330   0.00000  Uiso   1.00
C652   C     0.84658   0.12668   0.27715   0.00000  Uiso   1.00
C653   C     0.65266   0.37403   0.72202   0.00000  Uiso   1.00
C654   C     0.62697   0.15372   0.27668   0.00000  Uiso   1.00
C655   C     0.87300   0.34629   0.72330   0.00000  Uiso   1.00
C656   C     0.65342   0.37332   0.27715   0.00000  Uiso   1.00
C657   C     0.84734   0.12597   0.72201   0.00000  Uiso   1.00
C658   C     0.50264   0.21638   0.45876   0.00000  Uiso   1.00
C659   C     0.50215   0.28366   0.54125   0.00000  Uiso   1.00
C660   C     0.78364   0.00231   0.45875   0.00000  Uiso   1.00
Cl661  Cl    0.99359   0.14039   0.45635   0.00000  Uiso   1.00
Cl662  Cl    0.75080   0.11022   0.04261   0.00000  Uiso   1.00
Cl663  Cl    0.60923   0.23899   0.95623   0.00000  Uiso   1.00
Cl664  Cl    0.89036   0.24768   0.04372   0.00000  Uiso   1.00
Cl665  Cl    0.75099   0.10895   0.95491   0.00000  Uiso   1.00
Cl666  Cl    0.74915   0.38978   0.04261   0.00000  Uiso   1.00
Cl667  Cl    0.89078   0.26103   0.95623   0.00000  Uiso   1.00
Cl668  Cl    0.60964   0.25236   0.04373   0.00000  Uiso   1.00
Cl669  Cl    0.99202   0.35950   0.54365   0.00000  Uiso   1.00
Cl670  Cl    0.85950   0.49256   0.45635   0.00000  Uiso   1.00
Cl671  Cl    0.64046   0.49315   0.54365   0.00000  Uiso   1.00
Cl672  Cl    0.50640   0.35961   0.45636   0.00000  Uiso   1.00
Cl673  Cl    0.50797   0.14050   0.54365   0.00000  Uiso   1.00
Cl674  Cl    0.64051   0.00744   0.45635   0.00000  Uiso   1.00
Cl675  Cl    0.85954   0.00685   0.54366   0.00000  Uiso   1.00
Cl676  Cl    0.74901   0.39105   0.95491   0.00000  Uiso   1.00
H677   H     0.62097   0.42590   0.20263   0.00000  Uiso   1.00
H678   H     0.87896   0.42579   0.20242   0.00000  Uiso   1.00
H679   H     0.69289   0.13748   0.17772   0.00000  Uiso   1.00
H680   H     0.75892   0.12343   0.17567   0.00000  Uiso   1.00
H681   H     0.78220   0.07608   0.13093   0.00000  Uiso   1.00
H682   H     0.57422   0.22180   0.86205   0.00000  Uiso   1.00
H683   H     0.62315   0.24901   0.82206   0.00000  Uiso   1.00
H684   H     0.64142   0.31345   0.83215   0.00000  Uiso   1.00
H685   H     0.61076   0.35072   0.88266   0.00000  Uiso   1.00
H686   H     0.56144   0.32410   0.92269   0.00000  Uiso   1.00
H687   H     0.92342   0.22975   0.13845   0.00000  Uiso   1.00
H688   H     0.87681   0.26229   0.17709   0.00000  Uiso   1.00
H689   H     0.57619   0.37694   0.80001   0.00000  Uiso   1.00
H690   H     0.86472   0.32779   0.16502   0.00000  Uiso   1.00
H691   H     0.89955   0.36092   0.11403   0.00000  Uiso   1.00
H692   H     0.94611   0.32895   0.07530   0.00000  Uiso   1.00
H693   H     0.92586   0.12093   0.20262   0.00000  Uiso   1.00
H694   H     0.87935   0.42622   0.79700   0.00000  Uiso   1.00
H695   H     0.62108   0.07425   0.20238   0.00000  Uiso   1.00
H696   H     0.92381   0.12306   0.80001   0.00000  Uiso   1.00
H697   H     0.57414   0.37907   0.20261   0.00000  Uiso   1.00
H698   H     0.87306   0.17386   0.70003   0.00000  Uiso   1.00
H699   H     0.62853   0.32462   0.29815   0.00000  Uiso   1.00
H700   H     0.82418   0.37101   0.70246   0.00000  Uiso   1.00
H701   H     0.87700   0.07616   0.79995   0.00000  Uiso   1.00
H702   H     0.67573   0.12896   0.29759   0.00000  Uiso   1.00
H703   H     0.62694   0.32614   0.70003   0.00000  Uiso   1.00
H704   H     0.87147   0.17538   0.29815   0.00000  Uiso   1.00
H705   H     0.67582   0.12899   0.70246   0.00000  Uiso   1.00
H706   H     0.82424   0.37100   0.29754   0.00000  Uiso   1.00
H707   H     0.87110   0.32424   0.29759   0.00000  Uiso   1.00
H708   H     0.62904   0.17585   0.70252   0.00000  Uiso   1.00
H709   H     0.82466   0.12849   0.29820   0.00000  Uiso   1.00
H710   H     0.67382   0.37297   0.70003   0.00000  Uiso   1.00
H711   H     0.62886   0.17572   0.29764   0.00000  Uiso   1.00
H712   H     0.57424   0.12104   0.20239   0.00000  Uiso   1.00
H713   H     0.87096   0.32415   0.70252   0.00000  Uiso   1.00
H714   H     0.67534   0.37151   0.29820   0.00000  Uiso   1.00
H715   H     0.82618   0.12702   0.70003   0.00000  Uiso   1.00
H716   H     0.52490   0.32517   0.36192   0.00000  Uiso   1.00
H717   H     0.99582   0.37326   0.32230   0.00000  Uiso   1.00
H718   H     0.93091   0.38926   0.33291   0.00000  Uiso   1.00
H719   H     0.89499   0.35708   0.38348   0.00000  Uiso   1.00
H720   H     0.92348   0.30856   0.42314   0.00000  Uiso   1.00
H721   H     0.52605   0.17519   0.63802   0.00000  Uiso   1.00
H722   H     0.99769   0.12666   0.67767   0.00000  Uiso   1.00
H723   H     0.92610   0.37935   0.79710   0.00000  Uiso   1.00
H724   H     0.93299   0.10970   0.66716   0.00000  Uiso   1.00
H725   H     0.89657   0.14134   0.61664   0.00000  Uiso   1.00
H726   H     0.92434   0.19029   0.57696   0.00000  Uiso   1.00
H727   H     0.67510   0.02564   0.36195   0.00000  Uiso   1.00
H728   H     0.62676   0.49699   0.32229   0.00000  Uiso   1.00
H729   H     0.61015   0.43218   0.33283   0.00000  Uiso   1.00
H730   H     0.64194   0.39594   0.38339   0.00000  Uiso   1.00
H731   H     0.69070   0.42400   0.42309   0.00000  Uiso   1.00
H732   H     0.82505   0.02518   0.63809   0.00000  Uiso   1.00
H733   H     0.87321   0.49625   0.67771   0.00000  Uiso   1.00
H734   H     0.87903   0.07410   0.20263   0.00000  Uiso   1.00
H735   H     0.88942   0.43137   0.66710   0.00000  Uiso   1.00
H736   H     0.85740   0.39533   0.61651   0.00000  Uiso   1.00
H737   H     0.80881   0.42368   0.57685   0.00000  Uiso   1.00
H738   H     0.97510   0.17484   0.36192   0.00000  Uiso   1.00
H739   H     0.50418   0.12674   0.32230   0.00000  Uiso   1.00
H740   H     0.56909   0.11074   0.33292   0.00000  Uiso   1.00
H741   H     0.60501   0.14291   0.38350   0.00000  Uiso   1.00
H742   H     0.57652   0.19143   0.42315   0.00000  Uiso   1.00
H743   H     0.97396   0.32481   0.63803   0.00000  Uiso   1.00
H744   H     0.50233   0.37334   0.67768   0.00000  Uiso   1.00
H745   H     0.62300   0.42384   0.79995   0.00000  Uiso   1.00
H746   H     0.56703   0.39030   0.66714   0.00000  Uiso   1.00
H747   H     0.60344   0.35866   0.61662   0.00000  Uiso   1.00
H748   H     0.57566   0.30971   0.57694   0.00000  Uiso   1.00
H749   H     0.82490   0.47436   0.36195   0.00000  Uiso   1.00
H750   H     0.87324   0.00301   0.32229   0.00000  Uiso   1.00
H751   H     0.88985   0.06782   0.33283   0.00000  Uiso   1.00
H752   H     0.85806   0.10406   0.38339   0.00000  Uiso   1.00
H753   H     0.80930   0.07600   0.42309   0.00000  Uiso   1.00
H754   H     0.67495   0.47482   0.63808   0.00000  Uiso   1.00
H755   H     0.62679   0.00375   0.67771   0.00000  Uiso   1.00
H756   H     0.92579   0.37900   0.20244   0.00000  Uiso   1.00
H757   H     0.61058   0.06863   0.66710   0.00000  Uiso   1.00
H758   H     0.64261   0.10467   0.61651   0.00000  Uiso   1.00
H759   H     0.69119   0.07632   0.57685   0.00000  Uiso   1.00
H760   H     0.76623   0.07575   0.86007   0.00000  Uiso   1.00
H761   H     0.73291   0.12276   0.82290   0.00000  Uiso   1.00
H762   H     0.66806   0.13567   0.83764   0.00000  Uiso   1.00
H763   H     0.63620   0.10101   0.88944   0.00000  Uiso   1.00
H764   H     0.66888   0.05344   0.92660   0.00000  Uiso   1.00
H765   H     0.82709   0.44262   0.08906   0.00000  Uiso   1.00
H766   H     0.84987   0.39568   0.13454   0.00000  Uiso   1.00
H767   H     0.57390   0.12065   0.79709   0.00000  Uiso   1.00
H768   H     0.80706   0.36247   0.17769   0.00000  Uiso   1.00
H769   H     0.74104   0.37657   0.17567   0.00000  Uiso   1.00
H770   H     0.71778   0.42394   0.13094   0.00000  Uiso   1.00
H771   H     0.92578   0.27819   0.86204   0.00000  Uiso   1.00
H772   H     0.87685   0.25097   0.82206   0.00000  Uiso   1.00
H773   H     0.85858   0.18654   0.83216   0.00000  Uiso   1.00
H774   H     0.88924   0.14929   0.88268   0.00000  Uiso   1.00
H775   H     0.93856   0.17591   0.92271   0.00000  Uiso   1.00
H776   H     0.57657   0.27025   0.13847   0.00000  Uiso   1.00
H777   H     0.62318   0.23771   0.17709   0.00000  Uiso   1.00
H778   H     0.62065   0.07378   0.79700   0.00000  Uiso   1.00
H779   H     0.63531   0.17222   0.16498   0.00000  Uiso   1.00
H780   H     0.60051   0.13910   0.11397   0.00000  Uiso   1.00
H781   H     0.55393   0.17107   0.07525   0.00000  Uiso   1.00
H782   H     0.73377   0.42425   0.86007   0.00000  Uiso   1.00
H783   H     0.76709   0.37724   0.82291   0.00000  Uiso   1.00
H784   H     0.83194   0.36433   0.83765   0.00000  Uiso   1.00
H785   H     0.86380   0.39899   0.88945   0.00000  Uiso   1.00
H786   H     0.83112   0.44656   0.92660   0.00000  Uiso   1.00
H787   H     0.67289   0.05733   0.08909   0.00000  Uiso   1.00
H788   H     0.65009   0.10425   0.13458   0.00000  Uiso   1.00
O789   O     0.75000   0.00000   0.25000   0.00000  Uiso   1.00
O790   O     0.75000   0.46964   0.66245   0.00000  Uiso   1.00
O791   O     0.96964   0.25000   0.33755   0.00000  Uiso   1.00
O792   O     0.53037   0.25000   0.66245   0.00000  Uiso   1.00
O793   O     0.50000   0.21964   0.83755   0.00000  Uiso   1.00
O794   O     0.50000   0.28037   0.16245   0.00000  Uiso   1.00
O795   O     0.78037  -0.00000   0.83755   0.00000  Uiso   1.00
O796   O     0.71964   0.00000   0.16245   0.00000  Uiso   1.00
O797   O     0.50000   0.28037   0.83755   0.00000  Uiso   1.00
O798   O     0.50000   0.21963   0.16245   0.00000  Uiso   1.00
O799   O     0.71964  -0.00000   0.83755   0.00000  Uiso   1.00
O800   O     0.75000   0.00000   0.75000   0.00000  Uiso   1.00
O801   O     0.78037   0.00000   0.16245   0.00000  Uiso   1.00
O802   O     0.70725   0.07307   0.27302   0.00000  Uiso   1.00
O803   O     0.79276   0.42693   0.72698   0.00000  Uiso   1.00
O804   O     0.92693   0.20724   0.27302   0.00000  Uiso   1.00
O805   O     0.57308   0.29276   0.72698   0.00000  Uiso   1.00
O806   O     0.79276   0.42693   0.27302   0.00000  Uiso   1.00
O807   O     0.70725   0.07307   0.72698   0.00000  Uiso   1.00
O808   O     0.57308   0.29276   0.27302   0.00000  Uiso   1.00
O809   O     0.92693   0.20724   0.72698   0.00000  Uiso   1.00
O810   O     0.70725   0.42693   0.72698   0.00000  Uiso   1.00
O811   O     0.50000   0.25000   0.25000   0.00000  Uiso   1.00
O812   O     0.79276   0.07307   0.27302   0.00000  Uiso   1.00
O813   O     0.92693   0.29276   0.72698   0.00000  Uiso   1.00
O814   O     0.57308   0.20725   0.27302   0.00000  Uiso   1.00
O815   O     0.79276   0.07307   0.72698   0.00000  Uiso   1.00
O816   O     0.70725   0.42693   0.27302   0.00000  Uiso   1.00
O817   O     0.57308   0.20725   0.72698   0.00000  Uiso   1.00
O818   O     0.92693   0.29276   0.27302   0.00000  Uiso   1.00
O819   O     0.95725   0.32308   0.77302   0.00000  Uiso   1.00
O820   O     0.54276   0.17693   0.22698   0.00000  Uiso   1.00
O821   O     0.67693   0.45725   0.77302   0.00000  Uiso   1.00
O822   O     0.50000   0.25000   0.75000   0.00000  Uiso   1.00
O823   O     0.82308   0.04275   0.22698   0.00000  Uiso   1.00
O824   O     0.54276   0.17693   0.77302   0.00000  Uiso   1.00
O825   O     0.95725   0.32308   0.22698   0.00000  Uiso   1.00
O826   O     0.82308   0.04275   0.77302   0.00000  Uiso   1.00
O827   O     0.67693   0.45725   0.22698   0.00000  Uiso   1.00
O828   O     0.95725   0.17692   0.22698   0.00000  Uiso   1.00
O829   O     0.54276   0.32308   0.77302   0.00000  Uiso   1.00
O830   O     0.67693   0.04275   0.22698   0.00000  Uiso   1.00
O831   O     0.82308   0.45725   0.77302   0.00000  Uiso   1.00
O832   O     0.54276   0.32308   0.22698   0.00000  Uiso   1.00
O833   O     0.75000   0.46964   0.33755   0.00000  Uiso   1.00
O834   O     0.95725   0.17692   0.77302   0.00000  Uiso   1.00
O835   O     0.82308   0.45725   0.22698   0.00000  Uiso   1.00
O836   O     0.67693   0.04275   0.77302   0.00000  Uiso   1.00
O837   O     0.75000   0.03036   0.66245   0.00000  Uiso   1.00
O838   O     0.53037   0.25000   0.33755   0.00000  Uiso   1.00
O839   O     0.96964   0.25000   0.66245   0.00000  Uiso   1.00
O840   O     0.75000   0.03036   0.33755   0.00000  Uiso   1.00
Zn841  Zn    0.70660   0.00000   0.21735   0.00000  Uiso   1.00
Zn842  Zn    0.54341   0.25000   0.28265   0.00000  Uiso   1.00
Zn843  Zn    0.75000   0.45660   0.71735   0.00000  Uiso   1.00
Zn844  Zn    0.75000   0.04340   0.28265   0.00000  Uiso   1.00
Zn845  Zn    0.54341   0.25000   0.71735   0.00000  Uiso   1.00
Zn846  Zn    0.95660   0.25000   0.28265   0.00000  Uiso   1.00
Zn847  Zn    0.75000   0.04340   0.71735   0.00000  Uiso   1.00
Zn848  Zn    0.75000   0.45660   0.28265   0.00000  Uiso   1.00
Zn849  Zn    0.79341   0.00000   0.78265   0.00000  Uiso   1.00
Zn850  Zn    0.50000   0.20659   0.21735   0.00000  Uiso   1.00
Zn851  Zn    0.50000   0.29341   0.78265   0.00000  Uiso   1.00
Zn852  Zn    0.79341   0.00000   0.21735   0.00000  Uiso   1.00
Zn853  Zn    0.70660   0.00000   0.78265   0.00000  Uiso   1.00
Zn854  Zn    0.50000   0.29341   0.21735   0.00000  Uiso   1.00
Zn855  Zn    0.50000   0.20659   0.78265   0.00000  Uiso   1.00
Zn856  Zn    0.95660   0.25000   0.71735   0.00000  Uiso   1.00
C857   C     0.49256   0.78255   0.41785   0.00000  Uiso   1.00
C858   C     0.25761   0.96745   0.08237   0.00000  Uiso   1.00
C859   C     0.21638   0.50250   0.54124   0.00000  Uiso   1.00
C860   C     0.49735   0.78362   0.45876   0.00000  Uiso   1.00
C861   C     0.49785   0.71634   0.54125   0.00000  Uiso   1.00
C862   C     0.21636   0.99769   0.45875   0.00000  Uiso   1.00
C863   C     0.28362   0.99750   0.54124   0.00000  Uiso   1.00
C864   C     0.25592   0.96691   0.95876   0.00000  Uiso   1.00
C865   C     0.24541   0.53360   0.04125   0.00000  Uiso   1.00
C866   C     0.03371   0.75114   0.95864   0.00000  Uiso   1.00
C867   C     0.46655   0.75385   0.04108   0.00000  Uiso   1.00
C868   C     0.24408   0.53309   0.95876   0.00000  Uiso   1.00
C869   C     0.46715   0.74403   0.91775   0.00000  Uiso   1.00
C870   C     0.25458   0.96640   0.04125   0.00000  Uiso   1.00
C871   C     0.46629   0.74887   0.95864   0.00000  Uiso   1.00
C872   C     0.03345   0.74617   0.04108   0.00000  Uiso   1.00
C873   C     0.09796   0.84832   0.25027   0.00000  Uiso   1.00
C874   C     0.40187   0.65189   0.75002   0.00000  Uiso   1.00
C875   C     0.15185   0.59814   0.25000   0.00000  Uiso   1.00
C876   C     0.34827   0.90201   0.74980   0.00000  Uiso   1.00
C877   C     0.40204   0.65168   0.25027   0.00000  Uiso   1.00
C878   C     0.09813   0.84811   0.75002   0.00000  Uiso   1.00
C879   C     0.34815   0.90186   0.24999   0.00000  Uiso   1.00
C880   C     0.03216   0.74126   0.08196   0.00000  Uiso   1.00
C881   C     0.15174   0.59799   0.74980   0.00000  Uiso   1.00
C882   C     0.09805   0.65175   0.74986   0.00000  Uiso   1.00
C883   C     0.40190   0.84816   0.25002   0.00000  Uiso   1.00
C884   C     0.15185   0.90185   0.74999   0.00000  Uiso   1.00
C885   C     0.34831   0.59794   0.25029   0.00000  Uiso   1.00
C886   C     0.40195   0.84825   0.74986   0.00000  Uiso   1.00
C887   C     0.09810   0.65184   0.25002   0.00000  Uiso   1.00
C888   C     0.34815   0.59815   0.74999   0.00000  Uiso   1.00
C889   C     0.15169   0.90206   0.25029   0.00000  Uiso   1.00
C890   C    -0.00000   0.75000   0.47939   0.00000  Uiso   1.00
C891   C     0.26087   0.96844   0.91792   0.00000  Uiso   1.00
C892   C    -0.00000   0.75000   0.52062   0.00000  Uiso   1.00
C893   C     0.25000   0.50000   0.47938   0.00000  Uiso   1.00
C894   C     0.25000   0.50000   0.52061   0.00000  Uiso   1.00
C895   C     0.25000   0.50000   0.97945   0.00000  Uiso   1.00
C896   C     0.25000   0.50000   0.02069   0.00000  Uiso   1.00
C897   C     0.00000   0.75001   0.97925   0.00000  Uiso   1.00
C898   C     0.00000   0.75001   0.02046   0.00000  Uiso   1.00
C899   C     0.47629   0.81342   0.39556   0.00000  Uiso   1.00
C900   C     0.49655   0.83198   0.36691   0.00000  Uiso   1.00
C901   C     0.48018   0.85924   0.34446   0.00000  Uiso   1.00
C902   C     0.24238   0.53255   0.08237   0.00000  Uiso   1.00
C903   C     0.44360   0.86826   0.35045   0.00000  Uiso   1.00
C904   C     0.42335   0.85012   0.37898   0.00000  Uiso   1.00
C905   C     0.43958   0.82278   0.40148   0.00000  Uiso   1.00
C906   C     0.47724   0.68622   0.60447   0.00000  Uiso   1.00
C907   C     0.49780   0.66796   0.63307   0.00000  Uiso   1.00
C908   C     0.48183   0.64045   0.65555   0.00000  Uiso   1.00
C909   C     0.44537   0.63088   0.64961   0.00000  Uiso   1.00
C910   C     0.42483   0.64872   0.62110   0.00000  Uiso   1.00
C911   C     0.44066   0.67631   0.59859   0.00000  Uiso   1.00
C912   C     0.18636   0.97689   0.39554   0.00000  Uiso   1.00
C913   C     0.03285   0.75598   0.91775   0.00000  Uiso   1.00
C914   C     0.16801   0.99734   0.36691   0.00000  Uiso   1.00
C915   C     0.14062   0.98121   0.34443   0.00000  Uiso   1.00
C916   C     0.13124   0.94468   0.35039   0.00000  Uiso   1.00
C917   C     0.14917   0.92425   0.37892   0.00000  Uiso   1.00
C918   C     0.17665   0.94024   0.40144   0.00000  Uiso   1.00
C919   C     0.31348   0.97652   0.60444   0.00000  Uiso   1.00
C920   C     0.33196   0.99685   0.63309   0.00000  Uiso   1.00
C921   C     0.35926   0.98056   0.65555   0.00000  Uiso   1.00
C922   C     0.36840   0.94399   0.64956   0.00000  Uiso   1.00
C923   C     0.35035   0.92368   0.62101   0.00000  Uiso   1.00
C924   C     0.46784   0.75874   0.08196   0.00000  Uiso   1.00
C925   C     0.32296   0.93983   0.59851   0.00000  Uiso   1.00
C926   C     0.02371   0.68658   0.39556   0.00000  Uiso   1.00
C927   C     0.00344   0.66802   0.36691   0.00000  Uiso   1.00
C928   C     0.01982   0.64076   0.34446   0.00000  Uiso   1.00
C929   C     0.05640   0.63173   0.35045   0.00000  Uiso   1.00
C930   C     0.07665   0.64987   0.37899   0.00000  Uiso   1.00
C931   C     0.06042   0.67722   0.40148   0.00000  Uiso   1.00
C932   C     0.02276   0.81378   0.60446   0.00000  Uiso   1.00
C933   C     0.00221   0.83204   0.63308   0.00000  Uiso   1.00
C934   C     0.01818   0.85955   0.65554   0.00000  Uiso   1.00
C935   C     0.00000   0.75000   0.39792   0.00000  Uiso   1.00
C936   C     0.05465   0.86912   0.64960   0.00000  Uiso   1.00
C937   C     0.07517   0.85128   0.62109   0.00000  Uiso   1.00
C938   C     0.05935   0.82369   0.59858   0.00000  Uiso   1.00
C939   C     0.31364   0.52311   0.39555   0.00000  Uiso   1.00
C940   C     0.33199   0.50266   0.36692   0.00000  Uiso   1.00
C941   C     0.35939   0.51879   0.34444   0.00000  Uiso   1.00
C942   C     0.36876   0.55532   0.35039   0.00000  Uiso   1.00
C943   C     0.35083   0.57575   0.37892   0.00000  Uiso   1.00
C944   C     0.32335   0.55976   0.40144   0.00000  Uiso   1.00
C945   C     0.18652   0.52348   0.60444   0.00000  Uiso   1.00
C946   C    -0.00000   0.75000   0.60208   0.00000  Uiso   1.00
C947   C     0.16804   0.50315   0.63309   0.00000  Uiso   1.00
C948   C     0.14074   0.51944   0.65555   0.00000  Uiso   1.00
C949   C     0.13160   0.55601   0.64956   0.00000  Uiso   1.00
C950   C     0.14966   0.57632   0.62101   0.00000  Uiso   1.00
C951   C     0.17704   0.56017   0.59851   0.00000  Uiso   1.00
C952   C     0.21992   0.56102   0.89604   0.00000  Uiso   1.00
C953   C     0.23781   0.58090   0.86659   0.00000  Uiso   1.00
C954   C     0.21907   0.60765   0.84560   0.00000  Uiso   1.00
C955   C     0.18250   0.61492   0.85390   0.00000  Uiso   1.00
C956   C     0.16456   0.59540   0.88314   0.00000  Uiso   1.00
C957   C     0.25000   0.50000   0.39792   0.00000  Uiso   1.00
C958   C     0.18314   0.56854   0.90417   0.00000  Uiso   1.00
C959   C     0.27071   0.93613   0.10614   0.00000  Uiso   1.00
C960   C     0.30804   0.92786   0.10731   0.00000  Uiso   1.00
C961   C     0.32102   0.90134   0.13306   0.00000  Uiso   1.00
C962   C     0.29690   0.88276   0.15755   0.00000  Uiso   1.00
C963   C     0.25968   0.89073   0.15645   0.00000  Uiso   1.00
C964   C     0.24657   0.91742   0.13100   0.00000  Uiso   1.00
C965   C     0.43566   0.72902   0.89543   0.00000  Uiso   1.00
C966   C     0.41794   0.75007   0.86685   0.00000  Uiso   1.00
C967   C     0.39021   0.73474   0.84418   0.00000  Uiso   1.00
C968   C     0.49306   0.71733   0.58216   0.00000  Uiso   1.00
C969   C     0.25000   0.50000   0.60207   0.00000  Uiso   1.00
C970   C     0.37990   0.69844   0.84989   0.00000  Uiso   1.00
C971   C     0.39719   0.67743   0.87840   0.00000  Uiso   1.00
C972   C     0.42498   0.69261   0.90111   0.00000  Uiso   1.00
C973   C     0.06202   0.72300   0.10387   0.00000  Uiso   1.00
C974   C     0.08177   0.74166   0.13283   0.00000  Uiso   1.00
C975   C     0.10818   0.72334   0.15470   0.00000  Uiso   1.00
C976   C     0.11504   0.68640   0.14786   0.00000  Uiso   1.00
C977   C     0.09553   0.66775   0.11911   0.00000  Uiso   1.00
C978   C     0.06916   0.68594   0.09713   0.00000  Uiso   1.00
C979   C     0.28008   0.93898   0.89604   0.00000  Uiso   1.00
C980   C     0.25000   0.50000   0.89791   0.00000  Uiso   1.00
C981   C     0.26219   0.91910   0.86660   0.00000  Uiso   1.00
C982   C     0.28093   0.89235   0.84560   0.00000  Uiso   1.00
C983   C     0.31750   0.88508   0.85390   0.00000  Uiso   1.00
C984   C     0.33544   0.90460   0.88314   0.00000  Uiso   1.00
C985   C     0.31686   0.93146   0.90417   0.00000  Uiso   1.00
C986   C     0.22927   0.56386   0.10614   0.00000  Uiso   1.00
C987   C     0.19194   0.57211   0.10732   0.00000  Uiso   1.00
C988   C     0.17894   0.59861   0.13309   0.00000  Uiso   1.00
C989   C     0.20306   0.61721   0.15758   0.00000  Uiso   1.00
C990   C     0.24029   0.60927   0.15646   0.00000  Uiso   1.00
C991   C     0.25000   0.50000   0.10209   0.00000  Uiso   1.00
C992   C     0.25340   0.58258   0.13100   0.00000  Uiso   1.00
C993   C     0.06434   0.77098   0.89543   0.00000  Uiso   1.00
C994   C     0.08206   0.74993   0.86685   0.00000  Uiso   1.00
C995   C     0.10979   0.76525   0.84418   0.00000  Uiso   1.00
C996   C     0.12009   0.80156   0.84988   0.00000  Uiso   1.00
C997   C     0.10281   0.82257   0.87838   0.00000  Uiso   1.00
C998   C     0.07502   0.80739   0.90110   0.00000  Uiso   1.00
C999   C     0.43798   0.77701   0.10387   0.00000  Uiso   1.00
C1000  C     0.41823   0.75834   0.13282   0.00000  Uiso   1.00
C1001  C     0.39183   0.77667   0.15471   0.00000  Uiso   1.00
C1002  C     0.00000   0.75000   0.89786   0.00000  Uiso   1.00
C1003  C     0.38499   0.81361   0.14789   0.00000  Uiso   1.00
C1004  C     0.40451   0.83227   0.11915   0.00000  Uiso   1.00
C1005  C     0.43086   0.81408   0.09716   0.00000  Uiso   1.00
C1006  C     0.00000   0.75000   0.10197   0.00000  Uiso   1.00
C1007  C     0.00078   0.68307   0.47965   0.00000  Uiso   1.00
C1008  C     0.49981   0.81694   0.52035   0.00000  Uiso   1.00
C1009  C     0.31691   0.50013   0.47965   0.00000  Uiso   1.00
C1010  C     0.18309   0.50049   0.52035   0.00000  Uiso   1.00
C1011  C     0.49921   0.81693   0.47965   0.00000  Uiso   1.00
C1012  C     0.21738   0.99289   0.41784   0.00000  Uiso   1.00
C1013  C     0.00019   0.68306   0.52035   0.00000  Uiso   1.00
C1014  C     0.18309   0.99987   0.47965   0.00000  Uiso   1.00
C1015  C     0.31691   0.99951   0.52035   0.00000  Uiso   1.00
C1016  C     0.25531   0.93342   0.97927   0.00000  Uiso   1.00
C1017  C     0.24533   0.56692   0.02002   0.00000  Uiso   1.00
C1018  C     0.06688   0.74777   0.97955   0.00000  Uiso   1.00
C1019  C     0.43319   0.75310   0.02025   0.00000  Uiso   1.00
C1020  C     0.24469   0.56658   0.97926   0.00000  Uiso   1.00
C1021  C     0.25465   0.93308   0.02002   0.00000  Uiso   1.00
C1022  C     0.43312   0.75225   0.97955   0.00000  Uiso   1.00
C1023  C     0.28257   0.99269   0.58215   0.00000  Uiso   1.00
C1024  C     0.06681   0.74693   0.02025   0.00000  Uiso   1.00
C1025  C     0.25000   0.50000   0.35564   0.00000  Uiso   1.00
C1026  C     0.25000   0.50000   0.64436   0.00000  Uiso   1.00
C1027  C     0.00000   0.75000   0.35563   0.00000  Uiso   1.00
C1028  C     0.00000   0.75000   0.64437   0.00000  Uiso   1.00
C1029  C     0.00000   0.75000   0.85561   0.00000  Uiso   1.00
C1030  C     0.00000   0.75000   0.14432   0.00000  Uiso   1.00
C1031  C     0.25000   0.50000   0.85564   0.00000  Uiso   1.00
C1032  C     0.25000   0.50000   0.14441   0.00000  Uiso   1.00
C1033  C     0.17993   0.57008   0.24999   0.00000  Uiso   1.00
C1034  C     0.00744   0.71745   0.41785   0.00000  Uiso   1.00
C1035  C     0.32011   0.92997   0.74994   0.00000  Uiso   1.00
C1036  C     0.42997   0.67988   0.25007   0.00000  Uiso   1.00
C1037  C     0.07007   0.82006   0.75001   0.00000  Uiso   1.00
C1038  C     0.32007   0.92992   0.24999   0.00000  Uiso   1.00
C1039  C     0.17989   0.57003   0.74994   0.00000  Uiso   1.00
C1040  C     0.07003   0.82012   0.25007   0.00000  Uiso   1.00
C1041  C     0.42993   0.67994   0.75001   0.00000  Uiso   1.00
C1042  C     0.17992   0.92993   0.74999   0.00000  Uiso   1.00
C1043  C     0.32012   0.57002   0.25008   0.00000  Uiso   1.00
C1044  C     0.42994   0.82010   0.74998   0.00000  Uiso   1.00
C1045  C     0.00694   0.78267   0.58216   0.00000  Uiso   1.00
C1046  C     0.07006   0.67992   0.25001   0.00000  Uiso   1.00
C1047  C     0.32008   0.57007   0.74999   0.00000  Uiso   1.00
C1048  C     0.17988   0.92998   0.25008   0.00000  Uiso   1.00
C1049  C     0.07006   0.67990   0.74998   0.00000  Uiso   1.00
C1050  C     0.42994   0.82008   0.25001   0.00000  Uiso   1.00
C1051  C     0.12284   0.90392   0.22361   0.00000  Uiso   1.00
C1052  C     0.37595   0.59733   0.77798   0.00000  Uiso   1.00
C1053  C     0.09622   0.62294   0.22336   0.00000  Uiso   1.00
C1054  C     0.40400   0.87732   0.77629   0.00000  Uiso   1.00
C1055  C     0.37716   0.59608   0.22361   0.00000  Uiso   1.00
C1056  C     0.28262   0.50711   0.41784   0.00000  Uiso   1.00
C1057  C     0.12405   0.90267   0.77798   0.00000  Uiso   1.00
C1058  C     0.40380   0.87708   0.22339   0.00000  Uiso   1.00
C1059  C     0.09600   0.62268   0.77629   0.00000  Uiso   1.00
C1060  C     0.12267   0.59591   0.77621   0.00000  Uiso   1.00
C1061  C     0.37705   0.90377   0.22336   0.00000  Uiso   1.00
C1062  C     0.09732   0.87592   0.77800   0.00000  Uiso   1.00
C1063  C     0.40389   0.62281   0.22360   0.00000  Uiso   1.00
C1064  C     0.37733   0.90409   0.77621   0.00000  Uiso   1.00
C1065  C     0.12297   0.59624   0.22333   0.00000  Uiso   1.00
C1066  C     0.40268   0.62408   0.77800   0.00000  Uiso   1.00
C1067  C     0.21743   0.50731   0.58215   0.00000  Uiso   1.00
C1068  C     0.09611   0.87719   0.22360   0.00000  Uiso   1.00
C1069  C     0.37407   0.65271   0.72203   0.00000  Uiso   1.00
C1070  C     0.12669   0.84658   0.27714   0.00000  Uiso   1.00
C1071  C     0.34628   0.87302   0.72327   0.00000  Uiso   1.00
C1072  C     0.15371   0.62702   0.27667   0.00000  Uiso   1.00
C1073  C     0.12593   0.84728   0.72203   0.00000  Uiso   1.00
C1074  C     0.37331   0.65342   0.27714   0.00000  Uiso   1.00
C1075  C     0.15372   0.62698   0.72327   0.00000  Uiso   1.00
C1076  C     0.34627   0.87296   0.27664   0.00000  Uiso   1.00
C1077  C     0.37301   0.84625   0.27665   0.00000  Uiso   1.00
C1078  C     0.23913   0.53156   0.91792   0.00000  Uiso   1.00
C1079  C     0.12701   0.65372   0.72330   0.00000  Uiso   1.00
C1080  C     0.34658   0.62668   0.27715   0.00000  Uiso   1.00
C1081  C     0.15266   0.87403   0.72202   0.00000  Uiso   1.00
C1082  C     0.12697   0.65372   0.27668   0.00000  Uiso   1.00
C1083  C     0.37300   0.84629   0.72330   0.00000  Uiso   1.00
C1084  C     0.15342   0.87332   0.27715   0.00000  Uiso   1.00
C1085  C     0.34734   0.62597   0.72201   0.00000  Uiso   1.00
C1086  C     0.00264   0.71638   0.45876   0.00000  Uiso   1.00
C1087  C     0.00215   0.78366   0.54125   0.00000  Uiso   1.00
C1088  C     0.28364   0.50231   0.45875   0.00000  Uiso   1.00
Cl1089 Cl    0.49359   0.64039   0.45635   0.00000  Uiso   1.00
Cl1090 Cl    0.25080   0.61022   0.04261   0.00000  Uiso   1.00
Cl1091 Cl    0.10923   0.73899   0.95623   0.00000  Uiso   1.00
Cl1092 Cl    0.39036   0.74768   0.04372   0.00000  Uiso   1.00
Cl1093 Cl    0.25099   0.60895   0.95491   0.00000  Uiso   1.00
Cl1094 Cl    0.24915   0.88978   0.04261   0.00000  Uiso   1.00
Cl1095 Cl    0.39078   0.76103   0.95623   0.00000  Uiso   1.00
Cl1096 Cl    0.10964   0.75236   0.04373   0.00000  Uiso   1.00
Cl1097 Cl    0.49202   0.85950   0.54365   0.00000  Uiso   1.00
Cl1098 Cl    0.35950   0.99256   0.45635   0.00000  Uiso   1.00
Cl1099 Cl    0.14046   0.99315   0.54365   0.00000  Uiso   1.00
Cl1100 Cl    0.00640   0.85961   0.45636   0.00000  Uiso   1.00
Cl1101 Cl    0.00797   0.64050   0.54365   0.00000  Uiso   1.00
Cl1102 Cl    0.14051   0.50744   0.45635   0.00000  Uiso   1.00
Cl1103 Cl    0.35954   0.50685   0.54366   0.00000  Uiso   1.00
Cl1104 Cl    0.24901   0.89105   0.95491   0.00000  Uiso   1.00
H1105  H     0.12097   0.92590   0.20263   0.00000  Uiso   1.00
H1106  H     0.37896   0.92579   0.20242   0.00000  Uiso   1.00
H1107  H     0.19289   0.63748   0.17772   0.00000  Uiso   1.00
H1108  H     0.25892   0.62343   0.17567   0.00000  Uiso   1.00
H1109  H     0.28220   0.57608   0.13093   0.00000  Uiso   1.00
H1110  H     0.07422   0.72180   0.86205   0.00000  Uiso   1.00
H1111  H     0.12315   0.74901   0.82206   0.00000  Uiso   1.00
H1112  H     0.14142   0.81345   0.83215   0.00000  Uiso   1.00
H1113  H     0.11076   0.85072   0.88266   0.00000  Uiso   1.00
H1114  H     0.06144   0.82410   0.92269   0.00000  Uiso   1.00
H1115  H     0.42342   0.72975   0.13845   0.00000  Uiso   1.00
H1116  H     0.37681   0.76229   0.17709   0.00000  Uiso   1.00
H1117  H     0.07619   0.87694   0.80001   0.00000  Uiso   1.00
H1118  H     0.36472   0.82779   0.16502   0.00000  Uiso   1.00
H1119  H     0.39955   0.86092   0.11403   0.00000  Uiso   1.00
H1120  H     0.44611   0.82895   0.07530   0.00000  Uiso   1.00
H1121  H     0.42586   0.62093   0.20262   0.00000  Uiso   1.00
H1122  H     0.37935   0.92622   0.79700   0.00000  Uiso   1.00
H1123  H     0.12108   0.57425   0.20238   0.00000  Uiso   1.00
H1124  H     0.42381   0.62306   0.80001   0.00000  Uiso   1.00
H1125  H     0.07414   0.87907   0.20261   0.00000  Uiso   1.00
H1126  H     0.37306   0.67386   0.70003   0.00000  Uiso   1.00
H1127  H     0.12853   0.82462   0.29815   0.00000  Uiso   1.00
H1128  H     0.32418   0.87101   0.70246   0.00000  Uiso   1.00
H1129  H     0.37700   0.57616   0.79995   0.00000  Uiso   1.00
H1130  H     0.17573   0.62896   0.29759   0.00000  Uiso   1.00
H1131  H     0.12694   0.82614   0.70003   0.00000  Uiso   1.00
H1132  H     0.37147   0.67538   0.29815   0.00000  Uiso   1.00
H1133  H     0.17582   0.62899   0.70246   0.00000  Uiso   1.00
H1134  H     0.32424   0.87100   0.29754   0.00000  Uiso   1.00
H1135  H     0.37110   0.82424   0.29759   0.00000  Uiso   1.00
H1136  H     0.12904   0.67585   0.70252   0.00000  Uiso   1.00
H1137  H     0.32466   0.62849   0.29820   0.00000  Uiso   1.00
H1138  H     0.17382   0.87297   0.70003   0.00000  Uiso   1.00
H1139  H     0.12886   0.67572   0.29764   0.00000  Uiso   1.00
H1140  H     0.07424   0.62104   0.20239   0.00000  Uiso   1.00
H1141  H     0.37096   0.82415   0.70252   0.00000  Uiso   1.00
H1142  H     0.17534   0.87151   0.29820   0.00000  Uiso   1.00
H1143  H     0.32618   0.62702   0.70003   0.00000  Uiso   1.00
H1144  H     0.02490   0.82517   0.36192   0.00000  Uiso   1.00
H1145  H     0.49582   0.87326   0.32230   0.00000  Uiso   1.00
H1146  H     0.43091   0.88926   0.33291   0.00000  Uiso   1.00
H1147  H     0.39499   0.85708   0.38348   0.00000  Uiso   1.00
H1148  H     0.42348   0.80856   0.42314   0.00000  Uiso   1.00
H1149  H     0.02605   0.67519   0.63802   0.00000  Uiso   1.00
H1150  H     0.49769   0.62666   0.67767   0.00000  Uiso   1.00
H1151  H     0.42610   0.87935   0.79710   0.00000  Uiso   1.00
H1152  H     0.43299   0.60970   0.66716   0.00000  Uiso   1.00
H1153  H     0.39657   0.64134   0.61664   0.00000  Uiso   1.00
H1154  H     0.42434   0.69029   0.57696   0.00000  Uiso   1.00
H1155  H     0.17510   0.52564   0.36195   0.00000  Uiso   1.00
H1156  H     0.12676   0.99699   0.32229   0.00000  Uiso   1.00
H1157  H     0.11015   0.93218   0.33283   0.00000  Uiso   1.00
H1158  H     0.14194   0.89594   0.38339   0.00000  Uiso   1.00
H1159  H     0.19070   0.92400   0.42309   0.00000  Uiso   1.00
H1160  H     0.32505   0.52518   0.63809   0.00000  Uiso   1.00
H1161  H     0.37321   0.99625   0.67771   0.00000  Uiso   1.00
H1162  H     0.37903   0.57410   0.20263   0.00000  Uiso   1.00
H1163  H     0.38942   0.93137   0.66710   0.00000  Uiso   1.00
H1164  H     0.35740   0.89533   0.61651   0.00000  Uiso   1.00
H1165  H     0.30881   0.92368   0.57685   0.00000  Uiso   1.00
H1166  H     0.47510   0.67484   0.36192   0.00000  Uiso   1.00
H1167  H     0.00418   0.62674   0.32230   0.00000  Uiso   1.00
H1168  H     0.06909   0.61074   0.33292   0.00000  Uiso   1.00
H1169  H     0.10501   0.64291   0.38350   0.00000  Uiso   1.00
H1170  H     0.07652   0.69143   0.42315   0.00000  Uiso   1.00
H1171  H     0.47396   0.82481   0.63803   0.00000  Uiso   1.00
H1172  H     0.00233   0.87334   0.67768   0.00000  Uiso   1.00
H1173  H     0.12300   0.92384   0.79995   0.00000  Uiso   1.00
H1174  H     0.06703   0.89030   0.66714   0.00000  Uiso   1.00
H1175  H     0.10344   0.85866   0.61662   0.00000  Uiso   1.00
H1176  H     0.07566   0.80971   0.57694   0.00000  Uiso   1.00
H1177  H     0.32490   0.97436   0.36195   0.00000  Uiso   1.00
H1178  H     0.37324   0.50301   0.32229   0.00000  Uiso   1.00
H1179  H     0.38985   0.56782   0.33283   0.00000  Uiso   1.00
H1180  H     0.35806   0.60406   0.38339   0.00000  Uiso   1.00
H1181  H     0.30930   0.57600   0.42309   0.00000  Uiso   1.00
H1182  H     0.17495   0.97482   0.63808   0.00000  Uiso   1.00
H1183  H     0.12679   0.50375   0.67771   0.00000  Uiso   1.00
H1184  H     0.42579   0.87900   0.20244   0.00000  Uiso   1.00
H1185  H     0.11058   0.56863   0.66710   0.00000  Uiso   1.00
H1186  H     0.14261   0.60467   0.61651   0.00000  Uiso   1.00
H1187  H     0.19119   0.57632   0.57685   0.00000  Uiso   1.00
H1188  H     0.26623   0.57575   0.86007   0.00000  Uiso   1.00
H1189  H     0.23291   0.62276   0.82290   0.00000  Uiso   1.00
H1190  H     0.16806   0.63567   0.83764   0.00000  Uiso   1.00
H1191  H     0.13620   0.60101   0.88944   0.00000  Uiso   1.00
H1192  H     0.16888   0.55344   0.92660   0.00000  Uiso   1.00
H1193  H     0.32709   0.94262   0.08906   0.00000  Uiso   1.00
H1194  H     0.34987   0.89568   0.13454   0.00000  Uiso   1.00
H1195  H     0.07390   0.62065   0.79709   0.00000  Uiso   1.00
H1196  H     0.30706   0.86247   0.17769   0.00000  Uiso   1.00
H1197  H     0.24104   0.87657   0.17567   0.00000  Uiso   1.00
H1198  H     0.21778   0.92394   0.13094   0.00000  Uiso   1.00
H1199  H     0.42578   0.77819   0.86204   0.00000  Uiso   1.00
H1200  H     0.37685   0.75097   0.82206   0.00000  Uiso   1.00
H1201  H     0.35858   0.68654   0.83216   0.00000  Uiso   1.00
H1202  H     0.38924   0.64929   0.88268   0.00000  Uiso   1.00
H1203  H     0.43856   0.67591   0.92271   0.00000  Uiso   1.00
H1204  H     0.07657   0.77025   0.13847   0.00000  Uiso   1.00
H1205  H     0.12318   0.73771   0.17709   0.00000  Uiso   1.00
H1206  H     0.12065   0.57378   0.79700   0.00000  Uiso   1.00
H1207  H     0.13531   0.67222   0.16498   0.00000  Uiso   1.00
H1208  H     0.10051   0.63910   0.11397   0.00000  Uiso   1.00
H1209  H     0.05393   0.67107   0.07525   0.00000  Uiso   1.00
H1210  H     0.23377   0.92425   0.86007   0.00000  Uiso   1.00
H1211  H     0.26709   0.87724   0.82291   0.00000  Uiso   1.00
H1212  H     0.33194   0.86433   0.83765   0.00000  Uiso   1.00
H1213  H     0.36380   0.89899   0.88945   0.00000  Uiso   1.00
H1214  H     0.33112   0.94656   0.92660   0.00000  Uiso   1.00
H1215  H     0.17289   0.55733   0.08909   0.00000  Uiso   1.00
H1216  H     0.15009   0.60425   0.13458   0.00000  Uiso   1.00
O1217  O     0.25000   0.50000   0.25000   0.00000  Uiso   1.00
O1218  O     0.25000   0.96964   0.66245   0.00000  Uiso   1.00
O1219  O     0.46964   0.75000   0.33755   0.00000  Uiso   1.00
O1220  O     0.03037   0.75000   0.66245   0.00000  Uiso   1.00
O1221  O     0.00000   0.71964   0.83755   0.00000  Uiso   1.00
O1222  O     0.00000   0.78037   0.16245   0.00000  Uiso   1.00
O1223  O     0.28037   0.50000   0.83755   0.00000  Uiso   1.00
O1224  O     0.21964   0.50000   0.16245   0.00000  Uiso   1.00
O1225  O     0.00000   0.78037   0.83755   0.00000  Uiso   1.00
O1226  O     0.00000   0.71963   0.16245   0.00000  Uiso   1.00
O1227  O     0.21964   0.50000   0.83755   0.00000  Uiso   1.00
O1228  O     0.25000   0.50000   0.75000   0.00000  Uiso   1.00
O1229  O     0.28037   0.50000   0.16245   0.00000  Uiso   1.00
O1230  O     0.20725   0.57307   0.27302   0.00000  Uiso   1.00
O1231  O     0.29276   0.92693   0.72698   0.00000  Uiso   1.00
O1232  O     0.42693   0.70724   0.27302   0.00000  Uiso   1.00
O1233  O     0.07308   0.79276   0.72698   0.00000  Uiso   1.00
O1234  O     0.29276   0.92693   0.27302   0.00000  Uiso   1.00
O1235  O     0.20725   0.57307   0.72698   0.00000  Uiso   1.00
O1236  O     0.07308   0.79276   0.27302   0.00000  Uiso   1.00
O1237  O     0.42693   0.70724   0.72698   0.00000  Uiso   1.00
O1238  O     0.20725   0.92693   0.72698   0.00000  Uiso   1.00
O1239  O     0.00000   0.75000   0.25000   0.00000  Uiso   1.00
O1240  O     0.29276   0.57307   0.27302   0.00000  Uiso   1.00
O1241  O     0.42693   0.79276   0.72698   0.00000  Uiso   1.00
O1242  O     0.07308   0.70725   0.27302   0.00000  Uiso   1.00
O1243  O     0.29276   0.57307   0.72698   0.00000  Uiso   1.00
O1244  O     0.20725   0.92693   0.27302   0.00000  Uiso   1.00
O1245  O     0.07308   0.70725   0.72698   0.00000  Uiso   1.00
O1246  O     0.42693   0.79276   0.27302   0.00000  Uiso   1.00
O1247  O     0.45725   0.82308   0.77302   0.00000  Uiso   1.00
O1248  O     0.04276   0.67693   0.22698   0.00000  Uiso   1.00
O1249  O     0.17693   0.95725   0.77302   0.00000  Uiso   1.00
O1250  O     0.00000   0.75000   0.75000   0.00000  Uiso   1.00
O1251  O     0.32308   0.54275   0.22698   0.00000  Uiso   1.00
O1252  O     0.04276   0.67693   0.77302   0.00000  Uiso   1.00
O1253  O     0.45725   0.82308   0.22698   0.00000  Uiso   1.00
O1254  O     0.32308   0.54275   0.77302   0.00000  Uiso   1.00
O1255  O     0.17693   0.95725   0.22698   0.00000  Uiso   1.00
O1256  O     0.45725   0.67692   0.22698   0.00000  Uiso   1.00
O1257  O     0.04276   0.82308   0.77302   0.00000  Uiso   1.00
O1258  O     0.17693   0.54275   0.22698   0.00000  Uiso   1.00
O1259  O     0.32308   0.95725   0.77302   0.00000  Uiso   1.00
O1260  O     0.04276   0.82308   0.22698   0.00000  Uiso   1.00
O1261  O     0.25000   0.96964   0.33755   0.00000  Uiso   1.00
O1262  O     0.45725   0.67692   0.77302   0.00000  Uiso   1.00
O1263  O     0.32308   0.95725   0.22698   0.00000  Uiso   1.00
O1264  O     0.17693   0.54275   0.77302   0.00000  Uiso   1.00
O1265  O     0.25000   0.53036   0.66245   0.00000  Uiso   1.00
O1266  O     0.03037   0.75000   0.33755   0.00000  Uiso   1.00
O1267  O     0.46964   0.75000   0.66245   0.00000  Uiso   1.00
O1268  O     0.25000   0.53036   0.33755   0.00000  Uiso   1.00
Zn1269 Zn    0.20660   0.50000   0.21735   0.00000  Uiso   1.00
Zn1270 Zn    0.04341   0.75000   0.28265   0.00000  Uiso   1.00
Zn1271 Zn    0.25000   0.95660   0.71735   0.00000  Uiso   1.00
Zn1272 Zn    0.25000   0.54340   0.28265   0.00000  Uiso   1.00
Zn1273 Zn    0.04341   0.75000   0.71735   0.00000  Uiso   1.00
Zn1274 Zn    0.45660   0.75000   0.28265   0.00000  Uiso   1.00
Zn1275 Zn    0.25000   0.54340   0.71735   0.00000  Uiso   1.00
Zn1276 Zn    0.25000   0.95660   0.28265   0.00000  Uiso   1.00
Zn1277 Zn    0.29341   0.50000   0.78265   0.00000  Uiso   1.00
Zn1278 Zn    0.00000   0.70659   0.21735   0.00000  Uiso   1.00
Zn1279 Zn    0.00000   0.79341   0.78265   0.00000  Uiso   1.00
Zn1280 Zn    0.29341   0.50000   0.21735   0.00000  Uiso   1.00
Zn1281 Zn    0.20660   0.50000   0.78265   0.00000  Uiso   1.00
Zn1282 Zn    0.00000   0.79341   0.21735   0.00000  Uiso   1.00
Zn1283 Zn    0.00000   0.70659   0.78265   0.00000  Uiso   1.00
Zn1284 Zn    0.45660   0.75000   0.71735   0.00000  Uiso   1.00
C1285  C     0.99256   0.78255   0.41785   0.00000  Uiso   1.00
C1286  C     0.75761   0.96745   0.08237   0.00000  Uiso   1.00
C1287  C     0.71638   0.50250   0.54124   0.00000  Uiso   1.00
C1288  C     0.99735   0.78362   0.45876   0.00000  Uiso   1.00
C1289  C     0.99785   0.71634   0.54125   0.00000  Uiso   1.00
C1290  C     0.71636   0.99769   0.45875   0.00000  Uiso   1.00
C1291  C     0.78362   0.99750   0.54124   0.00000  Uiso   1.00
C1292  C     0.75592   0.96691   0.95876   0.00000  Uiso   1.00
C1293  C     0.74541   0.53360   0.04125   0.00000  Uiso   1.00
C1294  C     0.53371   0.75114   0.95864   0.00000  Uiso   1.00
C1295  C     0.96655   0.75385   0.04108   0.00000  Uiso   1.00
C1296  C     0.74408   0.53309   0.95876   0.00000  Uiso   1.00
C1297  C     0.96715   0.74403   0.91775   0.00000  Uiso   1.00
C1298  C     0.75458   0.96640   0.04125   0.00000  Uiso   1.00
C1299  C     0.96629   0.74887   0.95864   0.00000  Uiso   1.00
C1300  C     0.53345   0.74617   0.04108   0.00000  Uiso   1.00
C1301  C     0.59796   0.84832   0.25027   0.00000  Uiso   1.00
C1302  C     0.90187   0.65189   0.75002   0.00000  Uiso   1.00
C1303  C     0.65185   0.59814   0.25000   0.00000  Uiso   1.00
C1304  C     0.84827   0.90201   0.74980   0.00000  Uiso   1.00
C1305  C     0.90204   0.65168   0.25027   0.00000  Uiso   1.00
C1306  C     0.59813   0.84811   0.75002   0.00000  Uiso   1.00
C1307  C     0.84815   0.90186   0.24999   0.00000  Uiso   1.00
C1308  C     0.53216   0.74126   0.08196   0.00000  Uiso   1.00
C1309  C     0.65174   0.59799   0.74980   0.00000  Uiso   1.00
C1310  C     0.59805   0.65175   0.74986   0.00000  Uiso   1.00
C1311  C     0.90190   0.84816   0.25002   0.00000  Uiso   1.00
C1312  C     0.65185   0.90185   0.74999   0.00000  Uiso   1.00
C1313  C     0.84831   0.59794   0.25029   0.00000  Uiso   1.00
C1314  C     0.90195   0.84825   0.74986   0.00000  Uiso   1.00
C1315  C     0.59810   0.65184   0.25002   0.00000  Uiso   1.00
C1316  C     0.84815   0.59815   0.74999   0.00000  Uiso   1.00
C1317  C     0.65169   0.90206   0.25029   0.00000  Uiso   1.00
C1318  C     0.50000   0.75000   0.47939   0.00000  Uiso   1.00
C1319  C     0.76087   0.96844   0.91792   0.00000  Uiso   1.00
C1320  C     0.50000   0.75000   0.52062   0.00000  Uiso   1.00
C1321  C     0.75000   0.50000   0.47938   0.00000  Uiso   1.00
C1322  C     0.75000   0.50000   0.52061   0.00000  Uiso   1.00
C1323  C     0.75000   0.50000   0.97945   0.00000  Uiso   1.00
C1324  C     0.75000   0.50000   0.02069   0.00000  Uiso   1.00
C1325  C     0.50000   0.75001   0.97925   0.00000  Uiso   1.00
C1326  C     0.50000   0.75001   0.02046   0.00000  Uiso   1.00
C1327  C     0.97629   0.81342   0.39556   0.00000  Uiso   1.00
C1328  C     0.99655   0.83198   0.36691   0.00000  Uiso   1.00
C1329  C     0.98018   0.85924   0.34446   0.00000  Uiso   1.00
C1330  C     0.74238   0.53255   0.08237   0.00000  Uiso   1.00
C1331  C     0.94360   0.86826   0.35045   0.00000  Uiso   1.00
C1332  C     0.92335   0.85012   0.37898   0.00000  Uiso   1.00
C1333  C     0.93958   0.82278   0.40148   0.00000  Uiso   1.00
C1334  C     0.97724   0.68622   0.60447   0.00000  Uiso   1.00
C1335  C     0.99780   0.66796   0.63307   0.00000  Uiso   1.00
C1336  C     0.98183   0.64045   0.65555   0.00000  Uiso   1.00
C1337  C     0.94537   0.63088   0.64961   0.00000  Uiso   1.00
C1338  C     0.92483   0.64872   0.62110   0.00000  Uiso   1.00
C1339  C     0.94066   0.67631   0.59859   0.00000  Uiso   1.00
C1340  C     0.68636   0.97689   0.39554   0.00000  Uiso   1.00
C1341  C     0.53285   0.75598   0.91775   0.00000  Uiso   1.00
C1342  C     0.66801   0.99734   0.36691   0.00000  Uiso   1.00
C1343  C     0.64062   0.98121   0.34443   0.00000  Uiso   1.00
C1344  C     0.63124   0.94468   0.35039   0.00000  Uiso   1.00
C1345  C     0.64917   0.92425   0.37892   0.00000  Uiso   1.00
C1346  C     0.67665   0.94024   0.40144   0.00000  Uiso   1.00
C1347  C     0.81348   0.97652   0.60444   0.00000  Uiso   1.00
C1348  C     0.83196   0.99685   0.63309   0.00000  Uiso   1.00
C1349  C     0.85926   0.98056   0.65555   0.00000  Uiso   1.00
C1350  C     0.86840   0.94399   0.64956   0.00000  Uiso   1.00
C1351  C     0.85035   0.92368   0.62101   0.00000  Uiso   1.00
C1352  C     0.96784   0.75874   0.08196   0.00000  Uiso   1.00
C1353  C     0.82296   0.93983   0.59851   0.00000  Uiso   1.00
C1354  C     0.52371   0.68658   0.39556   0.00000  Uiso   1.00
C1355  C     0.50344   0.66802   0.36691   0.00000  Uiso   1.00
C1356  C     0.51982   0.64076   0.34446   0.00000  Uiso   1.00
C1357  C     0.55640   0.63173   0.35045   0.00000  Uiso   1.00
C1358  C     0.57665   0.64987   0.37899   0.00000  Uiso   1.00
C1359  C     0.56042   0.67722   0.40148   0.00000  Uiso   1.00
C1360  C     0.52276   0.81378   0.60446   0.00000  Uiso   1.00
C1361  C     0.50221   0.83204   0.63308   0.00000  Uiso   1.00
C1362  C     0.51818   0.85955   0.65554   0.00000  Uiso   1.00
C1363  C     0.50000   0.75000   0.39792   0.00000  Uiso   1.00
C1364  C     0.55465   0.86912   0.64960   0.00000  Uiso   1.00
C1365  C     0.57517   0.85128   0.62109   0.00000  Uiso   1.00
C1366  C     0.55935   0.82369   0.59858   0.00000  Uiso   1.00
C1367  C     0.81364   0.52311   0.39555   0.00000  Uiso   1.00
C1368  C     0.83199   0.50266   0.36692   0.00000  Uiso   1.00
C1369  C     0.85939   0.51879   0.34444   0.00000  Uiso   1.00
C1370  C     0.86876   0.55532   0.35039   0.00000  Uiso   1.00
C1371  C     0.85083   0.57575   0.37892   0.00000  Uiso   1.00
C1372  C     0.82335   0.55976   0.40144   0.00000  Uiso   1.00
C1373  C     0.68652   0.52348   0.60444   0.00000  Uiso   1.00
C1374  C     0.50000   0.75000   0.60208   0.00000  Uiso   1.00
C1375  C     0.66804   0.50315   0.63309   0.00000  Uiso   1.00
C1376  C     0.64074   0.51944   0.65555   0.00000  Uiso   1.00
C1377  C     0.63160   0.55601   0.64956   0.00000  Uiso   1.00
C1378  C     0.64966   0.57632   0.62101   0.00000  Uiso   1.00
C1379  C     0.67704   0.56017   0.59851   0.00000  Uiso   1.00
C1380  C     0.71992   0.56102   0.89604   0.00000  Uiso   1.00
C1381  C     0.73781   0.58090   0.86659   0.00000  Uiso   1.00
C1382  C     0.71907   0.60765   0.84560   0.00000  Uiso   1.00
C1383  C     0.68250   0.61492   0.85390   0.00000  Uiso   1.00
C1384  C     0.66456   0.59540   0.88314   0.00000  Uiso   1.00
C1385  C     0.75000   0.50000   0.39792   0.00000  Uiso   1.00
C1386  C     0.68314   0.56854   0.90417   0.00000  Uiso   1.00
C1387  C     0.77071   0.93613   0.10614   0.00000  Uiso   1.00
C1388  C     0.80804   0.92786   0.10731   0.00000  Uiso   1.00
C1389  C     0.82102   0.90134   0.13306   0.00000  Uiso   1.00
C1390  C     0.79690   0.88276   0.15755   0.00000  Uiso   1.00
C1391  C     0.75968   0.89073   0.15645   0.00000  Uiso   1.00
C1392  C     0.74657   0.91742   0.13100   0.00000  Uiso   1.00
C1393  C     0.93566   0.72902   0.89543   0.00000  Uiso   1.00
C1394  C     0.91794   0.75007   0.86685   0.00000  Uiso   1.00
C1395  C     0.89021   0.73474   0.84418   0.00000  Uiso   1.00
C1396  C     0.99306   0.71733   0.58216   0.00000  Uiso   1.00
C1397  C     0.75000   0.50000   0.60207   0.00000  Uiso   1.00
C1398  C     0.87990   0.69844   0.84989   0.00000  Uiso   1.00
C1399  C     0.89719   0.67743   0.87840   0.00000  Uiso   1.00
C1400  C     0.92498   0.69261   0.90111   0.00000  Uiso   1.00
C1401  C     0.56202   0.72300   0.10387   0.00000  Uiso   1.00
C1402  C     0.58177   0.74166   0.13283   0.00000  Uiso   1.00
C1403  C     0.60818   0.72334   0.15470   0.00000  Uiso   1.00
C1404  C     0.61504   0.68640   0.14786   0.00000  Uiso   1.00
C1405  C     0.59553   0.66775   0.11911   0.00000  Uiso   1.00
C1406  C     0.56916   0.68594   0.09713   0.00000  Uiso   1.00
C1407  C     0.78008   0.93898   0.89604   0.00000  Uiso   1.00
C1408  C     0.75000   0.50000   0.89791   0.00000  Uiso   1.00
C1409  C     0.76219   0.91910   0.86660   0.00000  Uiso   1.00
C1410  C     0.78093   0.89235   0.84560   0.00000  Uiso   1.00
C1411  C     0.81750   0.88508   0.85390   0.00000  Uiso   1.00
C1412  C     0.83544   0.90460   0.88314   0.00000  Uiso   1.00
C1413  C     0.81686   0.93146   0.90417   0.00000  Uiso   1.00
C1414  C     0.72927   0.56386   0.10614   0.00000  Uiso   1.00
C1415  C     0.69194   0.57211   0.10732   0.00000  Uiso   1.00
C1416  C     0.67894   0.59861   0.13309   0.00000  Uiso   1.00
C1417  C     0.70306   0.61721   0.15758   0.00000  Uiso   1.00
C1418  C     0.74029   0.60927   0.15646   0.00000  Uiso   1.00
C1419  C     0.75000   0.50000   0.10209   0.00000  Uiso   1.00
C1420  C     0.75340   0.58258   0.13100   0.00000  Uiso   1.00
C1421  C     0.56434   0.77098   0.89543   0.00000  Uiso   1.00
C1422  C     0.58206   0.74993   0.86685   0.00000  Uiso   1.00
C1423  C     0.60979   0.76525   0.84418   0.00000  Uiso   1.00
C1424  C     0.62009   0.80156   0.84988   0.00000  Uiso   1.00
C1425  C     0.60281   0.82257   0.87838   0.00000  Uiso   1.00
C1426  C     0.57502   0.80739   0.90110   0.00000  Uiso   1.00
C1427  C     0.93798   0.77701   0.10387   0.00000  Uiso   1.00
C1428  C     0.91823   0.75834   0.13282   0.00000  Uiso   1.00
C1429  C     0.89183   0.77667   0.15471   0.00000  Uiso   1.00
C1430  C     0.50000   0.75000   0.89786   0.00000  Uiso   1.00
C1431  C     0.88499   0.81361   0.14789   0.00000  Uiso   1.00
C1432  C     0.90451   0.83227   0.11915   0.00000  Uiso   1.00
C1433  C     0.93086   0.81408   0.09716   0.00000  Uiso   1.00
C1434  C     0.50000   0.75000   0.10197   0.00000  Uiso   1.00
C1435  C     0.50078   0.68307   0.47965   0.00000  Uiso   1.00
C1436  C     0.99981   0.81694   0.52035   0.00000  Uiso   1.00
C1437  C     0.81691   0.50013   0.47965   0.00000  Uiso   1.00
C1438  C     0.68309   0.50049   0.52035   0.00000  Uiso   1.00
C1439  C     0.99921   0.81693   0.47965   0.00000  Uiso   1.00
C1440  C     0.71738   0.99289   0.41784   0.00000  Uiso   1.00
C1441  C     0.50019   0.68306   0.52035   0.00000  Uiso   1.00
C1442  C     0.68309   0.99987   0.47965   0.00000  Uiso   1.00
C1443  C     0.81691   0.99951   0.52035   0.00000  Uiso   1.00
C1444  C     0.75531   0.93342   0.97927   0.00000  Uiso   1.00
C1445  C     0.74533   0.56692   0.02002   0.00000  Uiso   1.00
C1446  C     0.56688   0.74777   0.97955   0.00000  Uiso   1.00
C1447  C     0.93319   0.75310   0.02025   0.00000  Uiso   1.00
C1448  C     0.74469   0.56658   0.97926   0.00000  Uiso   1.00
C1449  C     0.75465   0.93308   0.02002   0.00000  Uiso   1.00
C1450  C     0.93312   0.75225   0.97955   0.00000  Uiso   1.00
C1451  C     0.78257   0.99269   0.58215   0.00000  Uiso   1.00
C1452  C     0.56681   0.74693   0.02025   0.00000  Uiso   1.00
C1453  C     0.75000   0.50000   0.35564   0.00000  Uiso   1.00
C1454  C     0.75000   0.50000   0.64436   0.00000  Uiso   1.00
C1455  C     0.50000   0.75000   0.35563   0.00000  Uiso   1.00
C1456  C     0.50000   0.75000   0.64437   0.00000  Uiso   1.00
C1457  C     0.50000   0.75000   0.85561   0.00000  Uiso   1.00
C1458  C     0.50000   0.75000   0.14432   0.00000  Uiso   1.00
C1459  C     0.75000   0.50000   0.85564   0.00000  Uiso   1.00
C1460  C     0.75000   0.50000   0.14441   0.00000  Uiso   1.00
C1461  C     0.67993   0.57008   0.24999   0.00000  Uiso   1.00
C1462  C     0.50744   0.71745   0.41785   0.00000  Uiso   1.00
C1463  C     0.82011   0.92997   0.74994   0.00000  Uiso   1.00
C1464  C     0.92997   0.67988   0.25007   0.00000  Uiso   1.00
C1465  C     0.57007   0.82006   0.75001   0.00000  Uiso   1.00
C1466  C     0.82007   0.92992   0.24999   0.00000  Uiso   1.00
C1467  C     0.67989   0.57003   0.74994   0.00000  Uiso   1.00
C1468  C     0.57003   0.82012   0.25007   0.00000  Uiso   1.00
C1469  C     0.92993   0.67994   0.75001   0.00000  Uiso   1.00
C1470  C     0.67992   0.92993   0.74999   0.00000  Uiso   1.00
C1471  C     0.82012   0.57002   0.25008   0.00000  Uiso   1.00
C1472  C     0.92994   0.82010   0.74998   0.00000  Uiso   1.00
C1473  C     0.50694   0.78267   0.58216   0.00000  Uiso   1.00
C1474  C     0.57006   0.67992   0.25001   0.00000  Uiso   1.00
C1475  C     0.82008   0.57007   0.74999   0.00000  Uiso   1.00
C1476  C     0.67988   0.92998   0.25008   0.00000  Uiso   1.00
C1477  C     0.57006   0.67990   0.74998   0.00000  Uiso   1.00
C1478  C     0.92994   0.82008   0.25001   0.00000  Uiso   1.00
C1479  C     0.62284   0.90392   0.22361   0.00000  Uiso   1.00
C1480  C     0.87595   0.59733   0.77798   0.00000  Uiso   1.00
C1481  C     0.59622   0.62294   0.22336   0.00000  Uiso   1.00
C1482  C     0.90400   0.87732   0.77629   0.00000  Uiso   1.00
C1483  C     0.87716   0.59608   0.22361   0.00000  Uiso   1.00
C1484  C     0.78262   0.50711   0.41784   0.00000  Uiso   1.00
C1485  C     0.62405   0.90267   0.77798   0.00000  Uiso   1.00
C1486  C     0.90380   0.87708   0.22339   0.00000  Uiso   1.00
C1487  C     0.59600   0.62268   0.77629   0.00000  Uiso   1.00
C1488  C     0.62267   0.59591   0.77621   0.00000  Uiso   1.00
C1489  C     0.87705   0.90377   0.22336   0.00000  Uiso   1.00
C1490  C     0.59732   0.87592   0.77800   0.00000  Uiso   1.00
C1491  C     0.90389   0.62281   0.22360   0.00000  Uiso   1.00
C1492  C     0.87733   0.90409   0.77621   0.00000  Uiso   1.00
C1493  C     0.62297   0.59624   0.22333   0.00000  Uiso   1.00
C1494  C     0.90268   0.62408   0.77800   0.00000  Uiso   1.00
C1495  C     0.71743   0.50731   0.58215   0.00000  Uiso   1.00
C1496  C     0.59611   0.87719   0.22360   0.00000  Uiso   1.00
C1497  C     0.87407   0.65271   0.72203   0.00000  Uiso   1.00
C1498  C     0.62669   0.84658   0.27714   0.00000  Uiso   1.00
C1499  C     0.84628   0.87302   0.72327   0.00000  Uiso   1.00
C1500  C     0.65371   0.62702   0.27667   0.00000  Uiso   1.00
C1501  C     0.62593   0.84728   0.72203   0.00000  Uiso   1.00
C1502  C     0.87331   0.65342   0.27714   0.00000  Uiso   1.00
C1503  C     0.65372   0.62698   0.72327   0.00000  Uiso   1.00
C1504  C     0.84627   0.87296   0.27664   0.00000  Uiso   1.00
C1505  C     0.87301   0.84625   0.27665   0.00000  Uiso   1.00
C1506  C     0.73913   0.53156   0.91792   0.00000  Uiso   1.00
C1507  C     0.62701   0.65372   0.72330   0.00000  Uiso   1.00
C1508  C     0.84658   0.62668   0.27715   0.00000  Uiso   1.00
C1509  C     0.65266   0.87403   0.72202   0.00000  Uiso   1.00
C1510  C     0.62697   0.65372   0.27668   0.00000  Uiso   1.00
C1511  C     0.87300   0.84629   0.72330   0.00000  Uiso   1.00
C1512  C     0.65342   0.87332   0.27715   0.00000  Uiso   1.00
C1513  C     0.84734   0.62597   0.72201   0.00000  Uiso   1.00
C1514  C     0.50264   0.71638   0.45876   0.00000  Uiso   1.00
C1515  C     0.50215   0.78366   0.54125   0.00000  Uiso   1.00
C1516  C     0.78364   0.50231   0.45875   0.00000  Uiso   1.00
Cl1517 Cl    0.99359   0.64039   0.45635   0.00000  Uiso   1.00
Cl1518 Cl    0.75080   0.61022   0.04261   0.00000  Uiso   1.00
Cl1519 Cl    0.60923   0.73899   0.95623   0.00000  Uiso   1.00
Cl1520 Cl    0.89036   0.74768   0.04372   0.00000  Uiso   1.00
Cl1521 Cl    0.75099   0.60895   0.95491   0.00000  Uiso   1.00
Cl1522 Cl    0.74915   0.88978   0.04261   0.00000  Uiso   1.00
Cl1523 Cl    0.89078   0.76103   0.95623   0.00000  Uiso   1.00
Cl1524 Cl    0.60964   0.75236   0.04373   0.00000  Uiso   1.00
Cl1525 Cl    0.99202   0.85950   0.54365   0.00000  Uiso   1.00
Cl1526 Cl    0.85950   0.99256   0.45635   0.00000  Uiso   1.00
Cl1527 Cl    0.64046   0.99315   0.54365   0.00000  Uiso   1.00
Cl1528 Cl    0.50640   0.85961   0.45636   0.00000  Uiso   1.00
Cl1529 Cl    0.50797   0.64050   0.54365   0.00000  Uiso   1.00
Cl1530 Cl    0.64051   0.50744   0.45635   0.00000  Uiso   1.00
Cl1531 Cl    0.85954   0.50685   0.54366   0.00000  Uiso   1.00
Cl1532 Cl    0.74901   0.89105   0.95491   0.00000  Uiso   1.00
H1533  H     0.62097   0.92590   0.20263   0.00000  Uiso   1.00
H1534  H     0.87896   0.92579   0.20242   0.00000  Uiso   1.00
H1535  H     0.69289   0.63748   0.17772   0.00000  Uiso   1.00
H1536  H     0.75892   0.62343   0.17567   0.00000  Uiso   1.00
H1537  H     0.78220   0.57608   0.13093   0.00000  Uiso   1.00
H1538  H     0.57422   0.72180   0.86205   0.00000  Uiso   1.00
H1539  H     0.62315   0.74901   0.82206   0.00000  Uiso   1.00
H1540  H     0.64142   0.81345   0.83215   0.00000  Uiso   1.00
H1541  H     0.61076   0.85072   0.88266   0.00000  Uiso   1.00
H1542  H     0.56144   0.82410   0.92269   0.00000  Uiso   1.00
H1543  H     0.92342   0.72975   0.13845   0.00000  Uiso   1.00
H1544  H     0.87681   0.76229   0.17709   0.00000  Uiso   1.00
H1545  H     0.57619   0.87694   0.80001   0.00000  Uiso   1.00
H1546  H     0.86472   0.82779   0.16502   0.00000  Uiso   1.00
H1547  H     0.89955   0.86092   0.11403   0.00000  Uiso   1.00
H1548  H     0.94611   0.82895   0.07530   0.00000  Uiso   1.00
H1549  H     0.92586   0.62093   0.20262   0.00000  Uiso   1.00
H1550  H     0.87935   0.92622   0.79700   0.00000  Uiso   1.00
H1551  H     0.62108   0.57425   0.20238   0.00000  Uiso   1.00
H1552  H     0.92381   0.62306   0.80001   0.00000  Uiso   1.00
H1553  H     0.57414   0.87907   0.20261   0.00000  Uiso   1.00
H1554  H     0.87306   0.67386   0.70003   0.00000  Uiso   1.00
H1555  H     0.62853   0.82462   0.29815   0.00000  Uiso   1.00
H1556  H     0.82418   0.87101   0.70246   0.00000  Uiso   1.00
H1557  H     0.87700   0.57616   0.79995   0.00000  Uiso   1.00
H1558  H     0.67573   0.62896   0.29759   0.00000  Uiso   1.00
H1559  H     0.62694   0.82614   0.70003   0.00000  Uiso   1.00
H1560  H     0.87147   0.67538   0.29815   0.00000  Uiso   1.00
H1561  H     0.67582   0.62899   0.70246   0.00000  Uiso   1.00
H1562  H     0.82424   0.87100   0.29754   0.00000  Uiso   1.00
H1563  H     0.87110   0.82424   0.29759   0.00000  Uiso   1.00
H1564  H     0.62904   0.67585   0.70252   0.00000  Uiso   1.00
H1565  H     0.82466   0.62849   0.29820   0.00000  Uiso   1.00
H1566  H     0.67382   0.87297   0.70003   0.00000  Uiso   1.00
H1567  H     0.62886   0.67572   0.29764   0.00000  Uiso   1.00
H1568  H     0.57424   0.62104   0.20239   0.00000  Uiso   1.00
H1569  H     0.87096   0.82415   0.70252   0.00000  Uiso   1.00
H1570  H     0.67534   0.87151   0.29820   0.00000  Uiso   1.00
H1571  H     0.82618   0.62702   0.70003   0.00000  Uiso   1.00
H1572  H     0.52490   0.82517   0.36192   0.00000  Uiso   1.00
H1573  H     0.99582   0.87326   0.32230   0.00000  Uiso   1.00
H1574  H     0.93091   0.88926   0.33291   0.00000  Uiso   1.00
H1575  H     0.89499   0.85708   0.38348   0.00000  Uiso   1.00
H1576  H     0.92348   0.80856   0.42314   0.00000  Uiso   1.00
H1577  H     0.52605   0.67519   0.63802   0.00000  Uiso   1.00
H1578  H     0.99769   0.62666   0.67767   0.00000  Uiso   1.00
H1579  H     0.92610   0.87935   0.79710   0.00000  Uiso   1.00
H1580  H     0.93299   0.60970   0.66716   0.00000  Uiso   1.00
H1581  H     0.89657   0.64134   0.61664   0.00000  Uiso   1.00
H1582  H     0.92434   0.69029   0.57696   0.00000  Uiso   1.00
H1583  H     0.67510   0.52564   0.36195   0.00000  Uiso   1.00
H1584  H     0.62676   0.99699   0.32229   0.00000  Uiso   1.00
H1585  H     0.61015   0.93218   0.33283   0.00000  Uiso   1.00
H1586  H     0.64194   0.89594   0.38339   0.00000  Uiso   1.00
H1587  H     0.69070   0.92400   0.42309   0.00000  Uiso   1.00
H1588  H     0.82505   0.52518   0.63809   0.00000  Uiso   1.00
H1589  H     0.87321   0.99625   0.67771   0.00000  Uiso   1.00
H1590  H     0.87903   0.57410   0.20263   0.00000  Uiso   1.00
H1591  H     0.88942   0.93137   0.66710   0.00000  Uiso   1.00
H1592  H     0.85740   0.89533   0.61651   0.00000  Uiso   1.00
H1593  H     0.80881   0.92368   0.57685   0.00000  Uiso   1.00
H1594  H     0.97510   0.67484   0.36192   0.00000  Uiso   1.00
H1595  H     0.50418   0.62674   0.32230   0.00000  Uiso   1.00
H1596  H     0.56909   0.61074   0.33292   0.00000  Uiso   1.00
H1597  H     0.60501   0.64291   0.38350   0.00000  Uiso   1.00
H1598  H     0.57652   0.69143   0.42315   0.00000  Uiso   1.00
H1599  H     0.97396   0.82481   0.63803   0.00000  Uiso   1.00
H1600  H     0.50233   0.87334   0.67768   0.00000  Uiso   1.00
H1601  H     0.62300   0.92384   0.79995   0.00000  Uiso   1.00
H1602  H     0.56703   0.89030   0.66714   0.00000  Uiso   1.00
H1603  H     0.60344   0.85866   0.61662   0.00000  Uiso   1.00
H1604  H     0.57566   0.80971   0.57694   0.00000  Uiso   1.00
H1605  H     0.82490   0.97436   0.36195   0.00000  Uiso   1.00
H1606  H     0.87324   0.50301   0.32229   0.00000  Uiso   1.00
H1607  H     0.88985   0.56782   0.33283   0.00000  Uiso   1.00
H1608  H     0.85806   0.60406   0.38339   0.00000  Uiso   1.00
H1609  H     0.80930   0.57600   0.42309   0.00000  Uiso   1.00
H1610  H     0.67495   0.97482   0.63808   0.00000  Uiso   1.00
H1611  H     0.62679   0.50375   0.67771   0.00000  Uiso   1.00
H1612  H     0.92579   0.87900   0.20244   0.00000  Uiso   1.00
H1613  H     0.61058   0.56863   0.66710   0.00000  Uiso   1.00
H1614  H     0.64261   0.60467   0.61651   0.00000  Uiso   1.00
H1615  H     0.69119   0.57632   0.57685   0.00000  Uiso   1.00
H1616  H     0.76623   0.57575   0.86007   0.00000  Uiso   1.00
H1617  H     0.73291   0.62276   0.82290   0.00000  Uiso   1.00
H1618  H     0.66806   0.63567   0.83764   0.00000  Uiso   1.00
H1619  H     0.63620   0.60101   0.88944   0.00000  Uiso   1.00
H1620  H     0.66888   0.55344   0.92660   0.00000  Uiso   1.00
H1621  H     0.82709   0.94262   0.08906   0.00000  Uiso   1.00
H1622  H     0.84987   0.89568   0.13454   0.00000  Uiso   1.00
H1623  H     0.57390   0.62065   0.79709   0.00000  Uiso   1.00
H1624  H     0.80706   0.86247   0.17769   0.00000  Uiso   1.00
H1625  H     0.74104   0.87657   0.17567   0.00000  Uiso   1.00
H1626  H     0.71778   0.92394   0.13094   0.00000  Uiso   1.00
H1627  H     0.92578   0.77819   0.86204   0.00000  Uiso   1.00
H1628  H     0.87685   0.75097   0.82206   0.00000  Uiso   1.00
H1629  H     0.85858   0.68654   0.83216   0.00000  Uiso   1.00
H1630  H     0.88924   0.64929   0.88268   0.00000  Uiso   1.00
H1631  H     0.93856   0.67591   0.92271   0.00000  Uiso   1.00
H1632  H     0.57657   0.77025   0.13847   0.00000  Uiso   1.00
H1633  H     0.62318   0.73771   0.17709   0.00000  Uiso   1.00
H1634  H     0.62065   0.57378   0.79700   0.00000  Uiso   1.00
H1635  H     0.63531   0.67222   0.16498   0.00000  Uiso   1.00
H1636  H     0.60051   0.63910   0.11397   0.00000  Uiso   1.00
H1637  H     0.55393   0.67107   0.07525   0.00000  Uiso   1.00
H1638  H     0.73377   0.92425   0.86007   0.00000  Uiso   1.00
H1639  H     0.76709   0.87724   0.82291   0.00000  Uiso   1.00
H1640  H     0.83194   0.86433   0.83765   0.00000  Uiso   1.00
H1641  H     0.86380   0.89899   0.88945   0.00000  Uiso   1.00
H1642  H     0.83112   0.94656   0.92660   0.00000  Uiso   1.00
H1643  H     0.67289   0.55733   0.08909   0.00000  Uiso   1.00
H1644  H     0.65009   0.60425   0.13458   0.00000  Uiso   1.00
O1645  O     0.75000   0.50000   0.25000   0.00000  Uiso   1.00
O1646  O     0.75000   0.96964   0.66245   0.00000  Uiso   1.00
O1647  O     0.96964   0.75000   0.33755   0.00000  Uiso   1.00
O1648  O     0.53037   0.75000   0.66245   0.00000  Uiso   1.00
O1649  O     0.50000   0.71964   0.83755   0.00000  Uiso   1.00
O1650  O     0.50000   0.78037   0.16245   0.00000  Uiso   1.00
O1651  O     0.78037   0.50000   0.83755   0.00000  Uiso   1.00
O1652  O     0.71964   0.50000   0.16245   0.00000  Uiso   1.00
O1653  O     0.50000   0.78037   0.83755   0.00000  Uiso   1.00
O1654  O     0.50000   0.71963   0.16245   0.00000  Uiso   1.00
O1655  O     0.71964   0.50000   0.83755   0.00000  Uiso   1.00
O1656  O     0.75000   0.50000   0.75000   0.00000  Uiso   1.00
O1657  O     0.78037   0.50000   0.16245   0.00000  Uiso   1.00
O1658  O     0.70725   0.57307   0.27302   0.00000  Uiso   1.00
O1659  O     0.79276   0.92693   0.72698   0.00000  Uiso   1.00
O1660  O     0.92693   0.70724   0.27302   0.00000  Uiso   1.00
O1661  O     0.57308   0.79276   0.72698   0.00000  Uiso   1.00
O1662  O     0.79276   0.92693   0.27302   0.00000  Uiso   1.00
O1663  O     0.70725   0.57307   0.72698   0.00000  Uiso   1.00
O1664  O     0.57308   0.79276   0.27302   0.00000  Uiso   1.00
O1665  O     0.92693   0.70724   0.72698   0.00000  Uiso   1.00
O1666  O     0.70725   0.92693   0.72698   0.00000  Uiso   1.00
O1667  O     0.50000   0.75000   0.25000   0.00000  Uiso   1.00
O1668  O     0.79276   0.57307   0.27302   0.00000  Uiso   1.00
O1669  O     0.92693   0.79276   0.72698   0.00000  Uiso   1.00
O1670  O     0.57308   0.70725   0.27302   0.00000  Uiso   1.00
O1671  O     0.79276   0.57307   0.72698   0.00000  Uiso   1.00
O1672  O     0.70725   0.92693   0.27302   0.00000  Uiso   1.00
O1673  O     0.57308   0.70725   0.72698   0.00000  Uiso   1.00
O1674  O     0.92693   0.79276   0.27302   0.00000  Uiso   1.00
O1675  O     0.95725   0.82308   0.77302   0.00000  Uiso   1.00
O1676  O     0.54276   0.67693   0.22698   0.00000  Uiso   1.00
O1677  O     0.67693   0.95725   0.77302   0.00000  Uiso   1.00
O1678  O     0.50000   0.75000   0.75000   0.00000  Uiso   1.00
O1679  O     0.82308   0.54275   0.22698   0.00000  Uiso   1.00
O1680  O     0.54276   0.67693   0.77302   0.00000  Uiso   1.00
O1681  O     0.95725   0.82308   0.22698   0.00000  Uiso   1.00
O1682  O     0.82308   0.54275   0.77302   0.00000  Uiso   1.00
O1683  O     0.67693   0.95725   0.22698   0.00000  Uiso   1.00
O1684  O     0.95725   0.67692   0.22698   0.00000  Uiso   1.00
O1685  O     0.54276   0.82308   0.77302   0.00000  Uiso   1.00
O1686  O     0.67693   0.54275   0.22698   0.00000  Uiso   1.00
O1687  O     0.82308   0.95725   0.77302   0.00000  Uiso   1.00
O1688  O     0.54276   0.82308   0.22698   0.00000  Uiso   1.00
O1689  O     0.75000   0.96964   0.33755   0.00000  Uiso   1.00
O1690  O     0.95725   0.67692   0.77302   0.00000  Uiso   1.00
O1691  O     0.82308   0.95725   0.22698   0.00000  Uiso   1.00
O1692  O     0.67693   0.54275   0.77302   0.00000  Uiso   1.00
O1693  O     0.75000   0.53036   0.66245   0.00000  Uiso   1.00
O1694  O     0.53037   0.75000   0.33755   0.00000  Uiso   1.00
O1695  O     0.96964   0.75000   0.66245   0.00000  Uiso   1.00
O1696  O     0.75000   0.53036   0.33755   0.00000  Uiso   1.00
Zn1697 Zn    0.70660   0.50000   0.21735   0.00000  Uiso   1.00
Zn1698 Zn    0.54341   0.75000   0.28265   0.00000  Uiso   1.00
Zn1699 Zn    0.75000   0.95660   0.71735   0.00000  Uiso   1.00
Zn1700 Zn    0.75000   0.54340   0.28265   0.00000  Uiso   1.00
Zn1701 Zn    0.54341   0.75000   0.71735   0.00000  Uiso   1.00
Zn1702 Zn    0.95660   0.75000   0.28265   0.00000  Uiso   1.00
Zn1703 Zn    0.75000   0.54340   0.71735   0.00000  Uiso   1.00
Zn1704 Zn    0.75000   0.95660   0.28265   0.00000  Uiso   1.00
Zn1705 Zn    0.79341   0.50000   0.78265   0.00000  Uiso   1.00
Zn1706 Zn    0.50000   0.70659   0.21735   0.00000  Uiso   1.00
Zn1707 Zn    0.50000   0.79341   0.78265   0.00000  Uiso   1.00
Zn1708 Zn    0.79341   0.50000   0.21735   0.00000  Uiso   1.00
Zn1709 Zn    0.70660   0.50000   0.78265   0.00000  Uiso   1.00
Zn1710 Zn    0.50000   0.79341   0.21735   0.00000  Uiso   1.00
Zn1711 Zn    0.50000   0.70659   0.78265   0.00000  Uiso   1.00
Zn1712 Zn    0.95660   0.75000   0.71735   0.00000  Uiso   1.00
loop_
_geom_bond_atom_site_label_1
_geom_bond_atom_site_label_2
_geom_bond_distance
_geom_bond_site_symmetry_2
_ccdc_geom_bond_type
C1     C507    1.403   .     A
C1     C43     1.491   .     S
C1     C4      1.416   .     A
C2     C14     1.417   .     A
C2     C103    1.489   .     S
C2     C991    1.400   .     S
C3     C211    1.416   .     A
C3     C154    1.418   .     A
C3     C38     1.425   .     A
C4     C462    1.425   .     A
C4     C155    1.418   .     A
C5     C464    1.425   .     A
C5     C112    1.416   .     A
C5     C585    1.418   .     S
C6     C158    1.418   .     A
C6     C156    1.416   .     A
C6     C893    1.425   .     S
C7     C159    1.418   .     A
C7     C167    1.416   .     A
C7     C894    1.425   .     S
C8     C35     1.415   .     A
C8     C160    1.415   .     A
C8     C895    1.423   .     S
C9     C46     1.417   .     A
C9     C161    1.423   .     A
C9     C40     1.430   .     A
C10    C162    1.418   .     A
C10    C41     1.425   .     A
C10    C57     1.416   .     A
C11    C163    1.418   .     A
C11    C68     1.416   .     A
C11    C470    1.424   .     S
C12    C222    1.415   .     A
C12    C164    1.415   .     A
C12    C39     1.423   .     A
C13    C109    1.491   .     S
C13    C15     1.416   .     A
C13    C574    1.402   .     S
C14    C165    1.423   .     A
C14    C896    1.430   .     S
C15    C166    1.418   .     A
C15    C469    1.425   .     S
C16    C24     1.416   .     A
C16    C42     1.424   .     A
C16    C168    1.418   .     A
C17    C184    1.455   .     S
C17    C212    1.401   .     A
C17    C214    1.402   .     A
C18    C210    1.401   .     A
C18    C185    1.455   .     S
C18    C213    1.402   .     A
C19    C177    1.456   .     S
C19    C209    1.402   .     A
C19    C216    1.402   .     A
C20    C215    1.402   .     A
C20    C179    1.456   .     S
C20    C208    1.402   .     A
C21    C180    1.455   .     S
C21    C218    1.402   .     A
C21    C207    1.401   .     A
C22    C181    1.455   .     S
C22    C206    1.401   .     A
C22    C217    1.402   .     A
C23    C220    1.402   .     A
C23    C182    1.456   .     S
C23    C205    1.402   .     A
C24    C150    1.402   .     A
C24    C117    1.488   .     S
C25    C204    1.402   .     A
C25    C219    1.402   .     A
C25    C183    1.456   .     S
C26    C203    1.402   .     A
C26    C223    1.402   .     A
C26    C193    1.456   .     S
C27    C202    1.402   .     A
C27    C221    1.402   .     A
C27    C194    1.456   .     S
C28    C201    1.402   .     A
C28    C186    1.455   .     S
C28    C225    1.402   .     A
C29    C199    1.401   .     A
C29    C224    1.402   .     A
C29    C187    1.455   .     S
C30    C198    1.402   .     A
C30    C188    1.456   .     S
C30    C227    1.402   .     A
C31    C190    1.456   .     S
C31    C226    1.402   .     A
C31    C197    1.402   .     A
C32    C191    1.455   .     S
C32    C196    1.402   .     A
C32    C229    1.402   .     A
C33    C195    1.402   .     A
C33    C192    1.455   .     S
C33    C228    1.402   .     A
C34    C432    1.425   1_455 A
C34    C36     1.416   .     A
C34    C230    1.425   .     S
C35    C123    1.493   .     S
C35    C980    1.404   .     S
C36    C433    1.425   1_455 A
C36    C231    1.425   .     S
C37    C232    1.425   .     A
C37    C38     1.416   .     A
C37    C862    1.425   1_545 S
C38    C863    1.425   1_545 S
C39    C864    1.423   1_545 S
C39    C40     1.416   1_556 S
C40    C870    1.430   1_545 S
C40    C39     1.416   1_554 S
C41    C443    1.425   1_455 S
C41    C42     1.415   1_556 S
C42    C439    1.424   1_455 S
C42    C41     1.415   1_554 S
C43    C44     1.408   .     A
C43    C49     1.405   .     A
C44    C45     1.398   .     A
C44    H716    1.083   .     S
C45    C47     1.398   .     A
C45    H289    1.082   .     S
C46    C130    1.489   .     S
C46    C135    1.400   .     A
C47    H290    1.082   .     S
C47    C48     1.398   .     A
C48    H291    1.082   .     S
C48    C49     1.399   .     A
C49    H292    1.083   .     S
C50    C112    1.491   .     S
C50    C51     1.408   .     A
C50    C55     1.405   .     A
C51    C52     1.398   .     A
C51    H721    1.083   .     S
C52    C53     1.397   .     A
C52    H294    1.082   .     S
C53    H296    1.082   .     S
C53    C54     1.398   .     A
C54    C55     1.399   .     A
C54    H297    1.082   .     S
C55    H298    1.083   .     S
C56    C62     1.405   .     A
C56    C156    1.491   .     S
C56    C58     1.408   .     A
C57    C137    1.491   .     S
C57    C146    1.402   .     A
C58    C59     1.398   .     A
C58    H1155   1.083   .     S
C59    H300    1.082   .     S
C59    C60     1.398   .     A
C60    C61     1.398   .     A
C60    H301    1.083   .     S
C61    C62     1.399   .     A
C61    H302    1.082   .     S
C62    H303    1.083   .     S
C63    C167    1.491   .     S
C63    C64     1.408   .     A
C63    C69     1.405   .     A
C64    C65     1.398   .     A
C64    H1160   1.083   .     S
C65    H305    1.082   .     S
C65    C66     1.397   .     A
C66    C67     1.398   .     A
C66    H307    1.082   .     S
C67    H308    1.082   .     S
C67    C69     1.399   .     A
C68    C143    1.488   .     S
C68    C578    1.402   .     S
C69    H309    1.083   .     S
C70    C75     1.405   .     A
C70    C71     1.408   .     A
C70    C178    1.491   .     S
C71    C72     1.398   .     A
C71    H738    1.083   1_455 S
C72    C73     1.397   .     A
C72    H311    1.082   .     S
C73    C74     1.398   .     A
C73    H312    1.083   .     S
C74    H313    1.082   .     S
C74    C75     1.399   .     A
C75    H314    1.083   .     S
C76    C77     1.408   .     A
C76    C82     1.405   .     A
C76    C189    1.491   .     S
C77    C78     1.398   .     A
C77    H743    1.083   1_455 S
C78    H316    1.082   .     S
C78    C80     1.398   .     A
C79    C429    1.403   1_455 A
C79    C171    1.452   .     S
C79    C178    1.403   .     S
C80    H318    1.082   .     S
C80    C81     1.398   .     A
C81    H319    1.082   .     S
C81    C82     1.399   .     A
C82    H320    1.083   .     S
C83    C88     1.405   .     A
C83    C84     1.408   .     A
C83    C200    1.491   .     S
C84    C85     1.398   .     A
C84    H1177   1.083   1_545 S
C85    C86     1.398   .     A
C85    H322    1.082   .     S
C86    H323    1.083   .     S
C86    C87     1.398   .     A
C87    C88     1.399   .     A
C87    H324    1.082   .     S
C88    H325    1.083   .     S
C89    C91     1.408   .     A
C89    C211    1.491   .     S
C89    C95     1.405   .     A
C90    C172    1.452   .     S
C90    C540    1.402   1_455 A
C90    C189    1.403   .     S
C91    C92     1.398   .     A
C91    H1182   1.083   1_545 S
C92    H327    1.082   .     S
C92    C93     1.398   .     A
C93    H329    1.082   .     S
C93    C94     1.398   .     A
C94    C95     1.399   .     A
C94    H330    1.082   .     S
C95    H331    1.083   .     S
C96    C102    1.405   .     A
C96    C97     1.408   .     A
C96    C222    1.493   .     S
C97    C98     1.398   .     A
C97    H332    1.083   .     S
C98    C99     1.397   .     A
C98    H333    1.082   .     S
C99    H334    1.082   .     S
C99    C100    1.398   .     A
C100   H335    1.082   .     S
C100   C102    1.399   .     A
C101   C200    1.403   .     A
C101   C1012   1.403   1_545 S
C101   C169    1.452   .     S
C102   H336    1.083   .     S
C103   C104    1.403   .     A
C103   C108    1.408   .     A
C104   C105    1.398   .     A
C104   H337    1.083   .     S
C105   C106    1.398   .     A
C105   H338    1.080   .     S
C106   C107    1.397   .     A
C106   H340    1.082   .     S
C107   C108    1.398   .     A
C107   H341    1.082   .     S
C108   H342    1.083   .     S
C109   C116    1.405   .     A
C109   C110    1.408   .     A
C110   C111    1.398   .     A
C110   H343    1.083   .     S
C111   C114    1.398   .     A
C111   H344    1.082   .     S
C112   C518    1.402   .     A
C113   C211    1.403   .     A
C113   C1023   1.403   1_545 S
C113   C170    1.452   .     S
C114   C115    1.398   .     A
C114   H345    1.082   .     S
C115   H346    1.082   .     S
C115   C116    1.399   .     A
C116   H347    1.083   .     S
C117   C122    1.403   .     A
C117   C118    1.408   .     A
C118   C119    1.398   .     A
C118   H348    1.083   .     S
C119   C120    1.397   .     A
C119   H349    1.082   .     S
C120   H351    1.081   .     S
C120   C121    1.398   .     A
C121   H352    1.081   .     S
C121   C122    1.397   .     A
C122   H353    1.083   .     S
C123   C125    1.408   .     A
C123   C129    1.405   .     A
C124   C222    1.404   .     A
C124   C891    1.404   1_545 S
C124   C175    1.451   .     S
C125   C126    1.398   .     A
C125   H354    1.083   .     S
C126   C127    1.397   .     A
C126   H355    1.082   .     S
C127   H356    1.082   .     S
C127   C128    1.398   .     A
C128   C129    1.399   .     A
C128   H357    1.082   .     S
C129   H358    1.083   .     S
C130   C131    1.403   .     A
C130   C136    1.408   .     A
C131   H359    1.083   .     S
C131   C132    1.398   .     A
C132   H360    1.080   .     S
C132   C133    1.398   .     A
C133   H251    1.082   .     S
C133   C134    1.397   .     A
C134   H252    1.082   .     S
C134   C136    1.398   .     A
C135   C176    1.453   .     S
C135   C858    1.400   1_545 S
C136   H253    1.083   .     S
C137   C142    1.405   .     A
C137   C138    1.408   .     A
C138   C139    1.398   .     A
C138   H254    1.083   .     S
C139   C140    1.398   .     A
C139   H255    1.082   .     S
C140   C141    1.398   .     A
C140   H256    1.082   .     S
C141   H257    1.082   .     S
C141   C142    1.399   .     A
C142   H258    1.083   .     S
C143   C144    1.408   .     A
C143   C149    1.403   .     A
C144   C145    1.398   .     A
C144   H259    1.083   .     S
C145   C147    1.397   .     A
C145   H260    1.082   .     S
C146   C441    1.402   1_455 S
C146   C173    1.451   .     S
C147   C148    1.398   .     A
C147   H262    1.081   .     S
C148   H263    1.081   .     S
C148   C149    1.397   .     A
C149   H264    1.083   .     S
C150   C174    1.454   .     S
C150   C496    1.402   1_455 S
C151   C230    1.418   .     A
C151   C157    1.398   .     A
C151   Cl661   1.777   1_455 S
C152   C155    1.398   .     A
C152   Cl241   1.777   .     S
C152   C659    1.418   .     S
C153   C232    1.418   .     A
C153   C1015   1.398   1_545 S
C153   Cl1098  1.777   1_545 S
C154   C1014   1.398   1_545 S
C154   Cl1099  1.777   1_545 S
C155   Cl672   1.777   .     S
C156   C957    1.403   .     S
C157   Cl245   1.777   .     S
C157   C433    1.418   1_455 S
C158   C1010   1.398   .     S
C158   Cl1102  1.777   .     S
C159   C1009   1.398   .     S
C159   Cl1103  1.777   .     S
C160   Cl248   1.779   .     S
C160   C165    1.400   1_556 S
C161   Cl234   1.778   .     S
C161   C164    1.400   1_554 S
C162   Cl235   1.777   .     S
C162   C168    1.398   1_556 S
C163   Cl236   1.777   .     S
C163   C166    1.398   1_554 S
C164   Cl237   1.779   .     S
C164   C161    1.400   1_556 S
C165   Cl238   1.778   .     S
C165   C160    1.400   1_554 S
C166   Cl239   1.777   .     S
C166   C163    1.398   1_556 S
C167   C969    1.403   .     S
C168   Cl240   1.777   .     S
C168   C162    1.398   1_554 S
C169   O1261   1.275   1_545 A
C169   O412    1.275   .     S
C170   O1218   1.275   1_545 A
C170   O409    1.275   .     S
C171   O410    1.275   .     A
C171   O791    1.275   1_455 S
C172   O839    1.275   1_455 A
C172   O364    1.275   .     S
C173   O369    1.274   .     A
C173   O365    1.274   .     S
C174   O366    1.276   .     S
C174   O370    1.276   .     S
C175   O367    1.275   .     S
C175   O371    1.275   .     S
C176   O368    1.274   .     S
C176   O373    1.274   .     S
C177   O374    1.281   .     A
C177   O402    1.281   .     A
C178   C230    1.416   .     A
C179   O403    1.281   .     A
C179   O375    1.281   .     A
C180   O400    1.281   .     A
C180   O376    1.281   .     A
C181   O401    1.281   .     A
C181   O377    1.281   .     A
C182   O378    1.281   .     A
C182   O407    1.281   .     A
C183   O379    1.281   .     A
C183   O408    1.281   .     A
C184   O404    1.281   .     A
C184   O380    1.281   .     A
C185   O381    1.281   .     A
C185   O406    1.281   .     A
C186   O393    1.281   .     A
C186   O382    1.281   .     A
C187   O395    1.281   .     A
C187   O384    1.281   .     A
C188   O391    1.281   .     A
C188   O385    1.281   .     A
C189   C231    1.416   .     A
C190   O386    1.281   .     A
C190   O392    1.281   .     A
C191   O398    1.281   .     A
C191   O387    1.281   .     A
C192   O399    1.281   .     A
C192   O388    1.281   .     A
C193   O396    1.281   .     A
C193   O389    1.281   .     A
C194   O397    1.281   .     A
C194   O390    1.281   .     A
C195   C212    1.386   .     A
C195   H249    1.083   .     S
C196   C210    1.386   .     A
C196   H273    1.083   .     S
C197   H284    1.083   .     S
C197   C209    1.386   .     A
C198   H295    1.083   .     S
C198   C208    1.386   .     A
C199   H306    1.083   .     S
C199   C207    1.386   .     A
C200   C232    1.416   .     A
C201   C206    1.386   .     A
C201   H317    1.083   .     S
C202   H328    1.083   .     S
C202   C205    1.386   .     A
C203   C204    1.386   .     A
C203   H339    1.083   .     S
C204   H350    1.083   .     S
C205   H250    1.083   .     S
C206   H261    1.083   .     S
C207   H265    1.083   .     S
C208   H266    1.083   .     S
C209   H267    1.083   .     S
C210   H268    1.083   .     S
C212   H269    1.083   .     S
C213   C229    1.386   .     A
C213   H270    1.083   .     S
C214   H271    1.083   .     S
C214   C228    1.386   .     A
C215   H272    1.083   .     S
C215   C227    1.386   .     A
C216   C226    1.386   .     A
C216   H274    1.083   .     S
C217   H275    1.083   .     S
C217   C225    1.386   .     A
C218   H276    1.083   .     S
C218   C224    1.386   .     A
C219   C223    1.386   .     A
C219   H277    1.083   .     S
C220   C221    1.386   .     A
C220   H278    1.083   .     S
C221   H279    1.083   .     S
C223   H280    1.083   .     S
C224   H281    1.083   .     S
C225   H282    1.083   .     S
C226   H283    1.083   .     S
C227   H285    1.083   .     S
C228   H286    1.083   .     S
C229   H287    1.083   .     S
C231   C580    1.418   1_455 S
Cl233  C579    1.777   .     S
Cl242  C1009   1.777   .     S
Cl243  C1010   1.777   .     S
Cl244  C583    1.777   1_455 S
Cl246  C1014   1.777   1_545 S
Cl247  C1015   1.777   1_545 S
H288   C472    1.083   1_455 S
H293   C479    1.083   1_455 S
H299   C914    1.083   1_545 S
H304   C920    1.083   1_545 S
H310   C499    1.083   .     S
H315   C505    1.083   .     S
H321   C940    1.083   .     S
H326   C947    1.083   .     S
O361   Zn1276  1.947   1_545 S
O361   Zn424   1.947   .     S
O361   Zn413   1.947   .     S
O361   Zn416   1.947   .     S
O362   C1026   1.275   .     A
O362   Zn415   1.945   .     S
O363   Zn418   1.945   .     S
O363   C599    1.275   .     S
O364   Zn417   1.945   .     S
O365   Zn427   1.945   .     S
O366   Zn426   1.945   .     S
O367   Zn421   1.945   .     S
O368   Zn413   1.945   .     S
O369   Zn423   1.945   .     S
O370   Zn422   1.945   .     S
O371   Zn425   1.945   .     S
O372   Zn425   1.947   .     S
O372   Zn1271  1.947   1_545 S
O372   Zn421   1.947   .     S
O372   Zn419   1.947   .     S
O373   Zn424   1.945   .     S
O374   Zn416   1.938   .     S
O375   Zn415   1.938   .     S
O376   Zn418   1.936   .     S
O377   Zn417   1.936   .     S
O378   Zn420   1.938   .     S
O379   Zn419   1.938   .     S
O380   Zn414   1.936   .     S
O381   Zn428   1.936   .     S
O382   Zn415   1.937   .     S
O383   Zn422   1.947   .     S
O383   Zn846   1.947   1_455 S
O383   Zn414   1.947   .     S
O383   Zn426   1.947   .     S
O384   Zn416   1.937   .     S
O385   Zn428   1.937   .     S
O386   Zn414   1.937   .     S
O387   Zn419   1.937   .     S
O388   Zn420   1.937   .     S
O389   Zn417   1.937   .     S
O390   Zn418   1.937   .     S
O391   Zn851   1.938   .     S
O392   Zn422   1.938   .     S
O393   Zn1281  1.936   .     S
O394   Zn417   1.947   .     S
O394   Zn423   1.947   .     S
O394   Zn427   1.947   .     S
O394   Zn856   1.947   1_455 S
O395   Zn424   1.936   .     S
O396   Zn427   1.938   .     S
O397   Zn854   1.938   .     S
O398   Zn421   1.936   .     S
O399   Zn1269  1.936   .     S
O400   Zn850   1.937   .     S
O401   Zn423   1.937   .     S
O402   Zn413   1.937   .     S
O403   Zn1277  1.937   .     S
O404   Zn426   1.937   .     S
O405   C1025   1.275   .     A
O405   Zn420   1.945   .     S
O406   Zn855   1.937   .     S
O407   Zn1280  1.937   .     S
O408   Zn425   1.937   .     S
O409   Zn419   1.945   .     S
O410   Zn414   1.945   .     S
O411   Zn428   1.945   .     S
O411   C600    1.275   .     A
O412   Zn416   1.945   .     S
Zn413  O1255   1.936   1_545 S
Zn415  O1228   1.947   .     S
Zn418  O811    1.947   .     S
Zn420  O1217   1.947   .     S
Zn421  O1259   1.937   1_545 S
Zn422  O828    1.937   1_455 S
Zn423  O819    1.938   1_455 S
Zn424  O1263   1.937   1_545 S
Zn425  O1249   1.936   1_545 S
Zn426  O825    1.938   1_455 S
Zn427  O834    1.937   1_455 S
Zn428  O822    1.947   .     S
C429   C79     1.403   1_655 A
C429   C471    1.491   .     S
C429   C432    1.416   .     A
C430   C442    1.417   .     A
C430   C531    1.489   .     S
C430   C1419   1.400   .     S
C431   C639    1.416   .     A
C431   C582    1.418   .     A
C431   C466    1.425   .     A
C432   C34     1.425   1_655 A
C432   C583    1.418   .     A
C433   C36     1.425   1_655 A
C433   C540    1.416   .     A
C433   C157    1.418   1_655 S
C434   C586    1.418   .     A
C434   C584    1.416   .     A
C434   C1321   1.425   .     S
C435   C587    1.418   .     A
C435   C595    1.416   .     A
C435   C1322   1.425   .     S
C436   C463    1.415   .     A
C436   C588    1.415   .     A
C436   C1323   1.423   .     S
C437   C474    1.417   .     A
C437   C589    1.423   .     A
C437   C468    1.430   .     A
C438   C590    1.418   .     A
C438   C469    1.425   .     A
C438   C485    1.416   .     A
C439   C591    1.418   .     A
C439   C496    1.416   .     A
C439   C42     1.424   1_655 S
C440   C650    1.415   .     A
C440   C592    1.415   .     A
C440   C467    1.423   .     A
C441   C537    1.491   .     S
C441   C443    1.416   .     A
C441   C146    1.402   1_655 S
C442   C593    1.423   .     A
C442   C1324   1.430   .     S
C443   C594    1.418   .     A
C443   C41     1.425   1_655 S
C444   C452    1.416   .     A
C444   C470    1.424   .     A
C444   C596    1.418   .     A
C445   C612    1.455   .     S
C445   C640    1.401   .     A
C445   C642    1.402   .     A
C446   C638    1.401   .     A
C446   C613    1.455   .     S
C446   C641    1.402   .     A
C447   C605    1.456   .     S
C447   C637    1.402   .     A
C447   C644    1.402   .     A
C448   C643    1.402   .     A
C448   C607    1.456   .     S
C448   C636    1.402   .     A
C449   C608    1.455   .     S
C449   C646    1.402   .     A
C449   C635    1.401   .     A
C450   C609    1.455   .     S
C450   C634    1.401   .     A
C450   C645    1.402   .     A
C451   C648    1.402   .     A
C451   C610    1.456   .     S
C451   C633    1.402   .     A
C452   C578    1.402   .     A
C452   C545    1.488   .     S
C453   C632    1.402   .     A
C453   C647    1.402   .     A
C453   C611    1.456   .     S
C454   C631    1.402   .     A
C454   C651    1.402   .     A
C454   C621    1.456   .     S
C455   C630    1.402   .     A
C455   C649    1.402   .     A
C455   C622    1.456   .     S
C456   C629    1.402   .     A
C456   C614    1.455   .     S
C456   C653    1.402   .     A
C457   C627    1.401   .     A
C457   C652    1.402   .     A
C457   C615    1.455   .     S
C458   C626    1.402   .     A
C458   C616    1.456   .     S
C458   C655    1.402   .     A
C459   C618    1.456   .     S
C459   C654    1.402   .     A
C459   C625    1.402   .     A
C460   C619    1.455   .     S
C460   C624    1.402   .     A
C460   C657    1.402   .     A
C461   C623    1.402   .     A
C461   C620    1.455   .     S
C461   C656    1.402   .     A
C462   C464    1.416   .     A
C462   C658    1.425   .     S
C463   C551    1.493   .     S
C463   C1408   1.404   .     S
C464   C659    1.425   .     S
C465   C660    1.425   .     A
C465   C466    1.416   .     A
C465   C1290   1.425   1_545 S
C466   C1291   1.425   1_545 S
C467   C1292   1.423   1_545 S
C467   C468    1.416   1_556 S
C468   C1298   1.430   1_545 S
C468   C467    1.416   1_554 S
C469   C470    1.415   1_556 S
C470   C469    1.415   1_554 S
C471   C472    1.408   .     A
C471   C477    1.405   .     A
C472   C473    1.398   .     A
C472   H288    1.083   1_655 S
C473   C475    1.398   .     A
C473   H717    1.082   .     S
C474   C558    1.489   .     S
C474   C563    1.400   .     A
C475   H718    1.082   .     S
C475   C476    1.398   .     A
C476   H719    1.082   .     S
C476   C477    1.399   .     A
C477   H720    1.083   .     S
C478   C540    1.491   .     S
C478   C479    1.408   .     A
C478   C483    1.405   .     A
C479   C480    1.398   .     A
C479   H293    1.083   1_655 S
C480   C481    1.397   .     A
C480   H722    1.082   .     S
C481   H724    1.082   .     S
C481   C482    1.398   .     A
C482   C483    1.399   .     A
C482   H725    1.082   .     S
C483   H726    1.083   .     S
C484   C490    1.405   .     A
C484   C584    1.491   .     S
C484   C486    1.408   .     A
C485   C565    1.491   .     S
C485   C574    1.402   .     A
C486   C487    1.398   .     A
C486   H1583   1.083   .     S
C487   H728    1.082   .     S
C487   C488    1.398   .     A
C488   C489    1.398   .     A
C488   H729    1.083   .     S
C489   C490    1.399   .     A
C489   H730    1.082   .     S
C490   H731    1.083   .     S
C491   C595    1.491   .     S
C491   C492    1.408   .     A
C491   C497    1.405   .     A
C492   C493    1.398   .     A
C492   H1588   1.083   .     S
C493   H733    1.082   .     S
C493   C494    1.397   .     A
C494   C495    1.398   .     A
C494   H735    1.082   .     S
C495   H736    1.082   .     S
C495   C497    1.399   .     A
C496   C571    1.488   .     S
C496   C150    1.402   1_655 S
C497   H737    1.083   .     S
C498   C503    1.405   .     A
C498   C499    1.408   .     A
C498   C606    1.491   .     S
C499   C500    1.398   .     A
C500   C501    1.397   .     A
C500   H739    1.082   .     S
C501   C502    1.398   .     A
C501   H740    1.083   .     S
C502   H741    1.082   .     S
C502   C503    1.399   .     A
C503   H742    1.083   .     S
C504   C505    1.408   .     A
C504   C510    1.405   .     A
C504   C617    1.491   .     S
C505   C506    1.398   .     A
C506   H744    1.082   .     S
C506   C508    1.398   .     A
C507   C599    1.452   .     S
C507   C606    1.403   .     S
C508   H746    1.082   .     S
C508   C509    1.398   .     A
C509   H747    1.082   .     S
C509   C510    1.399   .     A
C510   H748    1.083   .     S
C511   C516    1.405   .     A
C511   C512    1.408   .     A
C511   C628    1.491   .     S
C512   C513    1.398   .     A
C512   H1605   1.083   1_545 S
C513   C514    1.398   .     A
C513   H750    1.082   .     S
C514   H751    1.083   .     S
C514   C515    1.398   .     A
C515   C516    1.399   .     A
C515   H752    1.082   .     S
C516   H753    1.083   .     S
C517   C519    1.408   .     A
C517   C639    1.491   .     S
C517   C523    1.405   .     A
C518   C600    1.452   .     S
C518   C617    1.403   .     S
C519   C520    1.398   .     A
C519   H1610   1.083   1_545 S
C520   H755    1.082   .     S
C520   C521    1.398   .     A
C521   H757    1.082   .     S
C521   C522    1.398   .     A
C522   C523    1.399   .     A
C522   H758    1.082   .     S
C523   H759    1.083   .     S
C524   C530    1.405   .     A
C524   C525    1.408   .     A
C524   C650    1.493   .     S
C525   C526    1.398   .     A
C525   H760    1.083   .     S
C526   C527    1.397   .     A
C526   H761    1.082   .     S
C527   H762    1.082   .     S
C527   C528    1.398   .     A
C528   H763    1.082   .     S
C528   C530    1.399   .     A
C529   C628    1.403   .     A
C529   C1440   1.403   1_545 S
C529   C597    1.452   .     S
C530   H764    1.083   .     S
C531   C532    1.403   .     A
C531   C536    1.408   .     A
C532   C533    1.398   .     A
C532   H765    1.083   .     S
C533   C534    1.398   .     A
C533   H766    1.080   .     S
C534   C535    1.397   .     A
C534   H768    1.082   .     S
C535   C536    1.398   .     A
C535   H769    1.082   .     S
C536   H770    1.083   .     S
C537   C544    1.405   .     A
C537   C538    1.408   .     A
C538   C539    1.398   .     A
C538   H771    1.083   .     S
C539   C542    1.398   .     A
C539   H772    1.082   .     S
C540   C90     1.402   1_655 A
C541   C639    1.403   .     A
C541   C1451   1.403   1_545 S
C541   C598    1.452   .     S
C542   C543    1.398   .     A
C542   H773    1.082   .     S
C543   H774    1.082   .     S
C543   C544    1.399   .     A
C544   H775    1.083   .     S
C545   C550    1.403   .     A
C545   C546    1.408   .     A
C546   C547    1.398   .     A
C546   H776    1.083   .     S
C547   C548    1.397   .     A
C547   H777    1.082   .     S
C548   H779    1.081   .     S
C548   C549    1.398   .     A
C549   H780    1.081   .     S
C549   C550    1.397   .     A
C550   H781    1.083   .     S
C551   C553    1.408   .     A
C551   C557    1.405   .     A
C552   C650    1.404   .     A
C552   C1319   1.404   1_545 S
C552   C603    1.451   .     S
C553   C554    1.398   .     A
C553   H782    1.083   .     S
C554   C555    1.397   .     A
C554   H783    1.082   .     S
C555   H784    1.082   .     S
C555   C556    1.398   .     A
C556   C557    1.399   .     A
C556   H785    1.082   .     S
C557   H786    1.083   .     S
C558   C559    1.403   .     A
C558   C564    1.408   .     A
C559   H787    1.083   .     S
C559   C560    1.398   .     A
C560   H788    1.080   .     S
C560   C561    1.398   .     A
C561   H679    1.082   .     S
C561   C562    1.397   .     A
C562   H680    1.082   .     S
C562   C564    1.398   .     A
C563   C604    1.453   .     S
C563   C1286   1.400   1_545 S
C564   H681    1.083   .     S
C565   C570    1.405   .     A
C565   C566    1.408   .     A
C566   C567    1.398   .     A
C566   H682    1.083   .     S
C567   C568    1.398   .     A
C567   H683    1.082   .     S
C568   C569    1.398   .     A
C568   H684    1.082   .     S
C569   H685    1.082   .     S
C569   C570    1.399   .     A
C570   H686    1.083   .     S
C571   C572    1.408   .     A
C571   C577    1.403   .     A
C572   C573    1.398   .     A
C572   H687    1.083   .     S
C573   C575    1.397   .     A
C573   H688    1.082   .     S
C574   C601    1.451   .     S
C575   C576    1.398   .     A
C575   H690    1.081   .     S
C576   H691    1.081   .     S
C576   C577    1.397   .     A
C577   H692    1.083   .     S
C578   C602    1.454   .     S
C579   C658    1.418   .     A
C579   C585    1.398   .     A
C580   C583    1.398   .     A
C580   Cl669   1.777   .     S
C580   C231    1.418   1_655 S
C581   C660    1.418   .     A
C581   C1443   1.398   1_545 S
C581   Cl1526  1.777   1_545 S
C582   C1442   1.398   1_545 S
C582   Cl1527  1.777   1_545 S
C583   Cl244   1.777   1_655 S
C584   C1385   1.403   .     S
C585   Cl673   1.777   .     S
C586   C1438   1.398   .     S
C586   Cl1530  1.777   .     S
C587   C1437   1.398   .     S
C587   Cl1531  1.777   .     S
C588   Cl676   1.779   .     S
C588   C593    1.400   1_556 S
C589   Cl662   1.778   .     S
C589   C592    1.400   1_554 S
C590   Cl663   1.777   .     S
C590   C596    1.398   1_556 S
C591   Cl664   1.777   .     S
C591   C594    1.398   1_554 S
C592   Cl665   1.779   .     S
C592   C589    1.400   1_556 S
C593   Cl666   1.778   .     S
C593   C588    1.400   1_554 S
C594   Cl667   1.777   .     S
C594   C591    1.398   1_556 S
C595   C1397   1.403   .     S
C596   Cl668   1.777   .     S
C596   C590    1.398   1_554 S
C597   O1689   1.275   1_545 A
C597   O840    1.275   .     S
C598   O1646   1.275   1_545 A
C598   O837    1.275   .     S
C599   O838    1.275   .     A
C600   O792    1.275   .     S
C601   O797    1.274   .     A
C601   O793    1.274   .     S
C602   O794    1.276   .     S
C602   O798    1.276   .     S
C603   O795    1.275   .     S
C603   O799    1.275   .     S
C604   O796    1.274   .     S
C604   O801    1.274   .     S
C605   O802    1.281   .     A
C605   O830    1.281   .     A
C606   C658    1.416   .     A
C607   O831    1.281   .     A
C607   O803    1.281   .     A
C608   O828    1.281   .     A
C608   O804    1.281   .     A
C609   O829    1.281   .     A
C609   O805    1.281   .     A
C610   O806    1.281   .     A
C610   O835    1.281   .     A
C611   O807    1.281   .     A
C611   O836    1.281   .     A
C612   O832    1.281   .     A
C612   O808    1.281   .     A
C613   O809    1.281   .     A
C613   O834    1.281   .     A
C614   O821    1.281   .     A
C614   O810    1.281   .     A
C615   O823    1.281   .     A
C615   O812    1.281   .     A
C616   O819    1.281   .     A
C616   O813    1.281   .     A
C617   C659    1.416   .     A
C618   O814    1.281   .     A
C618   O820    1.281   .     A
C619   O826    1.281   .     A
C619   O815    1.281   .     A
C620   O827    1.281   .     A
C620   O816    1.281   .     A
C621   O824    1.281   .     A
C621   O817    1.281   .     A
C622   O825    1.281   .     A
C622   O818    1.281   .     A
C623   C640    1.386   .     A
C623   H677    1.083   .     S
C624   C638    1.386   .     A
C624   H701    1.083   .     S
C625   H712    1.083   .     S
C625   C637    1.386   .     A
C626   H723    1.083   .     S
C626   C636    1.386   .     A
C627   H734    1.083   .     S
C627   C635    1.386   .     A
C628   C660    1.416   .     A
C629   C634    1.386   .     A
C629   H745    1.083   .     S
C630   H756    1.083   .     S
C630   C633    1.386   .     A
C631   C632    1.386   .     A
C631   H767    1.083   .     S
C632   H778    1.083   .     S
C633   H678    1.083   .     S
C634   H689    1.083   .     S
C635   H693    1.083   .     S
C636   H694    1.083   .     S
C637   H695    1.083   .     S
C638   H696    1.083   .     S
C640   H697    1.083   .     S
C641   C657    1.386   .     A
C641   H698    1.083   .     S
C642   H699    1.083   .     S
C642   C656    1.386   .     A
C643   H700    1.083   .     S
C643   C655    1.386   .     A
C644   C654    1.386   .     A
C644   H702    1.083   .     S
C645   H703    1.083   .     S
C645   C653    1.386   .     A
C646   H704    1.083   .     S
C646   C652    1.386   .     A
C647   C651    1.386   .     A
C647   H705    1.083   .     S
C648   C649    1.386   .     A
C648   H706    1.083   .     S
C649   H707    1.083   .     S
C651   H708    1.083   .     S
C652   H709    1.083   .     S
C653   H710    1.083   .     S
C654   H711    1.083   .     S
C655   H713    1.083   .     S
C656   H714    1.083   .     S
C657   H715    1.083   .     S
Cl661  C151    1.777   1_655 S
Cl670  C1437   1.777   .     S
Cl671  C1438   1.777   .     S
Cl674  C1442   1.777   1_545 S
Cl675  C1443   1.777   1_545 S
H727   C1342   1.083   1_545 S
H732   C1348   1.083   1_545 S
H738   C71     1.083   1_655 S
H743   C77     1.083   1_655 S
H749   C1368   1.083   .     S
H754   C1375   1.083   .     S
O789   Zn1704  1.947   1_545 S
O789   Zn852   1.947   .     S
O789   Zn841   1.947   .     S
O789   Zn844   1.947   .     S
O790   C1454   1.275   .     A
O790   Zn843   1.945   .     S
O791   Zn846   1.945   .     S
O791   C171    1.275   1_655 S
O792   Zn845   1.945   .     S
O793   Zn855   1.945   .     S
O794   Zn854   1.945   .     S
O795   Zn849   1.945   .     S
O796   Zn841   1.945   .     S
O797   Zn851   1.945   .     S
O798   Zn850   1.945   .     S
O799   Zn853   1.945   .     S
O800   Zn853   1.947   .     S
O800   Zn1699  1.947   1_545 S
O800   Zn849   1.947   .     S
O800   Zn847   1.947   .     S
O801   Zn852   1.945   .     S
O802   Zn844   1.938   .     S
O803   Zn843   1.938   .     S
O804   Zn846   1.936   .     S
O805   Zn845   1.936   .     S
O806   Zn848   1.938   .     S
O807   Zn847   1.938   .     S
O808   Zn842   1.936   .     S
O809   Zn856   1.936   .     S
O810   Zn843   1.937   .     S
O811   Zn850   1.947   .     S
O811   Zn842   1.947   .     S
O811   Zn854   1.947   .     S
O812   Zn844   1.937   .     S
O813   Zn856   1.937   .     S
O814   Zn842   1.937   .     S
O815   Zn847   1.937   .     S
O816   Zn848   1.937   .     S
O817   Zn845   1.937   .     S
O818   Zn846   1.937   .     S
O819   Zn423   1.938   1_655 S
O820   Zn850   1.938   .     S
O821   Zn1709  1.936   .     S
O822   Zn845   1.947   .     S
O822   Zn851   1.947   .     S
O822   Zn855   1.947   .     S
O823   Zn852   1.936   .     S
O824   Zn855   1.938   .     S
O825   Zn426   1.938   1_655 S
O826   Zn849   1.936   .     S
O827   Zn1697  1.936   .     S
O828   Zn422   1.937   1_655 S
O829   Zn851   1.937   .     S
O830   Zn841   1.937   .     S
O831   Zn1705  1.937   .     S
O832   Zn854   1.937   .     S
O833   C1453   1.275   .     A
O833   Zn848   1.945   .     S
O834   Zn427   1.937   1_655 S
O835   Zn1708  1.937   .     S
O836   Zn853   1.937   .     S
O837   Zn847   1.945   .     S
O838   Zn842   1.945   .     S
O839   Zn856   1.945   .     S
O839   C172    1.275   1_655 A
O840   Zn844   1.945   .     S
Zn841  O1683   1.936   1_545 S
Zn843  O1656   1.947   .     S
Zn846  O383    1.947   1_655 S
Zn848  O1645   1.947   .     S
Zn849  O1687   1.937   1_545 S
Zn852  O1691   1.937   1_545 S
Zn853  O1677   1.936   1_545 S
Zn856  O394    1.947   1_655 S
C857   C1363   1.403   .     A
C857   C899    1.491   .     S
C857   C860    1.416   .     A
C858   C870    1.417   .     A
C858   C959    1.489   .     S
C858   C135    1.400   1_565 S
C859   C1067   1.416   .     A
C859   C1010   1.418   .     A
C859   C894    1.425   .     A
C860   C1318   1.425   .     A
C860   C1011   1.418   .     A
C861   C1320   1.425   .     A
C861   C968    1.416   .     A
C861   C1441   1.418   .     S
C862   C1014   1.418   .     A
C862   C1012   1.416   .     A
C862   C37     1.425   1_565 S
C863   C1015   1.418   .     A
C863   C1023   1.416   .     A
C863   C38     1.425   1_565 S
C864   C891    1.415   .     A
C864   C1016   1.415   .     A
C864   C39     1.423   1_565 S
C865   C902    1.417   .     A
C865   C1017   1.423   .     A
C865   C896    1.430   .     A
C866   C1018   1.418   .     A
C866   C897    1.425   .     A
C866   C913    1.416   .     A
C867   C1019   1.418   .     A
C867   C924    1.416   .     A
C867   C1326   1.424   .     S
C868   C1078   1.415   .     A
C868   C1020   1.415   .     A
C868   C895    1.423   .     A
C869   C965    1.491   .     S
C869   C871    1.416   .     A
C869   C1430   1.402   .     S
C870   C1021   1.423   .     A
C870   C40     1.430   1_565 S
C871   C1022   1.418   .     A
C871   C1325   1.425   .     S
C872   C880    1.416   .     A
C872   C898    1.424   .     A
C872   C1024   1.418   .     A
C873   C1040   1.455   .     S
C873   C1068   1.401   .     A
C873   C1070   1.402   .     A
C874   C1066   1.401   .     A
C874   C1041   1.455   .     S
C874   C1069   1.402   .     A
C875   C1033   1.456   .     S
C875   C1065   1.402   .     A
C875   C1072   1.402   .     A
C876   C1071   1.402   .     A
C876   C1035   1.456   .     S
C876   C1064   1.402   .     A
C877   C1036   1.455   .     S
C877   C1074   1.402   .     A
C877   C1063   1.401   .     A
C878   C1037   1.455   .     S
C878   C1062   1.401   .     A
C878   C1073   1.402   .     A
C879   C1076   1.402   .     A
C879   C1038   1.456   .     S
C879   C1061   1.402   .     A
C880   C1006   1.402   .     A
C880   C973    1.488   .     S
C881   C1060   1.402   .     A
C881   C1075   1.402   .     A
C881   C1039   1.456   .     S
C882   C1059   1.402   .     A
C882   C1079   1.402   .     A
C882   C1049   1.456   .     S
C883   C1058   1.402   .     A
C883   C1077   1.402   .     A
C883   C1050   1.456   .     S
C884   C1057   1.402   .     A
C884   C1042   1.455   .     S
C884   C1081   1.402   .     A
C885   C1055   1.401   .     A
C885   C1080   1.402   .     A
C885   C1043   1.455   .     S
C886   C1054   1.402   .     A
C886   C1044   1.456   .     S
C886   C1083   1.402   .     A
C887   C1046   1.456   .     S
C887   C1082   1.402   .     A
C887   C1053   1.402   .     A
C888   C1047   1.455   .     S
C888   C1052   1.402   .     A
C888   C1085   1.402   .     A
C889   C1051   1.402   .     A
C889   C1048   1.455   .     S
C889   C1084   1.402   .     A
C890   C1288   1.425   1_455 A
C890   C892    1.416   .     A
C890   C1086   1.425   .     S
C891   C979    1.493   .     S
C891   C124    1.404   1_565 S
C892   C1289   1.425   1_455 A
C892   C1087   1.425   .     S
C893   C1088   1.425   .     A
C893   C894    1.416   .     A
C895   C896    1.416   1_556 S
C896   C895    1.416   1_554 S
C897   C1299   1.425   1_455 S
C897   C898    1.415   1_556 S
C898   C1295   1.424   1_455 S
C898   C897    1.415   1_554 S
C899   C900    1.408   .     A
C899   C905    1.405   .     A
C900   C901    1.398   .     A
C900   H1572   1.083   .     S
C901   C903    1.398   .     A
C901   H1145   1.082   .     S
C902   C986    1.489   .     S
C902   C991    1.400   .     A
C903   H1146   1.082   .     S
C903   C904    1.398   .     A
C904   H1147   1.082   .     S
C904   C905    1.399   .     A
C905   H1148   1.083   .     S
C906   C968    1.491   .     S
C906   C907    1.408   .     A
C906   C911    1.405   .     A
C907   C908    1.398   .     A
C907   H1577   1.083   .     S
C908   C909    1.397   .     A
C908   H1150   1.082   .     S
C909   H1152   1.082   .     S
C909   C910    1.398   .     A
C910   C911    1.399   .     A
C910   H1153   1.082   .     S
C911   H1154   1.083   .     S
C912   C918    1.405   .     A
C912   C1012   1.491   .     S
C912   C914    1.408   .     A
C913   C993    1.491   .     S
C913   C1002   1.402   .     A
C914   C915    1.398   .     A
C914   H299    1.083   1_565 S
C915   H1156   1.082   .     S
C915   C916    1.398   .     A
C916   C917    1.398   .     A
C916   H1157   1.083   .     S
C917   C918    1.399   .     A
C917   H1158   1.082   .     S
C918   H1159   1.083   .     S
C919   C1023   1.491   .     S
C919   C920    1.408   .     A
C919   C925    1.405   .     A
C920   C921    1.398   .     A
C920   H304    1.083   1_565 S
C921   H1161   1.082   .     S
C921   C922    1.397   .     A
C922   C923    1.398   .     A
C922   H1163   1.082   .     S
C923   H1164   1.082   .     S
C923   C925    1.399   .     A
C924   C999    1.488   .     S
C924   C1434   1.402   .     S
C925   H1165   1.083   .     S
C926   C931    1.405   .     A
C926   C927    1.408   .     A
C926   C1034   1.491   .     S
C927   C928    1.398   .     A
C927   H1594   1.083   1_455 S
C928   C929    1.397   .     A
C928   H1167   1.082   .     S
C929   C930    1.398   .     A
C929   H1168   1.083   .     S
C930   H1169   1.082   .     S
C930   C931    1.399   .     A
C931   H1170   1.083   .     S
C932   C933    1.408   .     A
C932   C938    1.405   .     A
C932   C1045   1.491   .     S
C933   C934    1.398   .     A
C933   H1599   1.083   1_455 S
C934   H1172   1.082   .     S
C934   C936    1.398   .     A
C935   C1285   1.403   1_455 A
C935   C1027   1.452   .     S
C935   C1034   1.403   .     S
C936   H1174   1.082   .     S
C936   C937    1.398   .     A
C937   H1175   1.082   .     S
C937   C938    1.399   .     A
C938   H1176   1.083   .     S
C939   C944    1.405   .     A
C939   C940    1.408   .     A
C939   C1056   1.491   .     S
C940   C941    1.398   .     A
C941   C942    1.398   .     A
C941   H1178   1.082   .     S
C942   H1179   1.083   .     S
C942   C943    1.398   .     A
C943   C944    1.399   .     A
C943   H1180   1.082   .     S
C944   H1181   1.083   .     S
C945   C947    1.408   .     A
C945   C1067   1.491   .     S
C945   C951    1.405   .     A
C946   C1028   1.452   .     S
C946   C1396   1.402   1_455 A
C946   C1045   1.403   .     S
C947   C948    1.398   .     A
C948   H1183   1.082   .     S
C948   C949    1.398   .     A
C949   H1185   1.082   .     S
C949   C950    1.398   .     A
C950   C951    1.399   .     A
C950   H1186   1.082   .     S
C951   H1187   1.083   .     S
C952   C958    1.405   .     A
C952   C953    1.408   .     A
C952   C1078   1.493   .     S
C953   C954    1.398   .     A
C953   H1188   1.083   .     S
C954   C955    1.397   .     A
C954   H1189   1.082   .     S
C955   H1190   1.082   .     S
C955   C956    1.398   .     A
C956   H1191   1.082   .     S
C956   C958    1.399   .     A
C957   C1056   1.403   .     A
C957   C1025   1.452   .     S
C958   H1192   1.083   .     S
C959   C960    1.403   .     A
C959   C964    1.408   .     A
C960   C961    1.398   .     A
C960   H1193   1.083   .     S
C961   C962    1.398   .     A
C961   H1194   1.080   .     S
C962   C963    1.397   .     A
C962   H1196   1.082   .     S
C963   C964    1.398   .     A
C963   H1197   1.082   .     S
C964   H1198   1.083   .     S
C965   C972    1.405   .     A
C965   C966    1.408   .     A
C966   C967    1.398   .     A
C966   H1199   1.083   .     S
C967   C970    1.398   .     A
C967   H1200   1.082   .     S
C968   C1374   1.402   .     A
C969   C1067   1.403   .     A
C969   C1026   1.452   .     S
C970   C971    1.398   .     A
C970   H1201   1.082   .     S
C971   H1202   1.082   .     S
C971   C972    1.399   .     A
C972   H1203   1.083   .     S
C973   C978    1.403   .     A
C973   C974    1.408   .     A
C974   C975    1.398   .     A
C974   H1204   1.083   .     S
C975   C976    1.397   .     A
C975   H1205   1.082   .     S
C976   H1207   1.081   .     S
C976   C977    1.398   .     A
C977   H1208   1.081   .     S
C977   C978    1.397   .     A
C978   H1209   1.083   .     S
C979   C981    1.408   .     A
C979   C985    1.405   .     A
C980   C1078   1.404   .     A
C980   C1031   1.451   .     S
C981   C982    1.398   .     A
C981   H1210   1.083   .     S
C982   C983    1.397   .     A
C982   H1211   1.082   .     S
C983   H1212   1.082   .     S
C983   C984    1.398   .     A
C984   C985    1.399   .     A
C984   H1213   1.082   .     S
C985   H1214   1.083   .     S
C986   C987    1.403   .     A
C986   C992    1.408   .     A
C987   H1215   1.083   .     S
C987   C988    1.398   .     A
C988   H1216   1.080   .     S
C988   C989    1.398   .     A
C989   H1107   1.082   .     S
C989   C990    1.397   .     A
C990   H1108   1.082   .     S
C990   C992    1.398   .     A
C991   C1032   1.453   .     S
C992   H1109   1.083   .     S
C993   C998    1.405   .     A
C993   C994    1.408   .     A
C994   C995    1.398   .     A
C994   H1110   1.083   .     S
C995   C996    1.398   .     A
C995   H1111   1.082   .     S
C996   C997    1.398   .     A
C996   H1112   1.082   .     S
C997   H1113   1.082   .     S
C997   C998    1.399   .     A
C998   H1114   1.083   .     S
C999   C1000   1.408   .     A
C999   C1005   1.403   .     A
C1000  C1001   1.398   .     A
C1000  H1115   1.083   .     S
C1001  C1003   1.397   .     A
C1001  H1116   1.082   .     S
C1002  C1297   1.402   1_455 S
C1002  C1029   1.451   .     S
C1003  C1004   1.398   .     A
C1003  H1118   1.081   .     S
C1004  H1119   1.081   .     S
C1004  C1005   1.397   .     A
C1005  H1120   1.083   .     S
C1006  C1030   1.454   .     S
C1006  C1352   1.402   1_455 S
C1007  C1086   1.418   .     A
C1007  C1013   1.398   .     A
C1007  Cl1517  1.777   1_455 S
C1008  C1011   1.398   .     A
C1008  Cl1097  1.777   .     S
C1008  C1515   1.418   .     S
C1009  C1088   1.418   .     A
C1011  Cl1528  1.777   .     S
C1012  C101    1.403   1_565 S
C1013  Cl1101  1.777   .     S
C1013  C1289   1.418   1_455 S
C1014  C154    1.398   1_565 S
C1014  Cl246   1.777   1_565 S
C1015  C153    1.398   1_565 S
C1015  Cl247   1.777   1_565 S
C1016  Cl1104  1.779   .     S
C1016  C1021   1.400   1_556 S
C1017  Cl1090  1.778   .     S
C1017  C1020   1.400   1_554 S
C1018  Cl1091  1.777   .     S
C1018  C1024   1.398   1_556 S
C1019  Cl1092  1.777   .     S
C1019  C1022   1.398   1_554 S
C1020  Cl1093  1.779   .     S
C1020  C1017   1.400   1_556 S
C1021  Cl1094  1.778   .     S
C1021  C1016   1.400   1_554 S
C1022  Cl1095  1.777   .     S
C1022  C1019   1.398   1_556 S
C1023  C113    1.403   1_565 S
C1024  Cl1096  1.777   .     S
C1024  C1018   1.398   1_554 S
C1025  O1268   1.275   .     S
C1026  O1265   1.275   .     S
C1027  O1266   1.275   .     A
C1027  O1647   1.275   1_455 S
C1028  O1695   1.275   1_455 A
C1028  O1220   1.275   .     S
C1029  O1225   1.274   .     A
C1029  O1221   1.274   .     S
C1030  O1222   1.276   .     S
C1030  O1226   1.276   .     S
C1031  O1223   1.275   .     S
C1031  O1227   1.275   .     S
C1032  O1224   1.274   .     S
C1032  O1229   1.274   .     S
C1033  O1230   1.281   .     A
C1033  O1258   1.281   .     A
C1034  C1086   1.416   .     A
C1035  O1259   1.281   .     A
C1035  O1231   1.281   .     A
C1036  O1256   1.281   .     A
C1036  O1232   1.281   .     A
C1037  O1257   1.281   .     A
C1037  O1233   1.281   .     A
C1038  O1234   1.281   .     A
C1038  O1263   1.281   .     A
C1039  O1235   1.281   .     A
C1039  O1264   1.281   .     A
C1040  O1260   1.281   .     A
C1040  O1236   1.281   .     A
C1041  O1237   1.281   .     A
C1041  O1262   1.281   .     A
C1042  O1249   1.281   .     A
C1042  O1238   1.281   .     A
C1043  O1251   1.281   .     A
C1043  O1240   1.281   .     A
C1044  O1247   1.281   .     A
C1044  O1241   1.281   .     A
C1045  C1087   1.416   .     A
C1046  O1242   1.281   .     A
C1046  O1248   1.281   .     A
C1047  O1254   1.281   .     A
C1047  O1243   1.281   .     A
C1048  O1255   1.281   .     A
C1048  O1244   1.281   .     A
C1049  O1252   1.281   .     A
C1049  O1245   1.281   .     A
C1050  O1253   1.281   .     A
C1050  O1246   1.281   .     A
C1051  C1068   1.386   .     A
C1051  H1105   1.083   .     S
C1052  C1066   1.386   .     A
C1052  H1129   1.083   .     S
C1053  H1140   1.083   .     S
C1053  C1065   1.386   .     A
C1054  H1151   1.083   .     S
C1054  C1064   1.386   .     A
C1055  H1162   1.083   .     S
C1055  C1063   1.386   .     A
C1056  C1088   1.416   .     A
C1057  C1062   1.386   .     A
C1057  H1173   1.083   .     S
C1058  H1184   1.083   .     S
C1058  C1061   1.386   .     A
C1059  C1060   1.386   .     A
C1059  H1195   1.083   .     S
C1060  H1206   1.083   .     S
C1061  H1106   1.083   .     S
C1062  H1117   1.083   .     S
C1063  H1121   1.083   .     S
C1064  H1122   1.083   .     S
C1065  H1123   1.083   .     S
C1066  H1124   1.083   .     S
C1068  H1125   1.083   .     S
C1069  C1085   1.386   .     A
C1069  H1126   1.083   .     S
C1070  H1127   1.083   .     S
C1070  C1084   1.386   .     A
C1071  H1128   1.083   .     S
C1071  C1083   1.386   .     A
C1072  C1082   1.386   .     A
C1072  H1130   1.083   .     S
C1073  H1131   1.083   .     S
C1073  C1081   1.386   .     A
C1074  H1132   1.083   .     S
C1074  C1080   1.386   .     A
C1075  C1079   1.386   .     A
C1075  H1133   1.083   .     S
C1076  C1077   1.386   .     A
C1076  H1134   1.083   .     S
C1077  H1135   1.083   .     S
C1079  H1136   1.083   .     S
C1080  H1137   1.083   .     S
C1081  H1138   1.083   .     S
C1082  H1139   1.083   .     S
C1083  H1141   1.083   .     S
C1084  H1142   1.083   .     S
C1085  H1143   1.083   .     S
C1087  C1436   1.418   1_455 S
Cl1089 C1435   1.777   .     S
Cl1098 C153    1.777   1_565 S
Cl1099 C154    1.777   1_565 S
Cl1100 C1439   1.777   1_455 S
H1144  C1328   1.083   1_455 S
H1149  C1335   1.083   1_455 S
H1166  C1355   1.083   .     S
H1171  C1361   1.083   .     S
H1177  C84     1.083   1_565 S
H1182  C91     1.083   1_565 S
O1217  Zn1280  1.947   .     S
O1217  Zn1269  1.947   .     S
O1217  Zn1272  1.947   .     S
O1218  C170    1.275   1_565 A
O1218  Zn1271  1.945   .     S
O1219  Zn1274  1.945   .     S
O1219  C1455   1.275   .     S
O1220  Zn1273  1.945   .     S
O1221  Zn1283  1.945   .     S
O1222  Zn1282  1.945   .     S
O1223  Zn1277  1.945   .     S
O1224  Zn1269  1.945   .     S
O1225  Zn1279  1.945   .     S
O1226  Zn1278  1.945   .     S
O1227  Zn1281  1.945   .     S
O1228  Zn1281  1.947   .     S
O1228  Zn1277  1.947   .     S
O1228  Zn1275  1.947   .     S
O1229  Zn1280  1.945   .     S
O1230  Zn1272  1.938   .     S
O1231  Zn1271  1.938   .     S
O1232  Zn1274  1.936   .     S
O1233  Zn1273  1.936   .     S
O1234  Zn1276  1.938   .     S
O1235  Zn1275  1.938   .     S
O1236  Zn1270  1.936   .     S
O1237  Zn1284  1.936   .     S
O1238  Zn1271  1.937   .     S
O1239  Zn1278  1.947   .     S
O1239  Zn1702  1.947   1_455 S
O1239  Zn1270  1.947   .     S
O1239  Zn1282  1.947   .     S
O1240  Zn1272  1.937   .     S
O1241  Zn1284  1.937   .     S
O1242  Zn1270  1.937   .     S
O1243  Zn1275  1.937   .     S
O1244  Zn1276  1.937   .     S
O1245  Zn1273  1.937   .     S
O1246  Zn1274  1.937   .     S
O1247  Zn1707  1.938   .     S
O1248  Zn1278  1.938   .     S
O1249  Zn425   1.936   1_565 S
O1250  Zn1273  1.947   .     S
O1250  Zn1279  1.947   .     S
O1250  Zn1283  1.947   .     S
O1250  Zn1712  1.947   1_455 S
O1251  Zn1280  1.936   .     S
O1252  Zn1283  1.938   .     S
O1253  Zn1710  1.938   .     S
O1254  Zn1277  1.936   .     S
O1255  Zn413   1.936   1_565 S
O1256  Zn1706  1.937   .     S
O1257  Zn1279  1.937   .     S
O1258  Zn1269  1.937   .     S
O1259  Zn421   1.937   1_565 S
O1260  Zn1282  1.937   .     S
O1261  C169    1.275   1_565 A
O1261  Zn1276  1.945   .     S
O1262  Zn1711  1.937   .     S
O1263  Zn424   1.937   1_565 S
O1264  Zn1281  1.937   .     S
O1265  Zn1275  1.945   .     S
O1266  Zn1270  1.945   .     S
O1267  Zn1284  1.945   .     S
O1267  C1456   1.275   .     A
O1268  Zn1272  1.945   .     S
Zn1271 O372    1.947   1_565 S
Zn1274 O1667   1.947   .     S
Zn1276 O361    1.947   1_565 S
Zn1278 O1684   1.937   1_455 S
Zn1279 O1675   1.938   1_455 S
Zn1282 O1681   1.938   1_455 S
Zn1283 O1690   1.937   1_455 S
Zn1284 O1678   1.947   .     S
C1285  C935    1.403   1_655 A
C1285  C1327   1.491   .     S
C1285  C1288   1.416   .     A
C1286  C1298   1.417   .     A
C1286  C1387   1.489   .     S
C1286  C563    1.400   1_565 S
C1287  C1495   1.416   .     A
C1287  C1438   1.418   .     A
C1287  C1322   1.425   .     A
C1288  C890    1.425   1_655 A
C1288  C1439   1.418   .     A
C1289  C892    1.425   1_655 A
C1289  C1396   1.416   .     A
C1289  C1013   1.418   1_655 S
C1290  C1442   1.418   .     A
C1290  C1440   1.416   .     A
C1290  C465    1.425   1_565 S
C1291  C1443   1.418   .     A
C1291  C1451   1.416   .     A
C1291  C466    1.425   1_565 S
C1292  C1319   1.415   .     A
C1292  C1444   1.415   .     A
C1292  C467    1.423   1_565 S
C1293  C1330   1.417   .     A
C1293  C1445   1.423   .     A
C1293  C1324   1.430   .     A
C1294  C1446   1.418   .     A
C1294  C1325   1.425   .     A
C1294  C1341   1.416   .     A
C1295  C1447   1.418   .     A
C1295  C1352   1.416   .     A
C1295  C898    1.424   1_655 S
C1296  C1506   1.415   .     A
C1296  C1448   1.415   .     A
C1296  C1323   1.423   .     A
C1297  C1393   1.491   .     S
C1297  C1299   1.416   .     A
C1297  C1002   1.402   1_655 S
C1298  C1449   1.423   .     A
C1298  C468    1.430   1_565 S
C1299  C1450   1.418   .     A
C1299  C897    1.425   1_655 S
C1300  C1308   1.416   .     A
C1300  C1326   1.424   .     A
C1300  C1452   1.418   .     A
C1301  C1468   1.455   .     S
C1301  C1496   1.401   .     A
C1301  C1498   1.402   .     A
C1302  C1494   1.401   .     A
C1302  C1469   1.455   .     S
C1302  C1497   1.402   .     A
C1303  C1461   1.456   .     S
C1303  C1493   1.402   .     A
C1303  C1500   1.402   .     A
C1304  C1499   1.402   .     A
C1304  C1463   1.456   .     S
C1304  C1492   1.402   .     A
C1305  C1464   1.455   .     S
C1305  C1502   1.402   .     A
C1305  C1491   1.401   .     A
C1306  C1465   1.455   .     S
C1306  C1490   1.401   .     A
C1306  C1501   1.402   .     A
C1307  C1504   1.402   .     A
C1307  C1466   1.456   .     S
C1307  C1489   1.402   .     A
C1308  C1434   1.402   .     A
C1308  C1401   1.488   .     S
C1309  C1488   1.402   .     A
C1309  C1503   1.402   .     A
C1309  C1467   1.456   .     S
C1310  C1487   1.402   .     A
C1310  C1507   1.402   .     A
C1310  C1477   1.456   .     S
C1311  C1486   1.402   .     A
C1311  C1505   1.402   .     A
C1311  C1478   1.456   .     S
C1312  C1485   1.402   .     A
C1312  C1470   1.455   .     S
C1312  C1509   1.402   .     A
C1313  C1483   1.401   .     A
C1313  C1508   1.402   .     A
C1313  C1471   1.455   .     S
C1314  C1482   1.402   .     A
C1314  C1472   1.456   .     S
C1314  C1511   1.402   .     A
C1315  C1474   1.456   .     S
C1315  C1510   1.402   .     A
C1315  C1481   1.402   .     A
C1316  C1475   1.455   .     S
C1316  C1480   1.402   .     A
C1316  C1513   1.402   .     A
C1317  C1479   1.402   .     A
C1317  C1476   1.455   .     S
C1317  C1512   1.402   .     A
C1318  C1320   1.416   .     A
C1318  C1514   1.425   .     S
C1319  C1407   1.493   .     S
C1319  C552    1.404   1_565 S
C1320  C1515   1.425   .     S
C1321  C1516   1.425   .     A
C1321  C1322   1.416   .     A
C1323  C1324   1.416   1_556 S
C1324  C1323   1.416   1_554 S
C1325  C1326   1.415   1_556 S
C1326  C1325   1.415   1_554 S
C1327  C1328   1.408   .     A
C1327  C1333   1.405   .     A
C1328  C1329   1.398   .     A
C1328  H1144   1.083   1_655 S
C1329  C1331   1.398   .     A
C1329  H1573   1.082   .     S
C1330  C1414   1.489   .     S
C1330  C1419   1.400   .     A
C1331  H1574   1.082   .     S
C1331  C1332   1.398   .     A
C1332  H1575   1.082   .     S
C1332  C1333   1.399   .     A
C1333  H1576   1.083   .     S
C1334  C1396   1.491   .     S
C1334  C1335   1.408   .     A
C1334  C1339   1.405   .     A
C1335  C1336   1.398   .     A
C1335  H1149   1.083   1_655 S
C1336  C1337   1.397   .     A
C1336  H1578   1.082   .     S
C1337  H1580   1.082   .     S
C1337  C1338   1.398   .     A
C1338  C1339   1.399   .     A
C1338  H1581   1.082   .     S
C1339  H1582   1.083   .     S
C1340  C1346   1.405   .     A
C1340  C1440   1.491   .     S
C1340  C1342   1.408   .     A
C1341  C1421   1.491   .     S
C1341  C1430   1.402   .     A
C1342  C1343   1.398   .     A
C1342  H727    1.083   1_565 S
C1343  H1584   1.082   .     S
C1343  C1344   1.398   .     A
C1344  C1345   1.398   .     A
C1344  H1585   1.083   .     S
C1345  C1346   1.399   .     A
C1345  H1586   1.082   .     S
C1346  H1587   1.083   .     S
C1347  C1451   1.491   .     S
C1347  C1348   1.408   .     A
C1347  C1353   1.405   .     A
C1348  C1349   1.398   .     A
C1348  H732    1.083   1_565 S
C1349  H1589   1.082   .     S
C1349  C1350   1.397   .     A
C1350  C1351   1.398   .     A
C1350  H1591   1.082   .     S
C1351  H1592   1.082   .     S
C1351  C1353   1.399   .     A
C1352  C1427   1.488   .     S
C1352  C1006   1.402   1_655 S
C1353  H1593   1.083   .     S
C1354  C1359   1.405   .     A
C1354  C1355   1.408   .     A
C1354  C1462   1.491   .     S
C1355  C1356   1.398   .     A
C1356  C1357   1.397   .     A
C1356  H1595   1.082   .     S
C1357  C1358   1.398   .     A
C1357  H1596   1.083   .     S
C1358  H1597   1.082   .     S
C1358  C1359   1.399   .     A
C1359  H1598   1.083   .     S
C1360  C1361   1.408   .     A
C1360  C1366   1.405   .     A
C1360  C1473   1.491   .     S
C1361  C1362   1.398   .     A
C1362  H1600   1.082   .     S
C1362  C1364   1.398   .     A
C1363  C1455   1.452   .     S
C1363  C1462   1.403   .     S
C1364  H1602   1.082   .     S
C1364  C1365   1.398   .     A
C1365  H1603   1.082   .     S
C1365  C1366   1.399   .     A
C1366  H1604   1.083   .     S
C1367  C1372   1.405   .     A
C1367  C1368   1.408   .     A
C1367  C1484   1.491   .     S
C1368  C1369   1.398   .     A
C1369  C1370   1.398   .     A
C1369  H1606   1.082   .     S
C1370  H1607   1.083   .     S
C1370  C1371   1.398   .     A
C1371  C1372   1.399   .     A
C1371  H1608   1.082   .     S
C1372  H1609   1.083   .     S
C1373  C1375   1.408   .     A
C1373  C1495   1.491   .     S
C1373  C1379   1.405   .     A
C1374  C1456   1.452   .     S
C1374  C1473   1.403   .     S
C1375  C1376   1.398   .     A
C1376  H1611   1.082   .     S
C1376  C1377   1.398   .     A
C1377  H1613   1.082   .     S
C1377  C1378   1.398   .     A
C1378  C1379   1.399   .     A
C1378  H1614   1.082   .     S
C1379  H1615   1.083   .     S
C1380  C1386   1.405   .     A
C1380  C1381   1.408   .     A
C1380  C1506   1.493   .     S
C1381  C1382   1.398   .     A
C1381  H1616   1.083   .     S
C1382  C1383   1.397   .     A
C1382  H1617   1.082   .     S
C1383  H1618   1.082   .     S
C1383  C1384   1.398   .     A
C1384  H1619   1.082   .     S
C1384  C1386   1.399   .     A
C1385  C1484   1.403   .     A
C1385  C1453   1.452   .     S
C1386  H1620   1.083   .     S
C1387  C1388   1.403   .     A
C1387  C1392   1.408   .     A
C1388  C1389   1.398   .     A
C1388  H1621   1.083   .     S
C1389  C1390   1.398   .     A
C1389  H1622   1.080   .     S
C1390  C1391   1.397   .     A
C1390  H1624   1.082   .     S
C1391  C1392   1.398   .     A
C1391  H1625   1.082   .     S
C1392  H1626   1.083   .     S
C1393  C1400   1.405   .     A
C1393  C1394   1.408   .     A
C1394  C1395   1.398   .     A
C1394  H1627   1.083   .     S
C1395  C1398   1.398   .     A
C1395  H1628   1.082   .     S
C1396  C946    1.402   1_655 A
C1397  C1495   1.403   .     A
C1397  C1454   1.452   .     S
C1398  C1399   1.398   .     A
C1398  H1629   1.082   .     S
C1399  H1630   1.082   .     S
C1399  C1400   1.399   .     A
C1400  H1631   1.083   .     S
C1401  C1406   1.403   .     A
C1401  C1402   1.408   .     A
C1402  C1403   1.398   .     A
C1402  H1632   1.083   .     S
C1403  C1404   1.397   .     A
C1403  H1633   1.082   .     S
C1404  H1635   1.081   .     S
C1404  C1405   1.398   .     A
C1405  H1636   1.081   .     S
C1405  C1406   1.397   .     A
C1406  H1637   1.083   .     S
C1407  C1409   1.408   .     A
C1407  C1413   1.405   .     A
C1408  C1506   1.404   .     A
C1408  C1459   1.451   .     S
C1409  C1410   1.398   .     A
C1409  H1638   1.083   .     S
C1410  C1411   1.397   .     A
C1410  H1639   1.082   .     S
C1411  H1640   1.082   .     S
C1411  C1412   1.398   .     A
C1412  C1413   1.399   .     A
C1412  H1641   1.082   .     S
C1413  H1642   1.083   .     S
C1414  C1415   1.403   .     A
C1414  C1420   1.408   .     A
C1415  H1643   1.083   .     S
C1415  C1416   1.398   .     A
C1416  H1644   1.080   .     S
C1416  C1417   1.398   .     A
C1417  H1535   1.082   .     S
C1417  C1418   1.397   .     A
C1418  H1536   1.082   .     S
C1418  C1420   1.398   .     A
C1419  C1460   1.453   .     S
C1420  H1537   1.083   .     S
C1421  C1426   1.405   .     A
C1421  C1422   1.408   .     A
C1422  C1423   1.398   .     A
C1422  H1538   1.083   .     S
C1423  C1424   1.398   .     A
C1423  H1539   1.082   .     S
C1424  C1425   1.398   .     A
C1424  H1540   1.082   .     S
C1425  H1541   1.082   .     S
C1425  C1426   1.399   .     A
C1426  H1542   1.083   .     S
C1427  C1428   1.408   .     A
C1427  C1433   1.403   .     A
C1428  C1429   1.398   .     A
C1428  H1543   1.083   .     S
C1429  C1431   1.397   .     A
C1429  H1544   1.082   .     S
C1430  C1457   1.451   .     S
C1431  C1432   1.398   .     A
C1431  H1546   1.081   .     S
C1432  H1547   1.081   .     S
C1432  C1433   1.397   .     A
C1433  H1548   1.083   .     S
C1434  C1458   1.454   .     S
C1435  C1514   1.418   .     A
C1435  C1441   1.398   .     A
C1436  C1439   1.398   .     A
C1436  Cl1525  1.777   .     S
C1436  C1087   1.418   1_655 S
C1437  C1516   1.418   .     A
C1439  Cl1100  1.777   1_655 S
C1440  C529    1.403   1_565 S
C1441  Cl1529  1.777   .     S
C1442  C582    1.398   1_565 S
C1442  Cl674   1.777   1_565 S
C1443  C581    1.398   1_565 S
C1443  Cl675   1.777   1_565 S
C1444  Cl1532  1.779   .     S
C1444  C1449   1.400   1_556 S
C1445  Cl1518  1.778   .     S
C1445  C1448   1.400   1_554 S
C1446  Cl1519  1.777   .     S
C1446  C1452   1.398   1_556 S
C1447  Cl1520  1.777   .     S
C1447  C1450   1.398   1_554 S
C1448  Cl1521  1.779   .     S
C1448  C1445   1.400   1_556 S
C1449  Cl1522  1.778   .     S
C1449  C1444   1.400   1_554 S
C1450  Cl1523  1.777   .     S
C1450  C1447   1.398   1_556 S
C1451  C541    1.403   1_565 S
C1452  Cl1524  1.777   .     S
C1452  C1446   1.398   1_554 S
C1453  O1696   1.275   .     S
C1454  O1693   1.275   .     S
C1455  O1694   1.275   .     A
C1456  O1648   1.275   .     S
C1457  O1653   1.274   .     A
C1457  O1649   1.274   .     S
C1458  O1650   1.276   .     S
C1458  O1654   1.276   .     S
C1459  O1651   1.275   .     S
C1459  O1655   1.275   .     S
C1460  O1652   1.274   .     S
C1460  O1657   1.274   .     S
C1461  O1658   1.281   .     A
C1461  O1686   1.281   .     A
C1462  C1514   1.416   .     A
C1463  O1687   1.281   .     A
C1463  O1659   1.281   .     A
C1464  O1684   1.281   .     A
C1464  O1660   1.281   .     A
C1465  O1685   1.281   .     A
C1465  O1661   1.281   .     A
C1466  O1662   1.281   .     A
C1466  O1691   1.281   .     A
C1467  O1663   1.281   .     A
C1467  O1692   1.281   .     A
C1468  O1688   1.281   .     A
C1468  O1664   1.281   .     A
C1469  O1665   1.281   .     A
C1469  O1690   1.281   .     A
C1470  O1677   1.281   .     A
C1470  O1666   1.281   .     A
C1471  O1679   1.281   .     A
C1471  O1668   1.281   .     A
C1472  O1675   1.281   .     A
C1472  O1669   1.281   .     A
C1473  C1515   1.416   .     A
C1474  O1670   1.281   .     A
C1474  O1676   1.281   .     A
C1475  O1682   1.281   .     A
C1475  O1671   1.281   .     A
C1476  O1683   1.281   .     A
C1476  O1672   1.281   .     A
C1477  O1680   1.281   .     A
C1477  O1673   1.281   .     A
C1478  O1681   1.281   .     A
C1478  O1674   1.281   .     A
C1479  C1496   1.386   .     A
C1479  H1533   1.083   .     S
C1480  C1494   1.386   .     A
C1480  H1557   1.083   .     S
C1481  H1568   1.083   .     S
C1481  C1493   1.386   .     A
C1482  H1579   1.083   .     S
C1482  C1492   1.386   .     A
C1483  H1590   1.083   .     S
C1483  C1491   1.386   .     A
C1484  C1516   1.416   .     A
C1485  C1490   1.386   .     A
C1485  H1601   1.083   .     S
C1486  H1612   1.083   .     S
C1486  C1489   1.386   .     A
C1487  C1488   1.386   .     A
C1487  H1623   1.083   .     S
C1488  H1634   1.083   .     S
C1489  H1534   1.083   .     S
C1490  H1545   1.083   .     S
C1491  H1549   1.083   .     S
C1492  H1550   1.083   .     S
C1493  H1551   1.083   .     S
C1494  H1552   1.083   .     S
C1496  H1553   1.083   .     S
C1497  C1513   1.386   .     A
C1497  H1554   1.083   .     S
C1498  H1555   1.083   .     S
C1498  C1512   1.386   .     A
C1499  H1556   1.083   .     S
C1499  C1511   1.386   .     A
C1500  C1510   1.386   .     A
C1500  H1558   1.083   .     S
C1501  H1559   1.083   .     S
C1501  C1509   1.386   .     A
C1502  H1560   1.083   .     S
C1502  C1508   1.386   .     A
C1503  C1507   1.386   .     A
C1503  H1561   1.083   .     S
C1504  C1505   1.386   .     A
C1504  H1562   1.083   .     S
C1505  H1563   1.083   .     S
C1507  H1564   1.083   .     S
C1508  H1565   1.083   .     S
C1509  H1566   1.083   .     S
C1510  H1567   1.083   .     S
C1511  H1569   1.083   .     S
C1512  H1570   1.083   .     S
C1513  H1571   1.083   .     S
Cl1517 C1007   1.777   1_655 S
Cl1526 C581    1.777   1_565 S
Cl1527 C582    1.777   1_565 S
H1594  C927    1.083   1_655 S
H1599  C933    1.083   1_655 S
H1605  C512    1.083   1_565 S
H1610  C519    1.083   1_565 S
O1645  Zn1708  1.947   .     S
O1645  Zn1697  1.947   .     S
O1645  Zn1700  1.947   .     S
O1646  C598    1.275   1_565 A
O1646  Zn1699  1.945   .     S
O1647  Zn1702  1.945   .     S
O1647  C1027   1.275   1_655 S
O1648  Zn1701  1.945   .     S
O1649  Zn1711  1.945   .     S
O1650  Zn1710  1.945   .     S
O1651  Zn1705  1.945   .     S
O1652  Zn1697  1.945   .     S
O1653  Zn1707  1.945   .     S
O1654  Zn1706  1.945   .     S
O1655  Zn1709  1.945   .     S
O1656  Zn1709  1.947   .     S
O1656  Zn1705  1.947   .     S
O1656  Zn1703  1.947   .     S
O1657  Zn1708  1.945   .     S
O1658  Zn1700  1.938   .     S
O1659  Zn1699  1.938   .     S
O1660  Zn1702  1.936   .     S
O1661  Zn1701  1.936   .     S
O1662  Zn1704  1.938   .     S
O1663  Zn1703  1.938   .     S
O1664  Zn1698  1.936   .     S
O1665  Zn1712  1.936   .     S
O1666  Zn1699  1.937   .     S
O1667  Zn1706  1.947   .     S
O1667  Zn1698  1.947   .     S
O1667  Zn1710  1.947   .     S
O1668  Zn1700  1.937   .     S
O1669  Zn1712  1.937   .     S
O1670  Zn1698  1.937   .     S
O1671  Zn1703  1.937   .     S
O1672  Zn1704  1.937   .     S
O1673  Zn1701  1.937   .     S
O1674  Zn1702  1.937   .     S
O1675  Zn1279  1.938   1_655 S
O1676  Zn1706  1.938   .     S
O1677  Zn853   1.936   1_565 S
O1678  Zn1701  1.947   .     S
O1678  Zn1707  1.947   .     S
O1678  Zn1711  1.947   .     S
O1679  Zn1708  1.936   .     S
O1680  Zn1711  1.938   .     S
O1681  Zn1282  1.938   1_655 S
O1682  Zn1705  1.936   .     S
O1683  Zn841   1.936   1_565 S
O1684  Zn1278  1.937   1_655 S
O1685  Zn1707  1.937   .     S
O1686  Zn1697  1.937   .     S
O1687  Zn849   1.937   1_565 S
O1688  Zn1710  1.937   .     S
O1689  C597    1.275   1_565 A
O1689  Zn1704  1.945   .     S
O1690  Zn1283  1.937   1_655 S
O1691  Zn852   1.937   1_565 S
O1692  Zn1709  1.937   .     S
O1693  Zn1703  1.945   .     S
O1694  Zn1698  1.945   .     S
O1695  Zn1712  1.945   .     S
O1695  C1028   1.275   1_655 A
O1696  Zn1700  1.945   .     S
Zn1699 O800    1.947   1_565 S
Zn1702 O1239   1.947   1_655 S
Zn1704 O789    1.947   1_565 S
Zn1712 O1250   1.947   1_655 S
