data_str_m1_o1_o17_pcu_sym.95
_audit_creation_date              2020-01-03
_audit_creation_method            'Materials Studio'
_symmetry_space_group_name_H-M    'P1'
_symmetry_Int_Tables_number       1
_symmetry_cell_setting            triclinic
loop_
_symmetry_equiv_pos_as_xyz
  x,y,z
_cell_length_a                    36.5503
_cell_length_b                    36.5504
_cell_length_c                    34.5540
_cell_angle_alpha                 89.8552
_cell_angle_beta                  89.8555
_cell_angle_gamma                 89.7895
loop_
_atom_site_label
_atom_site_type_symbol
_atom_site_fract_x
_atom_site_fract_y
_atom_site_fract_z
_atom_site_U_iso_or_equiv
_atom_site_adp_type
_atom_site_occupancy
C1     C     0.47258   0.26944   0.41870   0.00000  Uiso   1.00
C2     C     0.27743   0.48059   0.08130   0.00000  Uiso   1.00
C3     C     0.22862   0.02589   0.54073   0.00000  Uiso   1.00
C4     C     0.47414   0.27142   0.45927   0.00000  Uiso   1.00
C5     C     0.02586   0.22858   0.54073   0.00000  Uiso   1.00
C6     C     0.22850   0.02578   0.45925   0.00000  Uiso   1.00
C7     C     0.27150   0.47422   0.54075   0.00000  Uiso   1.00
C8     C     0.27577   0.47849   0.95925   0.00000  Uiso   1.00
C9     C     0.22423   0.02151   0.04075   0.00000  Uiso   1.00
C10    C     0.02137   0.22410   0.95927   0.00000  Uiso   1.00
C11    C     0.47863   0.27590   0.04073   0.00000  Uiso   1.00
C12    C     0.22412   0.02139   0.95927   0.00000  Uiso   1.00
C13    C     0.48042   0.27728   0.91866   0.00000  Uiso   1.00
C14    C     0.27588   0.47861   0.04073   0.00000  Uiso   1.00
C15    C     0.47852   0.27579   0.95925   0.00000  Uiso   1.00
C16    C     0.02149   0.22421   0.04075   0.00000  Uiso   1.00
C17    C     0.09797   0.34818   0.24914   0.00000  Uiso   1.00
C18    C     0.40203   0.15182   0.75086   0.00000  Uiso   1.00
C19    C     0.15196   0.09804   0.25000   0.00000  Uiso   1.00
C20    C     0.34804   0.40196   0.75000   0.00000  Uiso   1.00
C21    C     0.40182   0.15203   0.25086   0.00000  Uiso   1.00
C22    C     0.09818   0.34797   0.74914   0.00000  Uiso   1.00
C23    C     0.34805   0.40195   0.25000   0.00000  Uiso   1.00
C24    C     0.01958   0.22272   0.08134   0.00000  Uiso   1.00
C25    C     0.15195   0.09805   0.75000   0.00000  Uiso   1.00
C26    C     0.09805   0.15195   0.75000   0.00000  Uiso   1.00
C27    C     0.40195   0.34805   0.25000   0.00000  Uiso   1.00
C28    C     0.15182   0.40203   0.75086   0.00000  Uiso   1.00
C29    C     0.34818   0.09797   0.24914   0.00000  Uiso   1.00
C30    C     0.40196   0.34804   0.75000   0.00000  Uiso   1.00
C31    C     0.09804   0.15196   0.25000   0.00000  Uiso   1.00
C32    C     0.34797   0.09818   0.74914   0.00000  Uiso   1.00
C33    C     0.15203   0.40182   0.25086   0.00000  Uiso   1.00
C34    C     0.49997   0.24997   0.47959   0.00000  Uiso   1.00
C35    C     0.27726   0.48039   0.91866   0.00000  Uiso   1.00
C36    C     0.00002   0.25003   0.52041   0.00000  Uiso   1.00
C37    C     0.24997   0.49997   0.47959   0.00000  Uiso   1.00
C38    C     0.25003   0.00003   0.52041   0.00000  Uiso   1.00
C39    C     0.24997   0.49997   0.97959   0.00000  Uiso   1.00
C40    C     0.25003   0.00003   0.02041   0.00000  Uiso   1.00
C41    C     0.49997   0.24997   0.97959   0.00000  Uiso   1.00
C42    C     0.00003   0.25003   0.02041   0.00000  Uiso   1.00
C43    C     0.10489   0.45091   0.26427   0.00000  Uiso   1.00
C44    C     0.39512   0.04909   0.73573   0.00000  Uiso   1.00
C45    C     0.06579   0.12258   0.30618   0.00000  Uiso   1.00
C46    C     0.22274   0.01960   0.08134   0.00000  Uiso   1.00
C47    C     0.43421   0.37742   0.69382   0.00000  Uiso   1.00
C48    C     0.39506   0.04928   0.26333   0.00000  Uiso   1.00
C49    C     0.10494   0.45072   0.73667   0.00000  Uiso   1.00
C50    C     0.43393   0.37714   0.30621   0.00000  Uiso   1.00
C51    C     0.06607   0.12287   0.69379   0.00000  Uiso   1.00
C52    C     0.12288   0.06608   0.69378   0.00000  Uiso   1.00
C53    C     0.37712   0.43392   0.30622   0.00000  Uiso   1.00
C54    C     0.04909   0.39512   0.73573   0.00000  Uiso   1.00
C55    C     0.45091   0.10488   0.26427   0.00000  Uiso   1.00
C56    C     0.37742   0.43421   0.69382   0.00000  Uiso   1.00
C57    C     0.01939   0.22255   0.91870   0.00000  Uiso   1.00
C58    C     0.12259   0.06579   0.30619   0.00000  Uiso   1.00
C59    C     0.45072   0.10494   0.73666   0.00000  Uiso   1.00
C60    C     0.04928   0.39506   0.26334   0.00000  Uiso   1.00
C61    C     0.35489   0.20091   0.76427   0.00000  Uiso   1.00
C62    C     0.14512   0.29909   0.23573   0.00000  Uiso   1.00
C63    C     0.31579   0.37258   0.80618   0.00000  Uiso   1.00
C64    C     0.18421   0.12742   0.19382   0.00000  Uiso   1.00
C65    C     0.14506   0.29928   0.76334   0.00000  Uiso   1.00
C66    C     0.35494   0.20072   0.23667   0.00000  Uiso   1.00
C67    C     0.18392   0.12713   0.80622   0.00000  Uiso   1.00
C68    C     0.48061   0.27745   0.08130   0.00000  Uiso   1.00
C69    C     0.31608   0.37287   0.19378   0.00000  Uiso   1.00
C70    C     0.37288   0.31608   0.19378   0.00000  Uiso   1.00
C71    C     0.12712   0.18392   0.80623   0.00000  Uiso   1.00
C72    C     0.29909   0.14512   0.23573   0.00000  Uiso   1.00
C73    C     0.20091   0.35488   0.76427   0.00000  Uiso   1.00
C74    C     0.12741   0.18421   0.19381   0.00000  Uiso   1.00
C75    C     0.37259   0.31579   0.80619   0.00000  Uiso   1.00
C76    C     0.20072   0.35494   0.23666   0.00000  Uiso   1.00
C77    C     0.29928   0.14506   0.76334   0.00000  Uiso   1.00
C78    C     0.41348   0.26861   0.39815   0.00000  Uiso   1.00
C79    C     0.49991   0.24991   0.39842   0.00000  Uiso   1.00
C80    C     0.08652   0.23140   0.60185   0.00000  Uiso   1.00
C81    C     0.23124   0.08640   0.39779   0.00000  Uiso   1.00
C82    C     0.26876   0.41360   0.60221   0.00000  Uiso   1.00
C83    C     0.08638   0.23111   0.39782   0.00000  Uiso   1.00
C84    C     0.41363   0.26890   0.60221   0.00000  Uiso   1.00
C85    C     0.26847   0.41345   0.39815   0.00000  Uiso   1.00
C86    C     0.23152   0.08655   0.60185   0.00000  Uiso   1.00
C87    C     0.16346   0.01852   0.89815   0.00000  Uiso   1.00
C88    C     0.33654   0.48148   0.10185   0.00000  Uiso   1.00
C89    C     0.48129   0.33640   0.89779   0.00000  Uiso   1.00
C90    C     0.00009   0.25009   0.60158   0.00000  Uiso   1.00
C91    C     0.01873   0.16360   0.10221   0.00000  Uiso   1.00
C92    C     0.33639   0.48119   0.89779   0.00000  Uiso   1.00
C93    C     0.16361   0.01881   0.10221   0.00000  Uiso   1.00
C94    C     0.01843   0.16344   0.89815   0.00000  Uiso   1.00
C95    C     0.48156   0.33655   0.10185   0.00000  Uiso   1.00
C96    C     0.24991   0.49991   0.39842   0.00000  Uiso   1.00
C97    C     0.02742   0.23056   0.58130   0.00000  Uiso   1.00
C98    C     0.25009   0.00009   0.60158   0.00000  Uiso   1.00
C99    C     0.24991   0.49991   0.89842   0.00000  Uiso   1.00
C100   C     0.25009   0.00009   0.10158   0.00000  Uiso   1.00
C101   C     0.49991   0.24991   0.89842   0.00000  Uiso   1.00
C102   C     0.00009   0.25009   0.10158   0.00000  Uiso   1.00
C103   C     0.04958   0.20545   0.47990   0.00000  Uiso   1.00
C104   C     0.45042   0.29456   0.52011   0.00000  Uiso   1.00
C105   C     0.29441   0.45029   0.47991   0.00000  Uiso   1.00
C106   C     0.20559   0.04970   0.52009   0.00000  Uiso   1.00
C107   C     0.45036   0.29449   0.47991   0.00000  Uiso   1.00
C108   C     0.23041   0.02727   0.41866   0.00000  Uiso   1.00
C109   C     0.04964   0.20551   0.52009   0.00000  Uiso   1.00
C110   C     0.20552   0.04964   0.47989   0.00000  Uiso   1.00
C111   C     0.29448   0.45036   0.52011   0.00000  Uiso   1.00
C112   C     0.29962   0.45549   0.97990   0.00000  Uiso   1.00
C113   C     0.20038   0.04451   0.02010   0.00000  Uiso   1.00
C114   C     0.04439   0.20027   0.97991   0.00000  Uiso   1.00
C115   C     0.45561   0.29973   0.02009   0.00000  Uiso   1.00
C116   C     0.20032   0.04444   0.97991   0.00000  Uiso   1.00
C117   C     0.29968   0.45556   0.02009   0.00000  Uiso   1.00
C118   C     0.45554   0.29967   0.97989   0.00000  Uiso   1.00
C119   C     0.26959   0.47273   0.58134   0.00000  Uiso   1.00
C120   C     0.04446   0.20033   0.02011   0.00000  Uiso   1.00
C121   C     0.24997   0.49996   0.35596   0.00000  Uiso   1.00
C122   C     0.25003   0.00004   0.64404   0.00000  Uiso   1.00
C123   C     0.49996   0.24998   0.35596   0.00000  Uiso   1.00
C124   C     0.00004   0.25003   0.64404   0.00000  Uiso   1.00
C125   C     0.49997   0.24996   0.85596   0.00000  Uiso   1.00
C126   C     0.00003   0.25004   0.14404   0.00000  Uiso   1.00
C127   C     0.24996   0.49997   0.85596   0.00000  Uiso   1.00
C128   C     0.25004   0.00002   0.14404   0.00000  Uiso   1.00
C129   C     0.18008   0.06992   0.25000   0.00000  Uiso   1.00
C130   C     0.02725   0.23038   0.41866   0.00000  Uiso   1.00
C131   C     0.31992   0.43007   0.75000   0.00000  Uiso   1.00
C132   C     0.42987   0.18019   0.24997   0.00000  Uiso   1.00
C133   C     0.07013   0.31981   0.75003   0.00000  Uiso   1.00
C134   C     0.31995   0.43005   0.25000   0.00000  Uiso   1.00
C135   C     0.18005   0.06995   0.75000   0.00000  Uiso   1.00
C136   C     0.06981   0.32013   0.25003   0.00000  Uiso   1.00
C137   C     0.43019   0.17987   0.74997   0.00000  Uiso   1.00
C138   C     0.17987   0.43019   0.74997   0.00000  Uiso   1.00
C139   C     0.32013   0.06981   0.25003   0.00000  Uiso   1.00
C140   C     0.43008   0.31992   0.75000   0.00000  Uiso   1.00
C141   C     0.47276   0.26963   0.58135   0.00000  Uiso   1.00
C142   C     0.06992   0.18007   0.25000   0.00000  Uiso   1.00
C143   C     0.31981   0.07013   0.75003   0.00000  Uiso   1.00
C144   C     0.18019   0.42987   0.24997   0.00000  Uiso   1.00
C145   C     0.06995   0.18005   0.75000   0.00000  Uiso   1.00
C146   C     0.43005   0.31995   0.25000   0.00000  Uiso   1.00
C147   C     0.11511   0.41208   0.25645   0.00000  Uiso   1.00
C148   C     0.38489   0.08792   0.74355   0.00000  Uiso   1.00
C149   C     0.09589   0.12315   0.27713   0.00000  Uiso   1.00
C150   C     0.40411   0.37685   0.72287   0.00000  Uiso   1.00
C151   C     0.38507   0.08794   0.25529   0.00000  Uiso   1.00
C152   C     0.26940   0.47256   0.41870   0.00000  Uiso   1.00
C153   C     0.11493   0.41206   0.74471   0.00000  Uiso   1.00
C154   C     0.40398   0.37672   0.27714   0.00000  Uiso   1.00
C155   C     0.09602   0.12328   0.72286   0.00000  Uiso   1.00
C156   C     0.12328   0.09602   0.72286   0.00000  Uiso   1.00
C157   C     0.37672   0.40398   0.27714   0.00000  Uiso   1.00
C158   C     0.08792   0.38489   0.74355   0.00000  Uiso   1.00
C159   C     0.41208   0.11511   0.25645   0.00000  Uiso   1.00
C160   C     0.37685   0.40411   0.72287   0.00000  Uiso   1.00
C161   C     0.12315   0.09589   0.27714   0.00000  Uiso   1.00
C162   C     0.41206   0.11493   0.74471   0.00000  Uiso   1.00
C163   C     0.23060   0.02744   0.58130   0.00000  Uiso   1.00
C164   C     0.08794   0.38507   0.25529   0.00000  Uiso   1.00
C165   C     0.36511   0.16208   0.75645   0.00000  Uiso   1.00
C166   C     0.13489   0.33792   0.24355   0.00000  Uiso   1.00
C167   C     0.34590   0.37315   0.77714   0.00000  Uiso   1.00
C168   C     0.15411   0.12685   0.22286   0.00000  Uiso   1.00
C169   C     0.13507   0.33794   0.75529   0.00000  Uiso   1.00
C170   C     0.36493   0.16206   0.24471   0.00000  Uiso   1.00
C171   C     0.15397   0.12672   0.77714   0.00000  Uiso   1.00
C172   C     0.34603   0.37328   0.22286   0.00000  Uiso   1.00
C173   C     0.37328   0.34602   0.22286   0.00000  Uiso   1.00
C174   C     0.22257   0.01941   0.91870   0.00000  Uiso   1.00
C175   C     0.12672   0.15397   0.77714   0.00000  Uiso   1.00
C176   C     0.33792   0.13489   0.24355   0.00000  Uiso   1.00
C177   C     0.16208   0.36511   0.75645   0.00000  Uiso   1.00
C178   C     0.12685   0.15410   0.22286   0.00000  Uiso   1.00
C179   C     0.37315   0.34589   0.77714   0.00000  Uiso   1.00
C180   C     0.16206   0.36493   0.24471   0.00000  Uiso   1.00
C181   C     0.33794   0.13507   0.75529   0.00000  Uiso   1.00
C182   C     0.02575   0.22847   0.45925   0.00000  Uiso   1.00
C183   C     0.47425   0.27154   0.54075   0.00000  Uiso   1.00
C184   C     0.27138   0.47411   0.45927   0.00000  Uiso   1.00
H185   H     0.06840   0.18728   0.46510   0.00000  Uiso   1.00
H186   H     0.18154   0.06266   0.03490   0.00000  Uiso   1.00
H187   H     0.06246   0.18136   0.96511   0.00000  Uiso   1.00
H188   H     0.43754   0.31864   0.03489   0.00000  Uiso   1.00
H189   H     0.18142   0.06253   0.96511   0.00000  Uiso   1.00
H190   H     0.31858   0.43747   0.03489   0.00000  Uiso   1.00
H191   H     0.43741   0.31853   0.96510   0.00000  Uiso   1.00
H192   H     0.06259   0.18148   0.03490   0.00000  Uiso   1.00
H193   H     0.07152   0.49349   0.25209   0.00000  Uiso   1.00
H194   H     0.42848   0.00650   0.74791   0.00000  Uiso   1.00
H195   H     0.03949   0.14880   0.34940   0.00000  Uiso   1.00
H196   H     0.43160   0.31273   0.53490   0.00000  Uiso   1.00
H197   H     0.46051   0.35120   0.65060   0.00000  Uiso   1.00
H198   H     0.40338   0.49857   0.24207   0.00000  Uiso   1.00
H199   H     0.09662   0.00143   0.75793   0.00000  Uiso   1.00
H200   H     0.45990   0.35072   0.34952   0.00000  Uiso   1.00
H201   H     0.04010   0.14928   0.65048   0.00000  Uiso   1.00
H202   H     0.14930   0.04014   0.65045   0.00000  Uiso   1.00
H203   H     0.35070   0.45986   0.34955   0.00000  Uiso   1.00
H204   H     0.00650   0.42848   0.74792   0.00000  Uiso   1.00
H205   H     0.49350   0.07152   0.25208   0.00000  Uiso   1.00
H206   H     0.35118   0.46048   0.65058   0.00000  Uiso   1.00
H207   H     0.31249   0.43139   0.46511   0.00000  Uiso   1.00
H208   H     0.14882   0.03952   0.34942   0.00000  Uiso   1.00
H209   H     0.00143   0.09663   0.75792   0.00000  Uiso   1.00
H210   H     0.49857   0.40337   0.24208   0.00000  Uiso   1.00
H211   H     0.32152   0.24350   0.75209   0.00000  Uiso   1.00
H212   H     0.17849   0.25650   0.24791   0.00000  Uiso   1.00
H213   H     0.28950   0.39881   0.84941   0.00000  Uiso   1.00
H214   H     0.21050   0.10119   0.15059   0.00000  Uiso   1.00
H215   H     0.15338   0.24857   0.74208   0.00000  Uiso   1.00
H216   H     0.34662   0.25143   0.25792   0.00000  Uiso   1.00
H217   H     0.20988   0.10071   0.84953   0.00000  Uiso   1.00
H218   H     0.18751   0.06861   0.53489   0.00000  Uiso   1.00
H219   H     0.29012   0.39929   0.15047   0.00000  Uiso   1.00
H220   H     0.39930   0.29014   0.15045   0.00000  Uiso   1.00
H221   H     0.10070   0.20985   0.84955   0.00000  Uiso   1.00
H222   H     0.25650   0.17848   0.24792   0.00000  Uiso   1.00
H223   H     0.24350   0.32152   0.75209   0.00000  Uiso   1.00
H224   H     0.10118   0.21048   0.15058   0.00000  Uiso   1.00
H225   H     0.39882   0.28952   0.84942   0.00000  Uiso   1.00
H226   H     0.25143   0.34663   0.25792   0.00000  Uiso   1.00
H227   H     0.24857   0.15337   0.74208   0.00000  Uiso   1.00
H228   H     0.40067   0.26748   0.42731   0.00000  Uiso   1.00
H229   H     0.43148   0.31260   0.46511   0.00000  Uiso   1.00
H230   H     0.41779   0.24028   0.38721   0.00000  Uiso   1.00
H231   H     0.39383   0.28235   0.37842   0.00000  Uiso   1.00
H232   H     0.10617   0.21765   0.62158   0.00000  Uiso   1.00
H233   H     0.08221   0.25972   0.61280   0.00000  Uiso   1.00
H234   H     0.09932   0.23252   0.57268   0.00000  Uiso   1.00
H235   H     0.25961   0.08208   0.38687   0.00000  Uiso   1.00
H236   H     0.23224   0.09927   0.42686   0.00000  Uiso   1.00
H237   H     0.21756   0.10599   0.37793   0.00000  Uiso   1.00
H238   H     0.26778   0.40072   0.57315   0.00000  Uiso   1.00
H239   H     0.24038   0.41792   0.61311   0.00000  Uiso   1.00
H240   H     0.06851   0.18740   0.53489   0.00000  Uiso   1.00
H241   H     0.28243   0.39402   0.62209   0.00000  Uiso   1.00
H242   H     0.09919   0.23217   0.42688   0.00000  Uiso   1.00
H243   H     0.08213   0.25945   0.38682   0.00000  Uiso   1.00
H244   H     0.10598   0.21736   0.37804   0.00000  Uiso   1.00
H245   H     0.41790   0.24052   0.61309   0.00000  Uiso   1.00
H246   H     0.40075   0.26794   0.57317   0.00000  Uiso   1.00
H247   H     0.39408   0.28259   0.62209   0.00000  Uiso   1.00
H248   H     0.28219   0.39379   0.37842   0.00000  Uiso   1.00
H249   H     0.24016   0.41782   0.38721   0.00000  Uiso   1.00
H250   H     0.26732   0.40065   0.42731   0.00000  Uiso   1.00
H251   H     0.18738   0.06849   0.46510   0.00000  Uiso   1.00
H252   H     0.23271   0.09933   0.57268   0.00000  Uiso   1.00
H253   H     0.25982   0.08220   0.61283   0.00000  Uiso   1.00
H254   H     0.21778   0.10623   0.62153   0.00000  Uiso   1.00
H255   H     0.16781   0.49020   0.88721   0.00000  Uiso   1.00
H256   H     0.14381   0.03224   0.87842   0.00000  Uiso   1.00
H257   H     0.15066   0.01738   0.92731   0.00000  Uiso   1.00
H258   H     0.35619   0.46775   0.12159   0.00000  Uiso   1.00
H259   H     0.33219   0.00980   0.11279   0.00000  Uiso   1.00
H260   H     0.34934   0.48261   0.07270   0.00000  Uiso   1.00
H261   H     0.00967   0.33207   0.88691   0.00000  Uiso   1.00
H262   H     0.31262   0.43151   0.53490   0.00000  Uiso   1.00
H263   H     0.48226   0.34929   0.92684   0.00000  Uiso   1.00
H264   H     0.46764   0.35599   0.87790   0.00000  Uiso   1.00
H265   H     0.01775   0.15071   0.07317   0.00000  Uiso   1.00
H266   H     0.49034   0.16793   0.11309   0.00000  Uiso   1.00
H267   H     0.03237   0.14402   0.12211   0.00000  Uiso   1.00
H268   H     0.34927   0.48216   0.92685   0.00000  Uiso   1.00
H269   H     0.33208   0.00957   0.88690   0.00000  Uiso   1.00
H270   H     0.35596   0.46751   0.87790   0.00000  Uiso   1.00
H271   H     0.16792   0.49042   0.11309   0.00000  Uiso   1.00
H272   H     0.15072   0.01784   0.07315   0.00000  Uiso   1.00
H273   H     0.31846   0.43734   0.96510   0.00000  Uiso   1.00
H274   H     0.14404   0.03247   0.12211   0.00000  Uiso   1.00
H275   H     0.03214   0.14377   0.87843   0.00000  Uiso   1.00
H276   H     0.49012   0.16782   0.88720   0.00000  Uiso   1.00
H277   H     0.01727   0.15065   0.92732   0.00000  Uiso   1.00
H278   H     0.48271   0.34936   0.07270   0.00000  Uiso   1.00
H279   H     0.00988   0.33218   0.11278   0.00000  Uiso   1.00
H280   H     0.46786   0.35621   0.12159   0.00000  Uiso   1.00
O281   O     0.25000  -0.00000   0.25000   0.00000  Uiso   1.00
O282   O     0.25000   0.46963   0.66245   0.00000  Uiso   1.00
O283   O     0.31171   0.40246   0.16849   0.00000  Uiso   1.00
O284   O     0.34708   0.29495   0.19241   0.00000  Uiso   1.00
O285   O     0.40246   0.31174   0.16848   0.00000  Uiso   1.00
O286   O     0.15291   0.20505   0.80759   0.00000  Uiso   1.00
O287   O     0.09754   0.18826   0.83153   0.00000  Uiso   1.00
O288   O     0.28140   0.12810   0.21181   0.00000  Uiso   1.00
O289   O     0.28290   0.17423   0.25570   0.00000  Uiso   1.00
O290   O     0.21860   0.37190   0.78819   0.00000  Uiso   1.00
O291   O     0.21710   0.32577   0.74430   0.00000  Uiso   1.00
O292   O     0.15328   0.20526   0.19242   0.00000  Uiso   1.00
O293   O     0.46964   0.25000   0.33755   0.00000  Uiso   1.00
O294   O     0.09791   0.18879   0.16859   0.00000  Uiso   1.00
O295   O     0.34672   0.29474   0.80758   0.00000  Uiso   1.00
O296   O     0.40209   0.31121   0.83142   0.00000  Uiso   1.00
O297   O     0.21005   0.34686   0.20377   0.00000  Uiso   1.00
O298   O     0.22605   0.35401   0.26689   0.00000  Uiso   1.00
O299   O     0.28995   0.15313   0.79624   0.00000  Uiso   1.00
O300   O     0.27395   0.14599   0.73311   0.00000  Uiso   1.00
O301   O     0.44625   0.28900   0.39850   0.00000  Uiso   1.00
O302   O     0.05375   0.21100   0.60150   0.00000  Uiso   1.00
O303   O     0.21086   0.05361   0.39841   0.00000  Uiso   1.00
O304   O     0.03037   0.25000   0.66245   0.00000  Uiso   1.00
O305   O     0.28915   0.44639   0.60159   0.00000  Uiso   1.00
O306   O     0.05356   0.21078   0.39841   0.00000  Uiso   1.00
O307   O     0.44645   0.28923   0.60159   0.00000  Uiso   1.00
O308   O     0.28892   0.44619   0.39850   0.00000  Uiso   1.00
O309   O     0.21108   0.05380   0.60150   0.00000  Uiso   1.00
O310   O     0.19622   0.03895   0.89850   0.00000  Uiso   1.00
O311   O     0.30378   0.46105   0.10150   0.00000  Uiso   1.00
O312   O     0.46088   0.30363   0.89841   0.00000  Uiso   1.00
O313   O     0.03913   0.19638   0.10159   0.00000  Uiso   1.00
O314   O     0.30359   0.46082   0.89841   0.00000  Uiso   1.00
O315   O     0.00000   0.21963   0.83755   0.00000  Uiso   1.00
O316   O     0.19641   0.03917   0.10159   0.00000  Uiso   1.00
O317   O     0.03890   0.19617   0.89850   0.00000  Uiso   1.00
O318   O     0.46110   0.30382   0.10150   0.00000  Uiso   1.00
O319   O     0.00000   0.28036   0.16245   0.00000  Uiso   1.00
O320   O     0.28037  -0.00000   0.83755   0.00000  Uiso   1.00
O321   O     0.21964  -0.00000   0.16245   0.00000  Uiso   1.00
O322   O     0.00000   0.28036   0.83755   0.00000  Uiso   1.00
O323   O     0.00000   0.21963   0.16245   0.00000  Uiso   1.00
O324   O     0.21964  -0.00000   0.83755   0.00000  Uiso   1.00
O325   O     0.25000  -0.00000   0.75000   0.00000  Uiso   1.00
O326   O     0.28037  -0.00000   0.16245   0.00000  Uiso   1.00
O327   O     0.20725   0.07307   0.27302   0.00000  Uiso   1.00
O328   O     0.29276   0.42692   0.72698   0.00000  Uiso   1.00
O329   O     0.42693   0.20724   0.27302   0.00000  Uiso   1.00
O330   O     0.07308   0.29275   0.72698   0.00000  Uiso   1.00
O331   O     0.29276   0.42692   0.27302   0.00000  Uiso   1.00
O332   O     0.20725   0.07307   0.72698   0.00000  Uiso   1.00
O333   O     0.07308   0.29275   0.27302   0.00000  Uiso   1.00
O334   O     0.42693   0.20724   0.72698   0.00000  Uiso   1.00
O335   O     0.20725   0.42692   0.72698   0.00000  Uiso   1.00
O336   O     0.00000   0.25000   0.25000   0.00000  Uiso   1.00
O337   O     0.29276   0.07307   0.27302   0.00000  Uiso   1.00
O338   O     0.42693   0.29275   0.72698   0.00000  Uiso   1.00
O339   O     0.07308   0.20724   0.27302   0.00000  Uiso   1.00
O340   O     0.29276   0.07307   0.72698   0.00000  Uiso   1.00
O341   O     0.20725   0.42692   0.27302   0.00000  Uiso   1.00
O342   O     0.07308   0.20724   0.72698   0.00000  Uiso   1.00
O343   O     0.42693   0.29275   0.27302   0.00000  Uiso   1.00
O344   O     0.45725   0.32307   0.77302   0.00000  Uiso   1.00
O345   O     0.04276   0.17692   0.22698   0.00000  Uiso   1.00
O346   O     0.17693   0.45724   0.77302   0.00000  Uiso   1.00
O347   O     0.00000   0.25000   0.75000   0.00000  Uiso   1.00
O348   O     0.32308   0.04275   0.22698   0.00000  Uiso   1.00
O349   O     0.04276   0.17692   0.77302   0.00000  Uiso   1.00
O350   O     0.45725   0.32307   0.22698   0.00000  Uiso   1.00
O351   O     0.32308   0.04275   0.77302   0.00000  Uiso   1.00
O352   O     0.17693   0.45724   0.22698   0.00000  Uiso   1.00
O353   O     0.45725   0.17692   0.22698   0.00000  Uiso   1.00
O354   O     0.04276   0.32307   0.77302   0.00000  Uiso   1.00
O355   O     0.17693   0.04275   0.22698   0.00000  Uiso   1.00
O356   O     0.32308   0.45724   0.77302   0.00000  Uiso   1.00
O357   O     0.04276   0.32307   0.22698   0.00000  Uiso   1.00
O358   O     0.25000   0.46963   0.33755   0.00000  Uiso   1.00
O359   O     0.45725   0.17692   0.77302   0.00000  Uiso   1.00
O360   O     0.32308   0.45724   0.22698   0.00000  Uiso   1.00
O361   O     0.17693   0.04275   0.77302   0.00000  Uiso   1.00
O362   O     0.12190   0.46859   0.28819   0.00000  Uiso   1.00
O363   O     0.07577   0.46709   0.24431   0.00000  Uiso   1.00
O364   O     0.37810   0.03141   0.71181   0.00000  Uiso   1.00
O365   O     0.42423   0.03290   0.75569   0.00000  Uiso   1.00
O366   O     0.04474   0.09670   0.30757   0.00000  Uiso   1.00
O367   O     0.06119   0.15208   0.33140   0.00000  Uiso   1.00
O368   O     0.45526   0.40330   0.69243   0.00000  Uiso   1.00
O369   O     0.25000   0.03036   0.66245   0.00000  Uiso   1.00
O370   O     0.43882   0.34792   0.66860   0.00000  Uiso   1.00
O371   O     0.40314   0.03995   0.29623   0.00000  Uiso   1.00
O372   O     0.39599   0.02396   0.23310   0.00000  Uiso   1.00
O373   O     0.09687   0.46005   0.70377   0.00000  Uiso   1.00
O374   O     0.10401   0.47604   0.76689   0.00000  Uiso   1.00
O375   O     0.45504   0.40294   0.30758   0.00000  Uiso   1.00
O376   O     0.43830   0.34755   0.33150   0.00000  Uiso   1.00
O377   O     0.04496   0.09706   0.69242   0.00000  Uiso   1.00
O378   O     0.06170   0.15245   0.66850   0.00000  Uiso   1.00
O379   O     0.09708   0.04495   0.69242   0.00000  Uiso   1.00
O380   O     0.03037   0.25000   0.33755   0.00000  Uiso   1.00
O381   O     0.15246   0.06174   0.66848   0.00000  Uiso   1.00
O382   O     0.40292   0.45505   0.30758   0.00000  Uiso   1.00
O383   O     0.34755   0.43826   0.33153   0.00000  Uiso   1.00
O384   O     0.03141   0.37810   0.71181   0.00000  Uiso   1.00
O385   O     0.03290   0.42423   0.75570   0.00000  Uiso   1.00
O386   O     0.46860   0.12189   0.28819   0.00000  Uiso   1.00
O387   O     0.46710   0.07577   0.24430   0.00000  Uiso   1.00
O388   O     0.40328   0.45526   0.69242   0.00000  Uiso   1.00
O389   O     0.34792   0.43879   0.66858   0.00000  Uiso   1.00
O390   O     0.09672   0.04474   0.30758   0.00000  Uiso   1.00
O391   O     0.46964   0.25000   0.66245   0.00000  Uiso   1.00
O392   O     0.15208   0.06121   0.33142   0.00000  Uiso   1.00
O393   O     0.46005   0.09687   0.70377   0.00000  Uiso   1.00
O394   O     0.47605   0.10401   0.76689   0.00000  Uiso   1.00
O395   O     0.03995   0.40313   0.29623   0.00000  Uiso   1.00
O396   O     0.02395   0.39599   0.23311   0.00000  Uiso   1.00
O397   O     0.37190   0.21859   0.78819   0.00000  Uiso   1.00
O398   O     0.32577   0.21710   0.74431   0.00000  Uiso   1.00
O399   O     0.12810   0.28141   0.21181   0.00000  Uiso   1.00
O400   O     0.17423   0.28290   0.25569   0.00000  Uiso   1.00
O401   O     0.29474   0.34671   0.80758   0.00000  Uiso   1.00
O402   O     0.25000   0.03036   0.33755   0.00000  Uiso   1.00
O403   O     0.31119   0.40208   0.83140   0.00000  Uiso   1.00
O404   O     0.20526   0.15329   0.19242   0.00000  Uiso   1.00
O405   O     0.18880   0.09792   0.16859   0.00000  Uiso   1.00
O406   O     0.15314   0.28995   0.79623   0.00000  Uiso   1.00
O407   O     0.14599   0.27395   0.73311   0.00000  Uiso   1.00
O408   O     0.34686   0.21005   0.20377   0.00000  Uiso   1.00
O409   O     0.35401   0.22604   0.26689   0.00000  Uiso   1.00
O410   O     0.20504   0.15294   0.80759   0.00000  Uiso   1.00
O411   O     0.18829   0.09754   0.83151   0.00000  Uiso   1.00
O412   O     0.29496   0.34706   0.19241   0.00000  Uiso   1.00
Zn413  Zn    0.20660  -0.00000   0.21735   0.00000  Uiso   1.00
Zn414  Zn    0.04341   0.25000   0.28265   0.00000  Uiso   1.00
Zn415  Zn    0.25000   0.45659   0.71735   0.00000  Uiso   1.00
Zn416  Zn    0.25000   0.04340   0.28265   0.00000  Uiso   1.00
Zn417  Zn    0.04341   0.25000   0.71735   0.00000  Uiso   1.00
Zn418  Zn    0.45660   0.25000   0.28265   0.00000  Uiso   1.00
Zn419  Zn    0.25000   0.04340   0.71735   0.00000  Uiso   1.00
Zn420  Zn    0.25000   0.45659   0.28265   0.00000  Uiso   1.00
Zn421  Zn    0.29341  -0.00000   0.78265   0.00000  Uiso   1.00
Zn422  Zn    0.00000   0.20659   0.21735   0.00000  Uiso   1.00
Zn423  Zn    0.00000   0.29340   0.78265   0.00000  Uiso   1.00
Zn424  Zn    0.29341  -0.00000   0.21735   0.00000  Uiso   1.00
Zn425  Zn    0.20660  -0.00000   0.78265   0.00000  Uiso   1.00
Zn426  Zn    0.00000   0.29340   0.21735   0.00000  Uiso   1.00
Zn427  Zn    0.00000   0.20659   0.78265   0.00000  Uiso   1.00
Zn428  Zn    0.45660   0.25000   0.71735   0.00000  Uiso   1.00
C429   C     0.97258   0.26944   0.41870   0.00000  Uiso   1.00
C430   C     0.77743   0.48059   0.08130   0.00000  Uiso   1.00
C431   C     0.72862   0.02589   0.54073   0.00000  Uiso   1.00
C432   C     0.97414   0.27142   0.45927   0.00000  Uiso   1.00
C433   C     0.52586   0.22858   0.54073   0.00000  Uiso   1.00
C434   C     0.72850   0.02578   0.45925   0.00000  Uiso   1.00
C435   C     0.77150   0.47422   0.54075   0.00000  Uiso   1.00
C436   C     0.77577   0.47849   0.95925   0.00000  Uiso   1.00
C437   C     0.72423   0.02151   0.04075   0.00000  Uiso   1.00
C438   C     0.52137   0.22410   0.95927   0.00000  Uiso   1.00
C439   C     0.97863   0.27590   0.04073   0.00000  Uiso   1.00
C440   C     0.72412   0.02139   0.95927   0.00000  Uiso   1.00
C441   C     0.98042   0.27728   0.91866   0.00000  Uiso   1.00
C442   C     0.77588   0.47861   0.04073   0.00000  Uiso   1.00
C443   C     0.97852   0.27579   0.95925   0.00000  Uiso   1.00
C444   C     0.52149   0.22421   0.04075   0.00000  Uiso   1.00
C445   C     0.59797   0.34818   0.24914   0.00000  Uiso   1.00
C446   C     0.90203   0.15182   0.75086   0.00000  Uiso   1.00
C447   C     0.65196   0.09804   0.25000   0.00000  Uiso   1.00
C448   C     0.84804   0.40196   0.75000   0.00000  Uiso   1.00
C449   C     0.90182   0.15203   0.25086   0.00000  Uiso   1.00
C450   C     0.59818   0.34797   0.74914   0.00000  Uiso   1.00
C451   C     0.84805   0.40195   0.25000   0.00000  Uiso   1.00
C452   C     0.51958   0.22272   0.08134   0.00000  Uiso   1.00
C453   C     0.65195   0.09805   0.75000   0.00000  Uiso   1.00
C454   C     0.59805   0.15195   0.75000   0.00000  Uiso   1.00
C455   C     0.90195   0.34805   0.25000   0.00000  Uiso   1.00
C456   C     0.65182   0.40203   0.75086   0.00000  Uiso   1.00
C457   C     0.84818   0.09797   0.24914   0.00000  Uiso   1.00
C458   C     0.90196   0.34804   0.75000   0.00000  Uiso   1.00
C459   C     0.59804   0.15196   0.25000   0.00000  Uiso   1.00
C460   C     0.84797   0.09818   0.74914   0.00000  Uiso   1.00
C461   C     0.65203   0.40182   0.25086   0.00000  Uiso   1.00
C462   C     0.99997   0.24997   0.47959   0.00000  Uiso   1.00
C463   C     0.77726   0.48039   0.91866   0.00000  Uiso   1.00
C464   C     0.50002   0.25003   0.52041   0.00000  Uiso   1.00
C465   C     0.74997   0.49997   0.47959   0.00000  Uiso   1.00
C466   C     0.75003   0.00003   0.52041   0.00000  Uiso   1.00
C467   C     0.74997   0.49997   0.97959   0.00000  Uiso   1.00
C468   C     0.75003   0.00003   0.02041   0.00000  Uiso   1.00
C469   C     0.99997   0.24997   0.97959   0.00000  Uiso   1.00
C470   C     0.50003   0.25003   0.02041   0.00000  Uiso   1.00
C471   C     0.60489   0.45091   0.26427   0.00000  Uiso   1.00
C472   C     0.89512   0.04909   0.73573   0.00000  Uiso   1.00
C473   C     0.56579   0.12258   0.30618   0.00000  Uiso   1.00
C474   C     0.72274   0.01960   0.08134   0.00000  Uiso   1.00
C475   C     0.93421   0.37742   0.69382   0.00000  Uiso   1.00
C476   C     0.89506   0.04928   0.26333   0.00000  Uiso   1.00
C477   C     0.60494   0.45072   0.73667   0.00000  Uiso   1.00
C478   C     0.93393   0.37714   0.30621   0.00000  Uiso   1.00
C479   C     0.56607   0.12287   0.69379   0.00000  Uiso   1.00
C480   C     0.62288   0.06608   0.69378   0.00000  Uiso   1.00
C481   C     0.87712   0.43392   0.30622   0.00000  Uiso   1.00
C482   C     0.54909   0.39512   0.73573   0.00000  Uiso   1.00
C483   C     0.95091   0.10488   0.26427   0.00000  Uiso   1.00
C484   C     0.87742   0.43421   0.69382   0.00000  Uiso   1.00
C485   C     0.51939   0.22255   0.91870   0.00000  Uiso   1.00
C486   C     0.62259   0.06579   0.30619   0.00000  Uiso   1.00
C487   C     0.95072   0.10494   0.73666   0.00000  Uiso   1.00
C488   C     0.54928   0.39506   0.26334   0.00000  Uiso   1.00
C489   C     0.85489   0.20091   0.76427   0.00000  Uiso   1.00
C490   C     0.64512   0.29909   0.23573   0.00000  Uiso   1.00
C491   C     0.81579   0.37258   0.80618   0.00000  Uiso   1.00
C492   C     0.68421   0.12742   0.19382   0.00000  Uiso   1.00
C493   C     0.64506   0.29928   0.76334   0.00000  Uiso   1.00
C494   C     0.85494   0.20072   0.23667   0.00000  Uiso   1.00
C495   C     0.68392   0.12713   0.80622   0.00000  Uiso   1.00
C496   C     0.98061   0.27745   0.08130   0.00000  Uiso   1.00
C497   C     0.81608   0.37287   0.19378   0.00000  Uiso   1.00
C498   C     0.87288   0.31608   0.19378   0.00000  Uiso   1.00
C499   C     0.62712   0.18392   0.80623   0.00000  Uiso   1.00
C500   C     0.79909   0.14512   0.23573   0.00000  Uiso   1.00
C501   C     0.70091   0.35488   0.76427   0.00000  Uiso   1.00
C502   C     0.62741   0.18421   0.19381   0.00000  Uiso   1.00
C503   C     0.87259   0.31579   0.80619   0.00000  Uiso   1.00
C504   C     0.70072   0.35494   0.23666   0.00000  Uiso   1.00
C505   C     0.79928   0.14506   0.76334   0.00000  Uiso   1.00
C506   C     0.91348   0.26861   0.39815   0.00000  Uiso   1.00
C507   C     0.99991   0.24991   0.39842   0.00000  Uiso   1.00
C508   C     0.58652   0.23140   0.60185   0.00000  Uiso   1.00
C509   C     0.73124   0.08640   0.39779   0.00000  Uiso   1.00
C510   C     0.76876   0.41360   0.60221   0.00000  Uiso   1.00
C511   C     0.58638   0.23111   0.39782   0.00000  Uiso   1.00
C512   C     0.91363   0.26890   0.60221   0.00000  Uiso   1.00
C513   C     0.76847   0.41345   0.39815   0.00000  Uiso   1.00
C514   C     0.73152   0.08655   0.60185   0.00000  Uiso   1.00
C515   C     0.66346   0.01852   0.89815   0.00000  Uiso   1.00
C516   C     0.83654   0.48148   0.10185   0.00000  Uiso   1.00
C517   C     0.98129   0.33640   0.89779   0.00000  Uiso   1.00
C518   C     0.50009   0.25009   0.60158   0.00000  Uiso   1.00
C519   C     0.51873   0.16360   0.10221   0.00000  Uiso   1.00
C520   C     0.83639   0.48119   0.89779   0.00000  Uiso   1.00
C521   C     0.66361   0.01881   0.10221   0.00000  Uiso   1.00
C522   C     0.51843   0.16344   0.89815   0.00000  Uiso   1.00
C523   C     0.98156   0.33655   0.10185   0.00000  Uiso   1.00
C524   C     0.74991   0.49991   0.39842   0.00000  Uiso   1.00
C525   C     0.52742   0.23056   0.58130   0.00000  Uiso   1.00
C526   C     0.75009   0.00009   0.60158   0.00000  Uiso   1.00
C527   C     0.74991   0.49991   0.89842   0.00000  Uiso   1.00
C528   C     0.75009   0.00009   0.10158   0.00000  Uiso   1.00
C529   C     0.99991   0.24991   0.89842   0.00000  Uiso   1.00
C530   C     0.50009   0.25009   0.10158   0.00000  Uiso   1.00
C531   C     0.54958   0.20545   0.47990   0.00000  Uiso   1.00
C532   C     0.95042   0.29456   0.52011   0.00000  Uiso   1.00
C533   C     0.79441   0.45029   0.47991   0.00000  Uiso   1.00
C534   C     0.70559   0.04970   0.52009   0.00000  Uiso   1.00
C535   C     0.95036   0.29449   0.47991   0.00000  Uiso   1.00
C536   C     0.73041   0.02727   0.41866   0.00000  Uiso   1.00
C537   C     0.54964   0.20551   0.52009   0.00000  Uiso   1.00
C538   C     0.70552   0.04964   0.47989   0.00000  Uiso   1.00
C539   C     0.79448   0.45036   0.52011   0.00000  Uiso   1.00
C540   C     0.79962   0.45549   0.97990   0.00000  Uiso   1.00
C541   C     0.70038   0.04451   0.02010   0.00000  Uiso   1.00
C542   C     0.54439   0.20027   0.97991   0.00000  Uiso   1.00
C543   C     0.95561   0.29973   0.02009   0.00000  Uiso   1.00
C544   C     0.70032   0.04444   0.97991   0.00000  Uiso   1.00
C545   C     0.79968   0.45556   0.02009   0.00000  Uiso   1.00
C546   C     0.95554   0.29967   0.97989   0.00000  Uiso   1.00
C547   C     0.76959   0.47273   0.58134   0.00000  Uiso   1.00
C548   C     0.54446   0.20033   0.02011   0.00000  Uiso   1.00
C549   C     0.74997   0.49996   0.35596   0.00000  Uiso   1.00
C550   C     0.75003   0.00004   0.64404   0.00000  Uiso   1.00
C551   C     0.99996   0.24998   0.35596   0.00000  Uiso   1.00
C552   C     0.50004   0.25003   0.64404   0.00000  Uiso   1.00
C553   C     0.99997   0.24996   0.85596   0.00000  Uiso   1.00
C554   C     0.50003   0.25004   0.14404   0.00000  Uiso   1.00
C555   C     0.74996   0.49997   0.85596   0.00000  Uiso   1.00
C556   C     0.75004   0.00002   0.14404   0.00000  Uiso   1.00
C557   C     0.68008   0.06992   0.25000   0.00000  Uiso   1.00
C558   C     0.52725   0.23038   0.41866   0.00000  Uiso   1.00
C559   C     0.81992   0.43007   0.75000   0.00000  Uiso   1.00
C560   C     0.92987   0.18019   0.24997   0.00000  Uiso   1.00
C561   C     0.57013   0.31981   0.75003   0.00000  Uiso   1.00
C562   C     0.81995   0.43005   0.25000   0.00000  Uiso   1.00
C563   C     0.68005   0.06995   0.75000   0.00000  Uiso   1.00
C564   C     0.56981   0.32013   0.25003   0.00000  Uiso   1.00
C565   C     0.93019   0.17987   0.74997   0.00000  Uiso   1.00
C566   C     0.67987   0.43019   0.74997   0.00000  Uiso   1.00
C567   C     0.82013   0.06981   0.25003   0.00000  Uiso   1.00
C568   C     0.93008   0.31992   0.75000   0.00000  Uiso   1.00
C569   C     0.97276   0.26963   0.58135   0.00000  Uiso   1.00
C570   C     0.56992   0.18007   0.25000   0.00000  Uiso   1.00
C571   C     0.81981   0.07013   0.75003   0.00000  Uiso   1.00
C572   C     0.68019   0.42987   0.24997   0.00000  Uiso   1.00
C573   C     0.56995   0.18005   0.75000   0.00000  Uiso   1.00
C574   C     0.93005   0.31995   0.25000   0.00000  Uiso   1.00
C575   C     0.61511   0.41208   0.25645   0.00000  Uiso   1.00
C576   C     0.88489   0.08792   0.74355   0.00000  Uiso   1.00
C577   C     0.59589   0.12315   0.27713   0.00000  Uiso   1.00
C578   C     0.90411   0.37685   0.72287   0.00000  Uiso   1.00
C579   C     0.88507   0.08794   0.25529   0.00000  Uiso   1.00
C580   C     0.76940   0.47256   0.41870   0.00000  Uiso   1.00
C581   C     0.61493   0.41206   0.74471   0.00000  Uiso   1.00
C582   C     0.90398   0.37672   0.27714   0.00000  Uiso   1.00
C583   C     0.59602   0.12328   0.72286   0.00000  Uiso   1.00
C584   C     0.62328   0.09602   0.72286   0.00000  Uiso   1.00
C585   C     0.87672   0.40398   0.27714   0.00000  Uiso   1.00
C586   C     0.58792   0.38489   0.74355   0.00000  Uiso   1.00
C587   C     0.91208   0.11511   0.25645   0.00000  Uiso   1.00
C588   C     0.87685   0.40411   0.72287   0.00000  Uiso   1.00
C589   C     0.62315   0.09589   0.27714   0.00000  Uiso   1.00
C590   C     0.91206   0.11493   0.74471   0.00000  Uiso   1.00
C591   C     0.73060   0.02744   0.58130   0.00000  Uiso   1.00
C592   C     0.58794   0.38507   0.25529   0.00000  Uiso   1.00
C593   C     0.86511   0.16208   0.75645   0.00000  Uiso   1.00
C594   C     0.63489   0.33792   0.24355   0.00000  Uiso   1.00
C595   C     0.84590   0.37315   0.77714   0.00000  Uiso   1.00
C596   C     0.65411   0.12685   0.22286   0.00000  Uiso   1.00
C597   C     0.63507   0.33794   0.75529   0.00000  Uiso   1.00
C598   C     0.86493   0.16206   0.24471   0.00000  Uiso   1.00
C599   C     0.65397   0.12672   0.77714   0.00000  Uiso   1.00
C600   C     0.84603   0.37328   0.22286   0.00000  Uiso   1.00
C601   C     0.87328   0.34602   0.22286   0.00000  Uiso   1.00
C602   C     0.72257   0.01941   0.91870   0.00000  Uiso   1.00
C603   C     0.62672   0.15397   0.77714   0.00000  Uiso   1.00
C604   C     0.83792   0.13489   0.24355   0.00000  Uiso   1.00
C605   C     0.66208   0.36511   0.75645   0.00000  Uiso   1.00
C606   C     0.62685   0.15410   0.22286   0.00000  Uiso   1.00
C607   C     0.87315   0.34589   0.77714   0.00000  Uiso   1.00
C608   C     0.66206   0.36493   0.24471   0.00000  Uiso   1.00
C609   C     0.83794   0.13507   0.75529   0.00000  Uiso   1.00
C610   C     0.52575   0.22847   0.45925   0.00000  Uiso   1.00
C611   C     0.97425   0.27154   0.54075   0.00000  Uiso   1.00
C612   C     0.77138   0.47411   0.45927   0.00000  Uiso   1.00
H613   H     0.56840   0.18728   0.46510   0.00000  Uiso   1.00
H614   H     0.68154   0.06266   0.03490   0.00000  Uiso   1.00
H615   H     0.56246   0.18136   0.96511   0.00000  Uiso   1.00
H616   H     0.93754   0.31864   0.03489   0.00000  Uiso   1.00
H617   H     0.68142   0.06253   0.96511   0.00000  Uiso   1.00
H618   H     0.81858   0.43747   0.03489   0.00000  Uiso   1.00
H619   H     0.93741   0.31853   0.96510   0.00000  Uiso   1.00
H620   H     0.56259   0.18148   0.03490   0.00000  Uiso   1.00
H621   H     0.57152   0.49349   0.25209   0.00000  Uiso   1.00
H622   H     0.92848   0.00650   0.74791   0.00000  Uiso   1.00
H623   H     0.53949   0.14880   0.34940   0.00000  Uiso   1.00
H624   H     0.93160   0.31273   0.53490   0.00000  Uiso   1.00
H625   H     0.96051   0.35120   0.65060   0.00000  Uiso   1.00
H626   H     0.90338   0.49857   0.24207   0.00000  Uiso   1.00
H627   H     0.59662   0.00143   0.75793   0.00000  Uiso   1.00
H628   H     0.95990   0.35072   0.34952   0.00000  Uiso   1.00
H629   H     0.54010   0.14928   0.65048   0.00000  Uiso   1.00
H630   H     0.64930   0.04014   0.65045   0.00000  Uiso   1.00
H631   H     0.85070   0.45986   0.34955   0.00000  Uiso   1.00
H632   H     0.50650   0.42848   0.74792   0.00000  Uiso   1.00
H633   H     0.99350   0.07152   0.25208   0.00000  Uiso   1.00
H634   H     0.85118   0.46048   0.65058   0.00000  Uiso   1.00
H635   H     0.81249   0.43139   0.46511   0.00000  Uiso   1.00
H636   H     0.64882   0.03952   0.34942   0.00000  Uiso   1.00
H637   H     0.50143   0.09663   0.75792   0.00000  Uiso   1.00
H638   H     0.99857   0.40337   0.24208   0.00000  Uiso   1.00
H639   H     0.82152   0.24350   0.75209   0.00000  Uiso   1.00
H640   H     0.67849   0.25650   0.24791   0.00000  Uiso   1.00
H641   H     0.78950   0.39881   0.84941   0.00000  Uiso   1.00
H642   H     0.71050   0.10119   0.15059   0.00000  Uiso   1.00
H643   H     0.65338   0.24857   0.74208   0.00000  Uiso   1.00
H644   H     0.84662   0.25143   0.25792   0.00000  Uiso   1.00
H645   H     0.70988   0.10071   0.84953   0.00000  Uiso   1.00
H646   H     0.68751   0.06861   0.53489   0.00000  Uiso   1.00
H647   H     0.79012   0.39929   0.15047   0.00000  Uiso   1.00
H648   H     0.89930   0.29014   0.15045   0.00000  Uiso   1.00
H649   H     0.60070   0.20985   0.84955   0.00000  Uiso   1.00
H650   H     0.75650   0.17848   0.24792   0.00000  Uiso   1.00
H651   H     0.74350   0.32152   0.75209   0.00000  Uiso   1.00
H652   H     0.60118   0.21048   0.15058   0.00000  Uiso   1.00
H653   H     0.89882   0.28952   0.84942   0.00000  Uiso   1.00
H654   H     0.75143   0.34663   0.25792   0.00000  Uiso   1.00
H655   H     0.74857   0.15337   0.74208   0.00000  Uiso   1.00
H656   H     0.90067   0.26748   0.42731   0.00000  Uiso   1.00
H657   H     0.93148   0.31260   0.46511   0.00000  Uiso   1.00
H658   H     0.91779   0.24028   0.38721   0.00000  Uiso   1.00
H659   H     0.89383   0.28235   0.37842   0.00000  Uiso   1.00
H660   H     0.60617   0.21765   0.62158   0.00000  Uiso   1.00
H661   H     0.58221   0.25972   0.61280   0.00000  Uiso   1.00
H662   H     0.59932   0.23252   0.57268   0.00000  Uiso   1.00
H663   H     0.75961   0.08208   0.38687   0.00000  Uiso   1.00
H664   H     0.73224   0.09927   0.42686   0.00000  Uiso   1.00
H665   H     0.71756   0.10599   0.37793   0.00000  Uiso   1.00
H666   H     0.76778   0.40072   0.57315   0.00000  Uiso   1.00
H667   H     0.74038   0.41792   0.61311   0.00000  Uiso   1.00
H668   H     0.56851   0.18740   0.53489   0.00000  Uiso   1.00
H669   H     0.78243   0.39402   0.62209   0.00000  Uiso   1.00
H670   H     0.59919   0.23217   0.42688   0.00000  Uiso   1.00
H671   H     0.58213   0.25945   0.38682   0.00000  Uiso   1.00
H672   H     0.60598   0.21736   0.37804   0.00000  Uiso   1.00
H673   H     0.91790   0.24052   0.61309   0.00000  Uiso   1.00
H674   H     0.90075   0.26794   0.57317   0.00000  Uiso   1.00
H675   H     0.89408   0.28259   0.62209   0.00000  Uiso   1.00
H676   H     0.78219   0.39379   0.37842   0.00000  Uiso   1.00
H677   H     0.74016   0.41782   0.38721   0.00000  Uiso   1.00
H678   H     0.76732   0.40065   0.42731   0.00000  Uiso   1.00
H679   H     0.68738   0.06849   0.46510   0.00000  Uiso   1.00
H680   H     0.73271   0.09933   0.57268   0.00000  Uiso   1.00
H681   H     0.75982   0.08220   0.61283   0.00000  Uiso   1.00
H682   H     0.71778   0.10623   0.62153   0.00000  Uiso   1.00
H683   H     0.66781   0.49020   0.88721   0.00000  Uiso   1.00
H684   H     0.64381   0.03224   0.87842   0.00000  Uiso   1.00
H685   H     0.65066   0.01738   0.92731   0.00000  Uiso   1.00
H686   H     0.85619   0.46775   0.12159   0.00000  Uiso   1.00
H687   H     0.83219   0.00980   0.11279   0.00000  Uiso   1.00
H688   H     0.84934   0.48261   0.07270   0.00000  Uiso   1.00
H689   H     0.50967   0.33207   0.88691   0.00000  Uiso   1.00
H690   H     0.81262   0.43151   0.53490   0.00000  Uiso   1.00
H691   H     0.98226   0.34929   0.92684   0.00000  Uiso   1.00
H692   H     0.96764   0.35599   0.87790   0.00000  Uiso   1.00
H693   H     0.51775   0.15071   0.07317   0.00000  Uiso   1.00
H694   H     0.99034   0.16793   0.11309   0.00000  Uiso   1.00
H695   H     0.53237   0.14402   0.12211   0.00000  Uiso   1.00
H696   H     0.84927   0.48216   0.92685   0.00000  Uiso   1.00
H697   H     0.83208   0.00957   0.88690   0.00000  Uiso   1.00
H698   H     0.85596   0.46751   0.87790   0.00000  Uiso   1.00
H699   H     0.66792   0.49042   0.11309   0.00000  Uiso   1.00
H700   H     0.65072   0.01784   0.07315   0.00000  Uiso   1.00
H701   H     0.81846   0.43734   0.96510   0.00000  Uiso   1.00
H702   H     0.64404   0.03247   0.12211   0.00000  Uiso   1.00
H703   H     0.53214   0.14377   0.87843   0.00000  Uiso   1.00
H704   H     0.99012   0.16782   0.88720   0.00000  Uiso   1.00
H705   H     0.51727   0.15065   0.92732   0.00000  Uiso   1.00
H706   H     0.98271   0.34936   0.07270   0.00000  Uiso   1.00
H707   H     0.50988   0.33218   0.11278   0.00000  Uiso   1.00
H708   H     0.96786   0.35621   0.12159   0.00000  Uiso   1.00
O709   O     0.75000  -0.00000   0.25000   0.00000  Uiso   1.00
O710   O     0.75000   0.46963   0.66245   0.00000  Uiso   1.00
O711   O     0.81171   0.40246   0.16849   0.00000  Uiso   1.00
O712   O     0.84708   0.29495   0.19241   0.00000  Uiso   1.00
O713   O     0.90246   0.31174   0.16848   0.00000  Uiso   1.00
O714   O     0.65291   0.20505   0.80759   0.00000  Uiso   1.00
O715   O     0.59754   0.18826   0.83153   0.00000  Uiso   1.00
O716   O     0.78140   0.12810   0.21181   0.00000  Uiso   1.00
O717   O     0.78290   0.17423   0.25570   0.00000  Uiso   1.00
O718   O     0.71860   0.37190   0.78819   0.00000  Uiso   1.00
O719   O     0.71710   0.32577   0.74430   0.00000  Uiso   1.00
O720   O     0.65328   0.20526   0.19242   0.00000  Uiso   1.00
O721   O     0.96964   0.25000   0.33755   0.00000  Uiso   1.00
O722   O     0.59791   0.18879   0.16859   0.00000  Uiso   1.00
O723   O     0.84672   0.29474   0.80758   0.00000  Uiso   1.00
O724   O     0.90209   0.31121   0.83142   0.00000  Uiso   1.00
O725   O     0.71005   0.34686   0.20377   0.00000  Uiso   1.00
O726   O     0.72605   0.35401   0.26689   0.00000  Uiso   1.00
O727   O     0.78995   0.15313   0.79624   0.00000  Uiso   1.00
O728   O     0.77395   0.14599   0.73311   0.00000  Uiso   1.00
O729   O     0.94625   0.28900   0.39850   0.00000  Uiso   1.00
O730   O     0.55375   0.21100   0.60150   0.00000  Uiso   1.00
O731   O     0.71086   0.05361   0.39841   0.00000  Uiso   1.00
O732   O     0.53037   0.25000   0.66245   0.00000  Uiso   1.00
O733   O     0.78915   0.44639   0.60159   0.00000  Uiso   1.00
O734   O     0.55356   0.21078   0.39841   0.00000  Uiso   1.00
O735   O     0.94645   0.28923   0.60159   0.00000  Uiso   1.00
O736   O     0.78892   0.44619   0.39850   0.00000  Uiso   1.00
O737   O     0.71108   0.05380   0.60150   0.00000  Uiso   1.00
O738   O     0.69622   0.03895   0.89850   0.00000  Uiso   1.00
O739   O     0.80378   0.46105   0.10150   0.00000  Uiso   1.00
O740   O     0.96088   0.30363   0.89841   0.00000  Uiso   1.00
O741   O     0.53913   0.19638   0.10159   0.00000  Uiso   1.00
O742   O     0.80359   0.46082   0.89841   0.00000  Uiso   1.00
O743   O     0.50000   0.21963   0.83755   0.00000  Uiso   1.00
O744   O     0.69641   0.03917   0.10159   0.00000  Uiso   1.00
O745   O     0.53890   0.19617   0.89850   0.00000  Uiso   1.00
O746   O     0.96110   0.30382   0.10150   0.00000  Uiso   1.00
O747   O     0.50000   0.28036   0.16245   0.00000  Uiso   1.00
O748   O     0.78037  -0.00000   0.83755   0.00000  Uiso   1.00
O749   O     0.71964  -0.00000   0.16245   0.00000  Uiso   1.00
O750   O     0.50000   0.28036   0.83755   0.00000  Uiso   1.00
O751   O     0.50000   0.21963   0.16245   0.00000  Uiso   1.00
O752   O     0.71964  -0.00000   0.83755   0.00000  Uiso   1.00
O753   O     0.75000  -0.00000   0.75000   0.00000  Uiso   1.00
O754   O     0.78037  -0.00000   0.16245   0.00000  Uiso   1.00
O755   O     0.70725   0.07307   0.27302   0.00000  Uiso   1.00
O756   O     0.79276   0.42692   0.72698   0.00000  Uiso   1.00
O757   O     0.92693   0.20724   0.27302   0.00000  Uiso   1.00
O758   O     0.57308   0.29275   0.72698   0.00000  Uiso   1.00
O759   O     0.79276   0.42692   0.27302   0.00000  Uiso   1.00
O760   O     0.70725   0.07307   0.72698   0.00000  Uiso   1.00
O761   O     0.57308   0.29275   0.27302   0.00000  Uiso   1.00
O762   O     0.92693   0.20724   0.72698   0.00000  Uiso   1.00
O763   O     0.70725   0.42692   0.72698   0.00000  Uiso   1.00
O764   O     0.50000   0.25000   0.25000   0.00000  Uiso   1.00
O765   O     0.79276   0.07307   0.27302   0.00000  Uiso   1.00
O766   O     0.92693   0.29275   0.72698   0.00000  Uiso   1.00
O767   O     0.57308   0.20724   0.27302   0.00000  Uiso   1.00
O768   O     0.79276   0.07307   0.72698   0.00000  Uiso   1.00
O769   O     0.70725   0.42692   0.27302   0.00000  Uiso   1.00
O770   O     0.57308   0.20724   0.72698   0.00000  Uiso   1.00
O771   O     0.92693   0.29275   0.27302   0.00000  Uiso   1.00
O772   O     0.95725   0.32307   0.77302   0.00000  Uiso   1.00
O773   O     0.54276   0.17692   0.22698   0.00000  Uiso   1.00
O774   O     0.67693   0.45724   0.77302   0.00000  Uiso   1.00
O775   O     0.50000   0.25000   0.75000   0.00000  Uiso   1.00
O776   O     0.82308   0.04275   0.22698   0.00000  Uiso   1.00
O777   O     0.54276   0.17692   0.77302   0.00000  Uiso   1.00
O778   O     0.95725   0.32307   0.22698   0.00000  Uiso   1.00
O779   O     0.82308   0.04275   0.77302   0.00000  Uiso   1.00
O780   O     0.67693   0.45724   0.22698   0.00000  Uiso   1.00
O781   O     0.95725   0.17692   0.22698   0.00000  Uiso   1.00
O782   O     0.54276   0.32307   0.77302   0.00000  Uiso   1.00
O783   O     0.67693   0.04275   0.22698   0.00000  Uiso   1.00
O784   O     0.82308   0.45724   0.77302   0.00000  Uiso   1.00
O785   O     0.54276   0.32307   0.22698   0.00000  Uiso   1.00
O786   O     0.75000   0.46963   0.33755   0.00000  Uiso   1.00
O787   O     0.95725   0.17692   0.77302   0.00000  Uiso   1.00
O788   O     0.82308   0.45724   0.22698   0.00000  Uiso   1.00
O789   O     0.67693   0.04275   0.77302   0.00000  Uiso   1.00
O790   O     0.62190   0.46859   0.28819   0.00000  Uiso   1.00
O791   O     0.57577   0.46709   0.24431   0.00000  Uiso   1.00
O792   O     0.87810   0.03141   0.71181   0.00000  Uiso   1.00
O793   O     0.92423   0.03290   0.75569   0.00000  Uiso   1.00
O794   O     0.54474   0.09670   0.30757   0.00000  Uiso   1.00
O795   O     0.56119   0.15208   0.33140   0.00000  Uiso   1.00
O796   O     0.95526   0.40330   0.69243   0.00000  Uiso   1.00
O797   O     0.75000   0.03036   0.66245   0.00000  Uiso   1.00
O798   O     0.93882   0.34792   0.66860   0.00000  Uiso   1.00
O799   O     0.90314   0.03995   0.29623   0.00000  Uiso   1.00
O800   O     0.89599   0.02396   0.23310   0.00000  Uiso   1.00
O801   O     0.59687   0.46005   0.70377   0.00000  Uiso   1.00
O802   O     0.60401   0.47604   0.76689   0.00000  Uiso   1.00
O803   O     0.95504   0.40294   0.30758   0.00000  Uiso   1.00
O804   O     0.93830   0.34755   0.33150   0.00000  Uiso   1.00
O805   O     0.54496   0.09706   0.69242   0.00000  Uiso   1.00
O806   O     0.56170   0.15245   0.66850   0.00000  Uiso   1.00
O807   O     0.59708   0.04495   0.69242   0.00000  Uiso   1.00
O808   O     0.53037   0.25000   0.33755   0.00000  Uiso   1.00
O809   O     0.65246   0.06174   0.66848   0.00000  Uiso   1.00
O810   O     0.90292   0.45505   0.30758   0.00000  Uiso   1.00
O811   O     0.84755   0.43826   0.33153   0.00000  Uiso   1.00
O812   O     0.53141   0.37810   0.71181   0.00000  Uiso   1.00
O813   O     0.53290   0.42423   0.75570   0.00000  Uiso   1.00
O814   O     0.96860   0.12189   0.28819   0.00000  Uiso   1.00
O815   O     0.96710   0.07577   0.24430   0.00000  Uiso   1.00
O816   O     0.90328   0.45526   0.69242   0.00000  Uiso   1.00
O817   O     0.84792   0.43879   0.66858   0.00000  Uiso   1.00
O818   O     0.59672   0.04474   0.30758   0.00000  Uiso   1.00
O819   O     0.96964   0.25000   0.66245   0.00000  Uiso   1.00
O820   O     0.65208   0.06121   0.33142   0.00000  Uiso   1.00
O821   O     0.96005   0.09687   0.70377   0.00000  Uiso   1.00
O822   O     0.97605   0.10401   0.76689   0.00000  Uiso   1.00
O823   O     0.53995   0.40313   0.29623   0.00000  Uiso   1.00
O824   O     0.52395   0.39599   0.23311   0.00000  Uiso   1.00
O825   O     0.87190   0.21859   0.78819   0.00000  Uiso   1.00
O826   O     0.82577   0.21710   0.74431   0.00000  Uiso   1.00
O827   O     0.62810   0.28141   0.21181   0.00000  Uiso   1.00
O828   O     0.67423   0.28290   0.25569   0.00000  Uiso   1.00
O829   O     0.79474   0.34671   0.80758   0.00000  Uiso   1.00
O830   O     0.75000   0.03036   0.33755   0.00000  Uiso   1.00
O831   O     0.81119   0.40208   0.83140   0.00000  Uiso   1.00
O832   O     0.70526   0.15329   0.19242   0.00000  Uiso   1.00
O833   O     0.68880   0.09792   0.16859   0.00000  Uiso   1.00
O834   O     0.65314   0.28995   0.79623   0.00000  Uiso   1.00
O835   O     0.64599   0.27395   0.73311   0.00000  Uiso   1.00
O836   O     0.84686   0.21005   0.20377   0.00000  Uiso   1.00
O837   O     0.85401   0.22604   0.26689   0.00000  Uiso   1.00
O838   O     0.70504   0.15294   0.80759   0.00000  Uiso   1.00
O839   O     0.68829   0.09754   0.83151   0.00000  Uiso   1.00
O840   O     0.79496   0.34706   0.19241   0.00000  Uiso   1.00
Zn841  Zn    0.70660  -0.00000   0.21735   0.00000  Uiso   1.00
Zn842  Zn    0.54341   0.25000   0.28265   0.00000  Uiso   1.00
Zn843  Zn    0.75000   0.45659   0.71735   0.00000  Uiso   1.00
Zn844  Zn    0.75000   0.04340   0.28265   0.00000  Uiso   1.00
Zn845  Zn    0.54341   0.25000   0.71735   0.00000  Uiso   1.00
Zn846  Zn    0.95660   0.25000   0.28265   0.00000  Uiso   1.00
Zn847  Zn    0.75000   0.04340   0.71735   0.00000  Uiso   1.00
Zn848  Zn    0.75000   0.45659   0.28265   0.00000  Uiso   1.00
Zn849  Zn    0.79341  -0.00000   0.78265   0.00000  Uiso   1.00
Zn850  Zn    0.50000   0.20659   0.21735   0.00000  Uiso   1.00
Zn851  Zn    0.50000   0.29340   0.78265   0.00000  Uiso   1.00
Zn852  Zn    0.79341  -0.00000   0.21735   0.00000  Uiso   1.00
Zn853  Zn    0.70660  -0.00000   0.78265   0.00000  Uiso   1.00
Zn854  Zn    0.50000   0.29340   0.21735   0.00000  Uiso   1.00
Zn855  Zn    0.50000   0.20659   0.78265   0.00000  Uiso   1.00
Zn856  Zn    0.95660   0.25000   0.71735   0.00000  Uiso   1.00
C857   C     0.47258   0.76944   0.41870   0.00000  Uiso   1.00
C858   C     0.27743   0.98059   0.08130   0.00000  Uiso   1.00
C859   C     0.22862   0.52589   0.54073   0.00000  Uiso   1.00
C860   C     0.47414   0.77142   0.45927   0.00000  Uiso   1.00
C861   C     0.02586   0.72858   0.54073   0.00000  Uiso   1.00
C862   C     0.22850   0.52578   0.45925   0.00000  Uiso   1.00
C863   C     0.27150   0.97422   0.54075   0.00000  Uiso   1.00
C864   C     0.27577   0.97849   0.95925   0.00000  Uiso   1.00
C865   C     0.22423   0.52151   0.04075   0.00000  Uiso   1.00
C866   C     0.02137   0.72410   0.95927   0.00000  Uiso   1.00
C867   C     0.47863   0.77590   0.04073   0.00000  Uiso   1.00
C868   C     0.22412   0.52139   0.95927   0.00000  Uiso   1.00
C869   C     0.48042   0.77728   0.91866   0.00000  Uiso   1.00
C870   C     0.27588   0.97861   0.04073   0.00000  Uiso   1.00
C871   C     0.47852   0.77579   0.95925   0.00000  Uiso   1.00
C872   C     0.02149   0.72421   0.04075   0.00000  Uiso   1.00
C873   C     0.09797   0.84818   0.24914   0.00000  Uiso   1.00
C874   C     0.40203   0.65182   0.75086   0.00000  Uiso   1.00
C875   C     0.15196   0.59804   0.25000   0.00000  Uiso   1.00
C876   C     0.34804   0.90196   0.75000   0.00000  Uiso   1.00
C877   C     0.40182   0.65203   0.25086   0.00000  Uiso   1.00
C878   C     0.09818   0.84797   0.74914   0.00000  Uiso   1.00
C879   C     0.34805   0.90195   0.25000   0.00000  Uiso   1.00
C880   C     0.01958   0.72272   0.08134   0.00000  Uiso   1.00
C881   C     0.15195   0.59805   0.75000   0.00000  Uiso   1.00
C882   C     0.09805   0.65195   0.75000   0.00000  Uiso   1.00
C883   C     0.40195   0.84805   0.25000   0.00000  Uiso   1.00
C884   C     0.15182   0.90203   0.75086   0.00000  Uiso   1.00
C885   C     0.34818   0.59797   0.24914   0.00000  Uiso   1.00
C886   C     0.40196   0.84804   0.75000   0.00000  Uiso   1.00
C887   C     0.09804   0.65196   0.25000   0.00000  Uiso   1.00
C888   C     0.34797   0.59818   0.74914   0.00000  Uiso   1.00
C889   C     0.15203   0.90182   0.25086   0.00000  Uiso   1.00
C890   C     0.49997   0.74997   0.47959   0.00000  Uiso   1.00
C891   C     0.27726   0.98039   0.91866   0.00000  Uiso   1.00
C892   C     0.00002   0.75003   0.52041   0.00000  Uiso   1.00
C893   C     0.24997   0.99997   0.47959   0.00000  Uiso   1.00
C894   C     0.25003   0.50003   0.52041   0.00000  Uiso   1.00
C895   C     0.24997   0.99997   0.97959   0.00000  Uiso   1.00
C896   C     0.25003   0.50003   0.02041   0.00000  Uiso   1.00
C897   C     0.49997   0.74997   0.97959   0.00000  Uiso   1.00
C898   C     0.00003   0.75003   0.02041   0.00000  Uiso   1.00
C899   C     0.10489   0.95091   0.26427   0.00000  Uiso   1.00
C900   C     0.39512   0.54909   0.73573   0.00000  Uiso   1.00
C901   C     0.06579   0.62258   0.30618   0.00000  Uiso   1.00
C902   C     0.22274   0.51960   0.08134   0.00000  Uiso   1.00
C903   C     0.43421   0.87742   0.69382   0.00000  Uiso   1.00
C904   C     0.39506   0.54928   0.26333   0.00000  Uiso   1.00
C905   C     0.10494   0.95072   0.73667   0.00000  Uiso   1.00
C906   C     0.43393   0.87714   0.30621   0.00000  Uiso   1.00
C907   C     0.06607   0.62287   0.69379   0.00000  Uiso   1.00
C908   C     0.12288   0.56608   0.69378   0.00000  Uiso   1.00
C909   C     0.37712   0.93392   0.30622   0.00000  Uiso   1.00
C910   C     0.04909   0.89512   0.73573   0.00000  Uiso   1.00
C911   C     0.45091   0.60488   0.26427   0.00000  Uiso   1.00
C912   C     0.37742   0.93421   0.69382   0.00000  Uiso   1.00
C913   C     0.01939   0.72255   0.91870   0.00000  Uiso   1.00
C914   C     0.12259   0.56579   0.30619   0.00000  Uiso   1.00
C915   C     0.45072   0.60494   0.73666   0.00000  Uiso   1.00
C916   C     0.04928   0.89506   0.26334   0.00000  Uiso   1.00
C917   C     0.35489   0.70091   0.76427   0.00000  Uiso   1.00
C918   C     0.14512   0.79909   0.23573   0.00000  Uiso   1.00
C919   C     0.31579   0.87258   0.80618   0.00000  Uiso   1.00
C920   C     0.18421   0.62742   0.19382   0.00000  Uiso   1.00
C921   C     0.14506   0.79928   0.76334   0.00000  Uiso   1.00
C922   C     0.35494   0.70072   0.23667   0.00000  Uiso   1.00
C923   C     0.18392   0.62713   0.80622   0.00000  Uiso   1.00
C924   C     0.48061   0.77745   0.08130   0.00000  Uiso   1.00
C925   C     0.31608   0.87287   0.19378   0.00000  Uiso   1.00
C926   C     0.37288   0.81608   0.19378   0.00000  Uiso   1.00
C927   C     0.12712   0.68392   0.80623   0.00000  Uiso   1.00
C928   C     0.29909   0.64512   0.23573   0.00000  Uiso   1.00
C929   C     0.20091   0.85488   0.76427   0.00000  Uiso   1.00
C930   C     0.12741   0.68421   0.19381   0.00000  Uiso   1.00
C931   C     0.37259   0.81579   0.80619   0.00000  Uiso   1.00
C932   C     0.20072   0.85494   0.23666   0.00000  Uiso   1.00
C933   C     0.29928   0.64506   0.76334   0.00000  Uiso   1.00
C934   C     0.41348   0.76861   0.39815   0.00000  Uiso   1.00
C935   C     0.49991   0.74991   0.39842   0.00000  Uiso   1.00
C936   C     0.08652   0.73140   0.60185   0.00000  Uiso   1.00
C937   C     0.23124   0.58640   0.39779   0.00000  Uiso   1.00
C938   C     0.26876   0.91360   0.60221   0.00000  Uiso   1.00
C939   C     0.08638   0.73111   0.39782   0.00000  Uiso   1.00
C940   C     0.41363   0.76890   0.60221   0.00000  Uiso   1.00
C941   C     0.26847   0.91345   0.39815   0.00000  Uiso   1.00
C942   C     0.23152   0.58655   0.60185   0.00000  Uiso   1.00
C943   C     0.16346   0.51852   0.89815   0.00000  Uiso   1.00
C944   C     0.33654   0.98148   0.10185   0.00000  Uiso   1.00
C945   C     0.48129   0.83640   0.89779   0.00000  Uiso   1.00
C946   C     0.00009   0.75009   0.60158   0.00000  Uiso   1.00
C947   C     0.01873   0.66360   0.10221   0.00000  Uiso   1.00
C948   C     0.33639   0.98119   0.89779   0.00000  Uiso   1.00
C949   C     0.16361   0.51881   0.10221   0.00000  Uiso   1.00
C950   C     0.01843   0.66344   0.89815   0.00000  Uiso   1.00
C951   C     0.48156   0.83655   0.10185   0.00000  Uiso   1.00
C952   C     0.24991   0.99991   0.39842   0.00000  Uiso   1.00
C953   C     0.02742   0.73056   0.58130   0.00000  Uiso   1.00
C954   C     0.25009   0.50009   0.60158   0.00000  Uiso   1.00
C955   C     0.24991   0.99991   0.89842   0.00000  Uiso   1.00
C956   C     0.25009   0.50009   0.10158   0.00000  Uiso   1.00
C957   C     0.49991   0.74991   0.89842   0.00000  Uiso   1.00
C958   C     0.00009   0.75009   0.10158   0.00000  Uiso   1.00
C959   C     0.04958   0.70545   0.47990   0.00000  Uiso   1.00
C960   C     0.45042   0.79456   0.52011   0.00000  Uiso   1.00
C961   C     0.29441   0.95029   0.47991   0.00000  Uiso   1.00
C962   C     0.20559   0.54970   0.52009   0.00000  Uiso   1.00
C963   C     0.45036   0.79449   0.47991   0.00000  Uiso   1.00
C964   C     0.23041   0.52727   0.41866   0.00000  Uiso   1.00
C965   C     0.04964   0.70551   0.52009   0.00000  Uiso   1.00
C966   C     0.20552   0.54964   0.47989   0.00000  Uiso   1.00
C967   C     0.29448   0.95036   0.52011   0.00000  Uiso   1.00
C968   C     0.29962   0.95549   0.97990   0.00000  Uiso   1.00
C969   C     0.20038   0.54451   0.02010   0.00000  Uiso   1.00
C970   C     0.04439   0.70027   0.97991   0.00000  Uiso   1.00
C971   C     0.45561   0.79973   0.02009   0.00000  Uiso   1.00
C972   C     0.20032   0.54444   0.97991   0.00000  Uiso   1.00
C973   C     0.29968   0.95556   0.02009   0.00000  Uiso   1.00
C974   C     0.45554   0.79967   0.97989   0.00000  Uiso   1.00
C975   C     0.26959   0.97273   0.58134   0.00000  Uiso   1.00
C976   C     0.04446   0.70033   0.02011   0.00000  Uiso   1.00
C977   C     0.24997   0.99996   0.35596   0.00000  Uiso   1.00
C978   C     0.25003   0.50004   0.64404   0.00000  Uiso   1.00
C979   C     0.49996   0.74998   0.35596   0.00000  Uiso   1.00
C980   C     0.00004   0.75003   0.64404   0.00000  Uiso   1.00
C981   C     0.49997   0.74996   0.85596   0.00000  Uiso   1.00
C982   C     0.00003   0.75004   0.14404   0.00000  Uiso   1.00
C983   C     0.24996   0.99997   0.85596   0.00000  Uiso   1.00
C984   C     0.25004   0.50002   0.14404   0.00000  Uiso   1.00
C985   C     0.18008   0.56992   0.25000   0.00000  Uiso   1.00
C986   C     0.02725   0.73038   0.41866   0.00000  Uiso   1.00
C987   C     0.31992   0.93007   0.75000   0.00000  Uiso   1.00
C988   C     0.42987   0.68019   0.24997   0.00000  Uiso   1.00
C989   C     0.07013   0.81981   0.75003   0.00000  Uiso   1.00
C990   C     0.31995   0.93005   0.25000   0.00000  Uiso   1.00
C991   C     0.18005   0.56995   0.75000   0.00000  Uiso   1.00
C992   C     0.06981   0.82013   0.25003   0.00000  Uiso   1.00
C993   C     0.43019   0.67987   0.74997   0.00000  Uiso   1.00
C994   C     0.17987   0.93019   0.74997   0.00000  Uiso   1.00
C995   C     0.32013   0.56981   0.25003   0.00000  Uiso   1.00
C996   C     0.43008   0.81992   0.75000   0.00000  Uiso   1.00
C997   C     0.47276   0.76963   0.58135   0.00000  Uiso   1.00
C998   C     0.06992   0.68007   0.25000   0.00000  Uiso   1.00
C999   C     0.31981   0.57013   0.75003   0.00000  Uiso   1.00
C1000  C     0.18019   0.92987   0.24997   0.00000  Uiso   1.00
C1001  C     0.06995   0.68005   0.75000   0.00000  Uiso   1.00
C1002  C     0.43005   0.81995   0.25000   0.00000  Uiso   1.00
C1003  C     0.11511   0.91208   0.25645   0.00000  Uiso   1.00
C1004  C     0.38489   0.58792   0.74355   0.00000  Uiso   1.00
C1005  C     0.09589   0.62315   0.27713   0.00000  Uiso   1.00
C1006  C     0.40411   0.87685   0.72287   0.00000  Uiso   1.00
C1007  C     0.38507   0.58794   0.25529   0.00000  Uiso   1.00
C1008  C     0.26940   0.97256   0.41870   0.00000  Uiso   1.00
C1009  C     0.11493   0.91206   0.74471   0.00000  Uiso   1.00
C1010  C     0.40398   0.87672   0.27714   0.00000  Uiso   1.00
C1011  C     0.09602   0.62328   0.72286   0.00000  Uiso   1.00
C1012  C     0.12328   0.59602   0.72286   0.00000  Uiso   1.00
C1013  C     0.37672   0.90398   0.27714   0.00000  Uiso   1.00
C1014  C     0.08792   0.88489   0.74355   0.00000  Uiso   1.00
C1015  C     0.41208   0.61511   0.25645   0.00000  Uiso   1.00
C1016  C     0.37685   0.90411   0.72287   0.00000  Uiso   1.00
C1017  C     0.12315   0.59589   0.27714   0.00000  Uiso   1.00
C1018  C     0.41206   0.61493   0.74471   0.00000  Uiso   1.00
C1019  C     0.23060   0.52744   0.58130   0.00000  Uiso   1.00
C1020  C     0.08794   0.88507   0.25529   0.00000  Uiso   1.00
C1021  C     0.36511   0.66208   0.75645   0.00000  Uiso   1.00
C1022  C     0.13489   0.83792   0.24355   0.00000  Uiso   1.00
C1023  C     0.34590   0.87315   0.77714   0.00000  Uiso   1.00
C1024  C     0.15411   0.62685   0.22286   0.00000  Uiso   1.00
C1025  C     0.13507   0.83794   0.75529   0.00000  Uiso   1.00
C1026  C     0.36493   0.66206   0.24471   0.00000  Uiso   1.00
C1027  C     0.15397   0.62672   0.77714   0.00000  Uiso   1.00
C1028  C     0.34603   0.87328   0.22286   0.00000  Uiso   1.00
C1029  C     0.37328   0.84602   0.22286   0.00000  Uiso   1.00
C1030  C     0.22257   0.51941   0.91870   0.00000  Uiso   1.00
C1031  C     0.12672   0.65397   0.77714   0.00000  Uiso   1.00
C1032  C     0.33792   0.63489   0.24355   0.00000  Uiso   1.00
C1033  C     0.16208   0.86511   0.75645   0.00000  Uiso   1.00
C1034  C     0.12685   0.65410   0.22286   0.00000  Uiso   1.00
C1035  C     0.37315   0.84589   0.77714   0.00000  Uiso   1.00
C1036  C     0.16206   0.86493   0.24471   0.00000  Uiso   1.00
C1037  C     0.33794   0.63507   0.75529   0.00000  Uiso   1.00
C1038  C     0.02575   0.72847   0.45925   0.00000  Uiso   1.00
C1039  C     0.47425   0.77154   0.54075   0.00000  Uiso   1.00
C1040  C     0.27138   0.97411   0.45927   0.00000  Uiso   1.00
H1041  H     0.06840   0.68728   0.46510   0.00000  Uiso   1.00
H1042  H     0.18154   0.56266   0.03490   0.00000  Uiso   1.00
H1043  H     0.06246   0.68136   0.96511   0.00000  Uiso   1.00
H1044  H     0.43754   0.81864   0.03489   0.00000  Uiso   1.00
H1045  H     0.18142   0.56253   0.96511   0.00000  Uiso   1.00
H1046  H     0.31858   0.93747   0.03489   0.00000  Uiso   1.00
H1047  H     0.43741   0.81853   0.96510   0.00000  Uiso   1.00
H1048  H     0.06259   0.68148   0.03490   0.00000  Uiso   1.00
H1049  H     0.07152   0.99349   0.25209   0.00000  Uiso   1.00
H1050  H     0.42848   0.50650   0.74791   0.00000  Uiso   1.00
H1051  H     0.03949   0.64880   0.34940   0.00000  Uiso   1.00
H1052  H     0.43160   0.81273   0.53490   0.00000  Uiso   1.00
H1053  H     0.46051   0.85120   0.65060   0.00000  Uiso   1.00
H1054  H     0.40338   0.99857   0.24207   0.00000  Uiso   1.00
H1055  H     0.09662   0.50143   0.75793   0.00000  Uiso   1.00
H1056  H     0.45990   0.85072   0.34952   0.00000  Uiso   1.00
H1057  H     0.04010   0.64928   0.65048   0.00000  Uiso   1.00
H1058  H     0.14930   0.54014   0.65045   0.00000  Uiso   1.00
H1059  H     0.35070   0.95986   0.34955   0.00000  Uiso   1.00
H1060  H     0.00650   0.92848   0.74792   0.00000  Uiso   1.00
H1061  H     0.49350   0.57152   0.25208   0.00000  Uiso   1.00
H1062  H     0.35118   0.96048   0.65058   0.00000  Uiso   1.00
H1063  H     0.31249   0.93139   0.46511   0.00000  Uiso   1.00
H1064  H     0.14882   0.53952   0.34942   0.00000  Uiso   1.00
H1065  H     0.00143   0.59663   0.75792   0.00000  Uiso   1.00
H1066  H     0.49857   0.90337   0.24208   0.00000  Uiso   1.00
H1067  H     0.32152   0.74350   0.75209   0.00000  Uiso   1.00
H1068  H     0.17849   0.75650   0.24791   0.00000  Uiso   1.00
H1069  H     0.28950   0.89881   0.84941   0.00000  Uiso   1.00
H1070  H     0.21050   0.60119   0.15059   0.00000  Uiso   1.00
H1071  H     0.15338   0.74857   0.74208   0.00000  Uiso   1.00
H1072  H     0.34662   0.75143   0.25792   0.00000  Uiso   1.00
H1073  H     0.20988   0.60071   0.84953   0.00000  Uiso   1.00
H1074  H     0.18751   0.56861   0.53489   0.00000  Uiso   1.00
H1075  H     0.29012   0.89929   0.15047   0.00000  Uiso   1.00
H1076  H     0.39930   0.79014   0.15045   0.00000  Uiso   1.00
H1077  H     0.10070   0.70985   0.84955   0.00000  Uiso   1.00
H1078  H     0.25650   0.67848   0.24792   0.00000  Uiso   1.00
H1079  H     0.24350   0.82152   0.75209   0.00000  Uiso   1.00
H1080  H     0.10118   0.71048   0.15058   0.00000  Uiso   1.00
H1081  H     0.39882   0.78952   0.84942   0.00000  Uiso   1.00
H1082  H     0.25143   0.84663   0.25792   0.00000  Uiso   1.00
H1083  H     0.24857   0.65337   0.74208   0.00000  Uiso   1.00
H1084  H     0.40067   0.76748   0.42731   0.00000  Uiso   1.00
H1085  H     0.43148   0.81260   0.46511   0.00000  Uiso   1.00
H1086  H     0.41779   0.74028   0.38721   0.00000  Uiso   1.00
H1087  H     0.39383   0.78235   0.37842   0.00000  Uiso   1.00
H1088  H     0.10617   0.71765   0.62158   0.00000  Uiso   1.00
H1089  H     0.08221   0.75972   0.61280   0.00000  Uiso   1.00
H1090  H     0.09932   0.73252   0.57268   0.00000  Uiso   1.00
H1091  H     0.25961   0.58208   0.38687   0.00000  Uiso   1.00
H1092  H     0.23224   0.59927   0.42686   0.00000  Uiso   1.00
H1093  H     0.21756   0.60599   0.37793   0.00000  Uiso   1.00
H1094  H     0.26778   0.90072   0.57315   0.00000  Uiso   1.00
H1095  H     0.24038   0.91792   0.61311   0.00000  Uiso   1.00
H1096  H     0.06851   0.68740   0.53489   0.00000  Uiso   1.00
H1097  H     0.28243   0.89402   0.62209   0.00000  Uiso   1.00
H1098  H     0.09919   0.73217   0.42688   0.00000  Uiso   1.00
H1099  H     0.08213   0.75945   0.38682   0.00000  Uiso   1.00
H1100  H     0.10598   0.71736   0.37804   0.00000  Uiso   1.00
H1101  H     0.41790   0.74052   0.61309   0.00000  Uiso   1.00
H1102  H     0.40075   0.76794   0.57317   0.00000  Uiso   1.00
H1103  H     0.39408   0.78259   0.62209   0.00000  Uiso   1.00
H1104  H     0.28219   0.89379   0.37842   0.00000  Uiso   1.00
H1105  H     0.24016   0.91782   0.38721   0.00000  Uiso   1.00
H1106  H     0.26732   0.90065   0.42731   0.00000  Uiso   1.00
H1107  H     0.18738   0.56849   0.46510   0.00000  Uiso   1.00
H1108  H     0.23271   0.59933   0.57268   0.00000  Uiso   1.00
H1109  H     0.25982   0.58220   0.61283   0.00000  Uiso   1.00
H1110  H     0.21778   0.60623   0.62153   0.00000  Uiso   1.00
H1111  H     0.16781   0.99020   0.88721   0.00000  Uiso   1.00
H1112  H     0.14381   0.53224   0.87842   0.00000  Uiso   1.00
H1113  H     0.15066   0.51738   0.92731   0.00000  Uiso   1.00
H1114  H     0.35619   0.96775   0.12159   0.00000  Uiso   1.00
H1115  H     0.33219   0.50980   0.11279   0.00000  Uiso   1.00
H1116  H     0.34934   0.98261   0.07270   0.00000  Uiso   1.00
H1117  H     0.00967   0.83207   0.88691   0.00000  Uiso   1.00
H1118  H     0.31262   0.93151   0.53490   0.00000  Uiso   1.00
H1119  H     0.48226   0.84929   0.92684   0.00000  Uiso   1.00
H1120  H     0.46764   0.85599   0.87790   0.00000  Uiso   1.00
H1121  H     0.01775   0.65071   0.07317   0.00000  Uiso   1.00
H1122  H     0.49034   0.66793   0.11309   0.00000  Uiso   1.00
H1123  H     0.03237   0.64402   0.12211   0.00000  Uiso   1.00
H1124  H     0.34927   0.98216   0.92685   0.00000  Uiso   1.00
H1125  H     0.33208   0.50957   0.88690   0.00000  Uiso   1.00
H1126  H     0.35596   0.96751   0.87790   0.00000  Uiso   1.00
H1127  H     0.16792   0.99042   0.11309   0.00000  Uiso   1.00
H1128  H     0.15072   0.51784   0.07315   0.00000  Uiso   1.00
H1129  H     0.31846   0.93734   0.96510   0.00000  Uiso   1.00
H1130  H     0.14404   0.53247   0.12211   0.00000  Uiso   1.00
H1131  H     0.03214   0.64377   0.87843   0.00000  Uiso   1.00
H1132  H     0.49012   0.66782   0.88720   0.00000  Uiso   1.00
H1133  H     0.01727   0.65065   0.92732   0.00000  Uiso   1.00
H1134  H     0.48271   0.84936   0.07270   0.00000  Uiso   1.00
H1135  H     0.00988   0.83218   0.11278   0.00000  Uiso   1.00
H1136  H     0.46786   0.85621   0.12159   0.00000  Uiso   1.00
O1137  O     0.25000   0.50000   0.25000   0.00000  Uiso   1.00
O1138  O     0.25000   0.96963   0.66245   0.00000  Uiso   1.00
O1139  O     0.31171   0.90246   0.16849   0.00000  Uiso   1.00
O1140  O     0.34708   0.79495   0.19241   0.00000  Uiso   1.00
O1141  O     0.40246   0.81174   0.16848   0.00000  Uiso   1.00
O1142  O     0.15291   0.70505   0.80759   0.00000  Uiso   1.00
O1143  O     0.09754   0.68826   0.83153   0.00000  Uiso   1.00
O1144  O     0.28140   0.62810   0.21181   0.00000  Uiso   1.00
O1145  O     0.28290   0.67423   0.25570   0.00000  Uiso   1.00
O1146  O     0.21860   0.87190   0.78819   0.00000  Uiso   1.00
O1147  O     0.21710   0.82577   0.74430   0.00000  Uiso   1.00
O1148  O     0.15328   0.70526   0.19242   0.00000  Uiso   1.00
O1149  O     0.46964   0.75000   0.33755   0.00000  Uiso   1.00
O1150  O     0.09791   0.68879   0.16859   0.00000  Uiso   1.00
O1151  O     0.34672   0.79474   0.80758   0.00000  Uiso   1.00
O1152  O     0.40209   0.81121   0.83142   0.00000  Uiso   1.00
O1153  O     0.21005   0.84686   0.20377   0.00000  Uiso   1.00
O1154  O     0.22605   0.85401   0.26689   0.00000  Uiso   1.00
O1155  O     0.28995   0.65313   0.79624   0.00000  Uiso   1.00
O1156  O     0.27395   0.64599   0.73311   0.00000  Uiso   1.00
O1157  O     0.44625   0.78900   0.39850   0.00000  Uiso   1.00
O1158  O     0.05375   0.71100   0.60150   0.00000  Uiso   1.00
O1159  O     0.21086   0.55361   0.39841   0.00000  Uiso   1.00
O1160  O     0.03037   0.75000   0.66245   0.00000  Uiso   1.00
O1161  O     0.28915   0.94639   0.60159   0.00000  Uiso   1.00
O1162  O     0.05356   0.71078   0.39841   0.00000  Uiso   1.00
O1163  O     0.44645   0.78923   0.60159   0.00000  Uiso   1.00
O1164  O     0.28892   0.94619   0.39850   0.00000  Uiso   1.00
O1165  O     0.21108   0.55380   0.60150   0.00000  Uiso   1.00
O1166  O     0.19622   0.53895   0.89850   0.00000  Uiso   1.00
O1167  O     0.30378   0.96105   0.10150   0.00000  Uiso   1.00
O1168  O     0.46088   0.80363   0.89841   0.00000  Uiso   1.00
O1169  O     0.03913   0.69638   0.10159   0.00000  Uiso   1.00
O1170  O     0.30359   0.96082   0.89841   0.00000  Uiso   1.00
O1171  O     0.00000   0.71963   0.83755   0.00000  Uiso   1.00
O1172  O     0.19641   0.53917   0.10159   0.00000  Uiso   1.00
O1173  O     0.03890   0.69617   0.89850   0.00000  Uiso   1.00
O1174  O     0.46110   0.80382   0.10150   0.00000  Uiso   1.00
O1175  O     0.00000   0.78036   0.16245   0.00000  Uiso   1.00
O1176  O     0.28037   0.50000   0.83755   0.00000  Uiso   1.00
O1177  O     0.21964   0.50000   0.16245   0.00000  Uiso   1.00
O1178  O     0.00000   0.78036   0.83755   0.00000  Uiso   1.00
O1179  O     0.00000   0.71963   0.16245   0.00000  Uiso   1.00
O1180  O     0.21964   0.50000   0.83755   0.00000  Uiso   1.00
O1181  O     0.25000   0.50000   0.75000   0.00000  Uiso   1.00
O1182  O     0.28037   0.50000   0.16245   0.00000  Uiso   1.00
O1183  O     0.20725   0.57307   0.27302   0.00000  Uiso   1.00
O1184  O     0.29276   0.92692   0.72698   0.00000  Uiso   1.00
O1185  O     0.42693   0.70724   0.27302   0.00000  Uiso   1.00
O1186  O     0.07308   0.79275   0.72698   0.00000  Uiso   1.00
O1187  O     0.29276   0.92692   0.27302   0.00000  Uiso   1.00
O1188  O     0.20725   0.57307   0.72698   0.00000  Uiso   1.00
O1189  O     0.07308   0.79275   0.27302   0.00000  Uiso   1.00
O1190  O     0.42693   0.70724   0.72698   0.00000  Uiso   1.00
O1191  O     0.20725   0.92692   0.72698   0.00000  Uiso   1.00
O1192  O     0.00000   0.75000   0.25000   0.00000  Uiso   1.00
O1193  O     0.29276   0.57307   0.27302   0.00000  Uiso   1.00
O1194  O     0.42693   0.79275   0.72698   0.00000  Uiso   1.00
O1195  O     0.07308   0.70724   0.27302   0.00000  Uiso   1.00
O1196  O     0.29276   0.57307   0.72698   0.00000  Uiso   1.00
O1197  O     0.20725   0.92692   0.27302   0.00000  Uiso   1.00
O1198  O     0.07308   0.70724   0.72698   0.00000  Uiso   1.00
O1199  O     0.42693   0.79275   0.27302   0.00000  Uiso   1.00
O1200  O     0.45725   0.82307   0.77302   0.00000  Uiso   1.00
O1201  O     0.04276   0.67692   0.22698   0.00000  Uiso   1.00
O1202  O     0.17693   0.95724   0.77302   0.00000  Uiso   1.00
O1203  O     0.00000   0.75000   0.75000   0.00000  Uiso   1.00
O1204  O     0.32308   0.54275   0.22698   0.00000  Uiso   1.00
O1205  O     0.04276   0.67692   0.77302   0.00000  Uiso   1.00
O1206  O     0.45725   0.82307   0.22698   0.00000  Uiso   1.00
O1207  O     0.32308   0.54275   0.77302   0.00000  Uiso   1.00
O1208  O     0.17693   0.95724   0.22698   0.00000  Uiso   1.00
O1209  O     0.45725   0.67692   0.22698   0.00000  Uiso   1.00
O1210  O     0.04276   0.82307   0.77302   0.00000  Uiso   1.00
O1211  O     0.17693   0.54275   0.22698   0.00000  Uiso   1.00
O1212  O     0.32308   0.95724   0.77302   0.00000  Uiso   1.00
O1213  O     0.04276   0.82307   0.22698   0.00000  Uiso   1.00
O1214  O     0.25000   0.96963   0.33755   0.00000  Uiso   1.00
O1215  O     0.45725   0.67692   0.77302   0.00000  Uiso   1.00
O1216  O     0.32308   0.95724   0.22698   0.00000  Uiso   1.00
O1217  O     0.17693   0.54275   0.77302   0.00000  Uiso   1.00
O1218  O     0.12190   0.96859   0.28819   0.00000  Uiso   1.00
O1219  O     0.07577   0.96709   0.24431   0.00000  Uiso   1.00
O1220  O     0.37810   0.53141   0.71181   0.00000  Uiso   1.00
O1221  O     0.42423   0.53290   0.75569   0.00000  Uiso   1.00
O1222  O     0.04474   0.59670   0.30757   0.00000  Uiso   1.00
O1223  O     0.06119   0.65208   0.33140   0.00000  Uiso   1.00
O1224  O     0.45526   0.90330   0.69243   0.00000  Uiso   1.00
O1225  O     0.25000   0.53036   0.66245   0.00000  Uiso   1.00
O1226  O     0.43882   0.84792   0.66860   0.00000  Uiso   1.00
O1227  O     0.40314   0.53995   0.29623   0.00000  Uiso   1.00
O1228  O     0.39599   0.52396   0.23310   0.00000  Uiso   1.00
O1229  O     0.09687   0.96005   0.70377   0.00000  Uiso   1.00
O1230  O     0.10401   0.97604   0.76689   0.00000  Uiso   1.00
O1231  O     0.45504   0.90294   0.30758   0.00000  Uiso   1.00
O1232  O     0.43830   0.84755   0.33150   0.00000  Uiso   1.00
O1233  O     0.04496   0.59706   0.69242   0.00000  Uiso   1.00
O1234  O     0.06170   0.65245   0.66850   0.00000  Uiso   1.00
O1235  O     0.09708   0.54495   0.69242   0.00000  Uiso   1.00
O1236  O     0.03037   0.75000   0.33755   0.00000  Uiso   1.00
O1237  O     0.15246   0.56174   0.66848   0.00000  Uiso   1.00
O1238  O     0.40292   0.95505   0.30758   0.00000  Uiso   1.00
O1239  O     0.34755   0.93826   0.33153   0.00000  Uiso   1.00
O1240  O     0.03141   0.87810   0.71181   0.00000  Uiso   1.00
O1241  O     0.03290   0.92423   0.75570   0.00000  Uiso   1.00
O1242  O     0.46860   0.62189   0.28819   0.00000  Uiso   1.00
O1243  O     0.46710   0.57577   0.24430   0.00000  Uiso   1.00
O1244  O     0.40328   0.95526   0.69242   0.00000  Uiso   1.00
O1245  O     0.34792   0.93879   0.66858   0.00000  Uiso   1.00
O1246  O     0.09672   0.54474   0.30758   0.00000  Uiso   1.00
O1247  O     0.46964   0.75000   0.66245   0.00000  Uiso   1.00
O1248  O     0.15208   0.56121   0.33142   0.00000  Uiso   1.00
O1249  O     0.46005   0.59687   0.70377   0.00000  Uiso   1.00
O1250  O     0.47605   0.60401   0.76689   0.00000  Uiso   1.00
O1251  O     0.03995   0.90313   0.29623   0.00000  Uiso   1.00
O1252  O     0.02395   0.89599   0.23311   0.00000  Uiso   1.00
O1253  O     0.37190   0.71859   0.78819   0.00000  Uiso   1.00
O1254  O     0.32577   0.71710   0.74431   0.00000  Uiso   1.00
O1255  O     0.12810   0.78141   0.21181   0.00000  Uiso   1.00
O1256  O     0.17423   0.78290   0.25569   0.00000  Uiso   1.00
O1257  O     0.29474   0.84671   0.80758   0.00000  Uiso   1.00
O1258  O     0.25000   0.53036   0.33755   0.00000  Uiso   1.00
O1259  O     0.31119   0.90208   0.83140   0.00000  Uiso   1.00
O1260  O     0.20526   0.65329   0.19242   0.00000  Uiso   1.00
O1261  O     0.18880   0.59792   0.16859   0.00000  Uiso   1.00
O1262  O     0.15314   0.78995   0.79623   0.00000  Uiso   1.00
O1263  O     0.14599   0.77395   0.73311   0.00000  Uiso   1.00
O1264  O     0.34686   0.71005   0.20377   0.00000  Uiso   1.00
O1265  O     0.35401   0.72604   0.26689   0.00000  Uiso   1.00
O1266  O     0.20504   0.65294   0.80759   0.00000  Uiso   1.00
O1267  O     0.18829   0.59754   0.83151   0.00000  Uiso   1.00
O1268  O     0.29496   0.84706   0.19241   0.00000  Uiso   1.00
Zn1269 Zn    0.20660   0.50000   0.21735   0.00000  Uiso   1.00
Zn1270 Zn    0.04341   0.75000   0.28265   0.00000  Uiso   1.00
Zn1271 Zn    0.25000   0.95659   0.71735   0.00000  Uiso   1.00
Zn1272 Zn    0.25000   0.54340   0.28265   0.00000  Uiso   1.00
Zn1273 Zn    0.04341   0.75000   0.71735   0.00000  Uiso   1.00
Zn1274 Zn    0.45660   0.75000   0.28265   0.00000  Uiso   1.00
Zn1275 Zn    0.25000   0.54340   0.71735   0.00000  Uiso   1.00
Zn1276 Zn    0.25000   0.95659   0.28265   0.00000  Uiso   1.00
Zn1277 Zn    0.29341   0.50000   0.78265   0.00000  Uiso   1.00
Zn1278 Zn    0.00000   0.70659   0.21735   0.00000  Uiso   1.00
Zn1279 Zn    0.00000   0.79340   0.78265   0.00000  Uiso   1.00
Zn1280 Zn    0.29341   0.50000   0.21735   0.00000  Uiso   1.00
Zn1281 Zn    0.20660   0.50000   0.78265   0.00000  Uiso   1.00
Zn1282 Zn    0.00000   0.79340   0.21735   0.00000  Uiso   1.00
Zn1283 Zn    0.00000   0.70659   0.78265   0.00000  Uiso   1.00
Zn1284 Zn    0.45660   0.75000   0.71735   0.00000  Uiso   1.00
C1285  C     0.97258   0.76944   0.41870   0.00000  Uiso   1.00
C1286  C     0.77743   0.98059   0.08130   0.00000  Uiso   1.00
C1287  C     0.72862   0.52589   0.54073   0.00000  Uiso   1.00
C1288  C     0.97414   0.77142   0.45927   0.00000  Uiso   1.00
C1289  C     0.52586   0.72858   0.54073   0.00000  Uiso   1.00
C1290  C     0.72850   0.52578   0.45925   0.00000  Uiso   1.00
C1291  C     0.77150   0.97422   0.54075   0.00000  Uiso   1.00
C1292  C     0.77577   0.97849   0.95925   0.00000  Uiso   1.00
C1293  C     0.72423   0.52151   0.04075   0.00000  Uiso   1.00
C1294  C     0.52137   0.72410   0.95927   0.00000  Uiso   1.00
C1295  C     0.97863   0.77590   0.04073   0.00000  Uiso   1.00
C1296  C     0.72412   0.52139   0.95927   0.00000  Uiso   1.00
C1297  C     0.98042   0.77728   0.91866   0.00000  Uiso   1.00
C1298  C     0.77588   0.97861   0.04073   0.00000  Uiso   1.00
C1299  C     0.97852   0.77579   0.95925   0.00000  Uiso   1.00
C1300  C     0.52149   0.72421   0.04075   0.00000  Uiso   1.00
C1301  C     0.59797   0.84818   0.24914   0.00000  Uiso   1.00
C1302  C     0.90203   0.65182   0.75086   0.00000  Uiso   1.00
C1303  C     0.65196   0.59804   0.25000   0.00000  Uiso   1.00
C1304  C     0.84804   0.90196   0.75000   0.00000  Uiso   1.00
C1305  C     0.90182   0.65203   0.25086   0.00000  Uiso   1.00
C1306  C     0.59818   0.84797   0.74914   0.00000  Uiso   1.00
C1307  C     0.84805   0.90195   0.25000   0.00000  Uiso   1.00
C1308  C     0.51958   0.72272   0.08134   0.00000  Uiso   1.00
C1309  C     0.65195   0.59805   0.75000   0.00000  Uiso   1.00
C1310  C     0.59805   0.65195   0.75000   0.00000  Uiso   1.00
C1311  C     0.90195   0.84805   0.25000   0.00000  Uiso   1.00
C1312  C     0.65182   0.90203   0.75086   0.00000  Uiso   1.00
C1313  C     0.84818   0.59797   0.24914   0.00000  Uiso   1.00
C1314  C     0.90196   0.84804   0.75000   0.00000  Uiso   1.00
C1315  C     0.59804   0.65196   0.25000   0.00000  Uiso   1.00
C1316  C     0.84797   0.59818   0.74914   0.00000  Uiso   1.00
C1317  C     0.65203   0.90182   0.25086   0.00000  Uiso   1.00
C1318  C     0.99997   0.74997   0.47959   0.00000  Uiso   1.00
C1319  C     0.77726   0.98039   0.91866   0.00000  Uiso   1.00
C1320  C     0.50002   0.75003   0.52041   0.00000  Uiso   1.00
C1321  C     0.74997   0.99997   0.47959   0.00000  Uiso   1.00
C1322  C     0.75003   0.50003   0.52041   0.00000  Uiso   1.00
C1323  C     0.74997   0.99997   0.97959   0.00000  Uiso   1.00
C1324  C     0.75003   0.50003   0.02041   0.00000  Uiso   1.00
C1325  C     0.99997   0.74997   0.97959   0.00000  Uiso   1.00
C1326  C     0.50003   0.75003   0.02041   0.00000  Uiso   1.00
C1327  C     0.60489   0.95091   0.26427   0.00000  Uiso   1.00
C1328  C     0.89512   0.54909   0.73573   0.00000  Uiso   1.00
C1329  C     0.56579   0.62258   0.30618   0.00000  Uiso   1.00
C1330  C     0.72274   0.51960   0.08134   0.00000  Uiso   1.00
C1331  C     0.93421   0.87742   0.69382   0.00000  Uiso   1.00
C1332  C     0.89506   0.54928   0.26333   0.00000  Uiso   1.00
C1333  C     0.60494   0.95072   0.73667   0.00000  Uiso   1.00
C1334  C     0.93393   0.87714   0.30621   0.00000  Uiso   1.00
C1335  C     0.56607   0.62287   0.69379   0.00000  Uiso   1.00
C1336  C     0.62288   0.56608   0.69378   0.00000  Uiso   1.00
C1337  C     0.87712   0.93392   0.30622   0.00000  Uiso   1.00
C1338  C     0.54909   0.89512   0.73573   0.00000  Uiso   1.00
C1339  C     0.95091   0.60488   0.26427   0.00000  Uiso   1.00
C1340  C     0.87742   0.93421   0.69382   0.00000  Uiso   1.00
C1341  C     0.51939   0.72255   0.91870   0.00000  Uiso   1.00
C1342  C     0.62259   0.56579   0.30619   0.00000  Uiso   1.00
C1343  C     0.95072   0.60494   0.73666   0.00000  Uiso   1.00
C1344  C     0.54928   0.89506   0.26334   0.00000  Uiso   1.00
C1345  C     0.85489   0.70091   0.76427   0.00000  Uiso   1.00
C1346  C     0.64512   0.79909   0.23573   0.00000  Uiso   1.00
C1347  C     0.81579   0.87258   0.80618   0.00000  Uiso   1.00
C1348  C     0.68421   0.62742   0.19382   0.00000  Uiso   1.00
C1349  C     0.64506   0.79928   0.76334   0.00000  Uiso   1.00
C1350  C     0.85494   0.70072   0.23667   0.00000  Uiso   1.00
C1351  C     0.68392   0.62713   0.80622   0.00000  Uiso   1.00
C1352  C     0.98061   0.77745   0.08130   0.00000  Uiso   1.00
C1353  C     0.81608   0.87287   0.19378   0.00000  Uiso   1.00
C1354  C     0.87288   0.81608   0.19378   0.00000  Uiso   1.00
C1355  C     0.62712   0.68392   0.80623   0.00000  Uiso   1.00
C1356  C     0.79909   0.64512   0.23573   0.00000  Uiso   1.00
C1357  C     0.70091   0.85488   0.76427   0.00000  Uiso   1.00
C1358  C     0.62741   0.68421   0.19381   0.00000  Uiso   1.00
C1359  C     0.87259   0.81579   0.80619   0.00000  Uiso   1.00
C1360  C     0.70072   0.85494   0.23666   0.00000  Uiso   1.00
C1361  C     0.79928   0.64506   0.76334   0.00000  Uiso   1.00
C1362  C     0.91348   0.76861   0.39815   0.00000  Uiso   1.00
C1363  C     0.99991   0.74991   0.39842   0.00000  Uiso   1.00
C1364  C     0.58652   0.73140   0.60185   0.00000  Uiso   1.00
C1365  C     0.73124   0.58640   0.39779   0.00000  Uiso   1.00
C1366  C     0.76876   0.91360   0.60221   0.00000  Uiso   1.00
C1367  C     0.58638   0.73111   0.39782   0.00000  Uiso   1.00
C1368  C     0.91363   0.76890   0.60221   0.00000  Uiso   1.00
C1369  C     0.76847   0.91345   0.39815   0.00000  Uiso   1.00
C1370  C     0.73152   0.58655   0.60185   0.00000  Uiso   1.00
C1371  C     0.66346   0.51852   0.89815   0.00000  Uiso   1.00
C1372  C     0.83654   0.98148   0.10185   0.00000  Uiso   1.00
C1373  C     0.98129   0.83640   0.89779   0.00000  Uiso   1.00
C1374  C     0.50009   0.75009   0.60158   0.00000  Uiso   1.00
C1375  C     0.51873   0.66360   0.10221   0.00000  Uiso   1.00
C1376  C     0.83639   0.98119   0.89779   0.00000  Uiso   1.00
C1377  C     0.66361   0.51881   0.10221   0.00000  Uiso   1.00
C1378  C     0.51843   0.66344   0.89815   0.00000  Uiso   1.00
C1379  C     0.98156   0.83655   0.10185   0.00000  Uiso   1.00
C1380  C     0.74991   0.99991   0.39842   0.00000  Uiso   1.00
C1381  C     0.52742   0.73056   0.58130   0.00000  Uiso   1.00
C1382  C     0.75009   0.50009   0.60158   0.00000  Uiso   1.00
C1383  C     0.74991   0.99991   0.89842   0.00000  Uiso   1.00
C1384  C     0.75009   0.50009   0.10158   0.00000  Uiso   1.00
C1385  C     0.99991   0.74991   0.89842   0.00000  Uiso   1.00
C1386  C     0.50009   0.75009   0.10158   0.00000  Uiso   1.00
C1387  C     0.54958   0.70545   0.47990   0.00000  Uiso   1.00
C1388  C     0.95042   0.79456   0.52011   0.00000  Uiso   1.00
C1389  C     0.79441   0.95029   0.47991   0.00000  Uiso   1.00
C1390  C     0.70559   0.54970   0.52009   0.00000  Uiso   1.00
C1391  C     0.95036   0.79449   0.47991   0.00000  Uiso   1.00
C1392  C     0.73041   0.52727   0.41866   0.00000  Uiso   1.00
C1393  C     0.54964   0.70551   0.52009   0.00000  Uiso   1.00
C1394  C     0.70552   0.54964   0.47989   0.00000  Uiso   1.00
C1395  C     0.79448   0.95036   0.52011   0.00000  Uiso   1.00
C1396  C     0.79962   0.95549   0.97990   0.00000  Uiso   1.00
C1397  C     0.70038   0.54451   0.02010   0.00000  Uiso   1.00
C1398  C     0.54439   0.70027   0.97991   0.00000  Uiso   1.00
C1399  C     0.95561   0.79973   0.02009   0.00000  Uiso   1.00
C1400  C     0.70032   0.54444   0.97991   0.00000  Uiso   1.00
C1401  C     0.79968   0.95556   0.02009   0.00000  Uiso   1.00
C1402  C     0.95554   0.79967   0.97989   0.00000  Uiso   1.00
C1403  C     0.76959   0.97273   0.58134   0.00000  Uiso   1.00
C1404  C     0.54446   0.70033   0.02011   0.00000  Uiso   1.00
C1405  C     0.74997   0.99996   0.35596   0.00000  Uiso   1.00
C1406  C     0.75003   0.50004   0.64404   0.00000  Uiso   1.00
C1407  C     0.99996   0.74998   0.35596   0.00000  Uiso   1.00
C1408  C     0.50004   0.75003   0.64404   0.00000  Uiso   1.00
C1409  C     0.99997   0.74996   0.85596   0.00000  Uiso   1.00
C1410  C     0.50003   0.75004   0.14404   0.00000  Uiso   1.00
C1411  C     0.74996   0.99997   0.85596   0.00000  Uiso   1.00
C1412  C     0.75004   0.50002   0.14404   0.00000  Uiso   1.00
C1413  C     0.68008   0.56992   0.25000   0.00000  Uiso   1.00
C1414  C     0.52725   0.73038   0.41866   0.00000  Uiso   1.00
C1415  C     0.81992   0.93007   0.75000   0.00000  Uiso   1.00
C1416  C     0.92987   0.68019   0.24997   0.00000  Uiso   1.00
C1417  C     0.57013   0.81981   0.75003   0.00000  Uiso   1.00
C1418  C     0.81995   0.93005   0.25000   0.00000  Uiso   1.00
C1419  C     0.68005   0.56995   0.75000   0.00000  Uiso   1.00
C1420  C     0.56981   0.82013   0.25003   0.00000  Uiso   1.00
C1421  C     0.93019   0.67987   0.74997   0.00000  Uiso   1.00
C1422  C     0.67987   0.93019   0.74997   0.00000  Uiso   1.00
C1423  C     0.82013   0.56981   0.25003   0.00000  Uiso   1.00
C1424  C     0.93008   0.81992   0.75000   0.00000  Uiso   1.00
C1425  C     0.97276   0.76963   0.58135   0.00000  Uiso   1.00
C1426  C     0.56992   0.68007   0.25000   0.00000  Uiso   1.00
C1427  C     0.81981   0.57013   0.75003   0.00000  Uiso   1.00
C1428  C     0.68019   0.92987   0.24997   0.00000  Uiso   1.00
C1429  C     0.56995   0.68005   0.75000   0.00000  Uiso   1.00
C1430  C     0.93005   0.81995   0.25000   0.00000  Uiso   1.00
C1431  C     0.61511   0.91208   0.25645   0.00000  Uiso   1.00
C1432  C     0.88489   0.58792   0.74355   0.00000  Uiso   1.00
C1433  C     0.59589   0.62315   0.27713   0.00000  Uiso   1.00
C1434  C     0.90411   0.87685   0.72287   0.00000  Uiso   1.00
C1435  C     0.88507   0.58794   0.25529   0.00000  Uiso   1.00
C1436  C     0.76940   0.97256   0.41870   0.00000  Uiso   1.00
C1437  C     0.61493   0.91206   0.74471   0.00000  Uiso   1.00
C1438  C     0.90398   0.87672   0.27714   0.00000  Uiso   1.00
C1439  C     0.59602   0.62328   0.72286   0.00000  Uiso   1.00
C1440  C     0.62328   0.59602   0.72286   0.00000  Uiso   1.00
C1441  C     0.87672   0.90398   0.27714   0.00000  Uiso   1.00
C1442  C     0.58792   0.88489   0.74355   0.00000  Uiso   1.00
C1443  C     0.91208   0.61511   0.25645   0.00000  Uiso   1.00
C1444  C     0.87685   0.90411   0.72287   0.00000  Uiso   1.00
C1445  C     0.62315   0.59589   0.27714   0.00000  Uiso   1.00
C1446  C     0.91206   0.61493   0.74471   0.00000  Uiso   1.00
C1447  C     0.73060   0.52744   0.58130   0.00000  Uiso   1.00
C1448  C     0.58794   0.88507   0.25529   0.00000  Uiso   1.00
C1449  C     0.86511   0.66208   0.75645   0.00000  Uiso   1.00
C1450  C     0.63489   0.83792   0.24355   0.00000  Uiso   1.00
C1451  C     0.84590   0.87315   0.77714   0.00000  Uiso   1.00
C1452  C     0.65411   0.62685   0.22286   0.00000  Uiso   1.00
C1453  C     0.63507   0.83794   0.75529   0.00000  Uiso   1.00
C1454  C     0.86493   0.66206   0.24471   0.00000  Uiso   1.00
C1455  C     0.65397   0.62672   0.77714   0.00000  Uiso   1.00
C1456  C     0.84603   0.87328   0.22286   0.00000  Uiso   1.00
C1457  C     0.87328   0.84602   0.22286   0.00000  Uiso   1.00
C1458  C     0.72257   0.51941   0.91870   0.00000  Uiso   1.00
C1459  C     0.62672   0.65397   0.77714   0.00000  Uiso   1.00
C1460  C     0.83792   0.63489   0.24355   0.00000  Uiso   1.00
C1461  C     0.66208   0.86511   0.75645   0.00000  Uiso   1.00
C1462  C     0.62685   0.65410   0.22286   0.00000  Uiso   1.00
C1463  C     0.87315   0.84589   0.77714   0.00000  Uiso   1.00
C1464  C     0.66206   0.86493   0.24471   0.00000  Uiso   1.00
C1465  C     0.83794   0.63507   0.75529   0.00000  Uiso   1.00
C1466  C     0.52575   0.72847   0.45925   0.00000  Uiso   1.00
C1467  C     0.97425   0.77154   0.54075   0.00000  Uiso   1.00
C1468  C     0.77138   0.97411   0.45927   0.00000  Uiso   1.00
H1469  H     0.56840   0.68728   0.46510   0.00000  Uiso   1.00
H1470  H     0.68154   0.56266   0.03490   0.00000  Uiso   1.00
H1471  H     0.56246   0.68136   0.96511   0.00000  Uiso   1.00
H1472  H     0.93754   0.81864   0.03489   0.00000  Uiso   1.00
H1473  H     0.68142   0.56253   0.96511   0.00000  Uiso   1.00
H1474  H     0.81858   0.93747   0.03489   0.00000  Uiso   1.00
H1475  H     0.93741   0.81853   0.96510   0.00000  Uiso   1.00
H1476  H     0.56259   0.68148   0.03490   0.00000  Uiso   1.00
H1477  H     0.57152   0.99349   0.25209   0.00000  Uiso   1.00
H1478  H     0.92848   0.50650   0.74791   0.00000  Uiso   1.00
H1479  H     0.53949   0.64880   0.34940   0.00000  Uiso   1.00
H1480  H     0.93160   0.81273   0.53490   0.00000  Uiso   1.00
H1481  H     0.96051   0.85120   0.65060   0.00000  Uiso   1.00
H1482  H     0.90338   0.99857   0.24207   0.00000  Uiso   1.00
H1483  H     0.59662   0.50143   0.75793   0.00000  Uiso   1.00
H1484  H     0.95990   0.85072   0.34952   0.00000  Uiso   1.00
H1485  H     0.54010   0.64928   0.65048   0.00000  Uiso   1.00
H1486  H     0.64930   0.54014   0.65045   0.00000  Uiso   1.00
H1487  H     0.85070   0.95986   0.34955   0.00000  Uiso   1.00
H1488  H     0.50650   0.92848   0.74792   0.00000  Uiso   1.00
H1489  H     0.99350   0.57152   0.25208   0.00000  Uiso   1.00
H1490  H     0.85118   0.96048   0.65058   0.00000  Uiso   1.00
H1491  H     0.81249   0.93139   0.46511   0.00000  Uiso   1.00
H1492  H     0.64882   0.53952   0.34942   0.00000  Uiso   1.00
H1493  H     0.50143   0.59663   0.75792   0.00000  Uiso   1.00
H1494  H     0.99857   0.90337   0.24208   0.00000  Uiso   1.00
H1495  H     0.82152   0.74350   0.75209   0.00000  Uiso   1.00
H1496  H     0.67849   0.75650   0.24791   0.00000  Uiso   1.00
H1497  H     0.78950   0.89881   0.84941   0.00000  Uiso   1.00
H1498  H     0.71050   0.60119   0.15059   0.00000  Uiso   1.00
H1499  H     0.65338   0.74857   0.74208   0.00000  Uiso   1.00
H1500  H     0.84662   0.75143   0.25792   0.00000  Uiso   1.00
H1501  H     0.70988   0.60071   0.84953   0.00000  Uiso   1.00
H1502  H     0.68751   0.56861   0.53489   0.00000  Uiso   1.00
H1503  H     0.79012   0.89929   0.15047   0.00000  Uiso   1.00
H1504  H     0.89930   0.79014   0.15045   0.00000  Uiso   1.00
H1505  H     0.60070   0.70985   0.84955   0.00000  Uiso   1.00
H1506  H     0.75650   0.67848   0.24792   0.00000  Uiso   1.00
H1507  H     0.74350   0.82152   0.75209   0.00000  Uiso   1.00
H1508  H     0.60118   0.71048   0.15058   0.00000  Uiso   1.00
H1509  H     0.89882   0.78952   0.84942   0.00000  Uiso   1.00
H1510  H     0.75143   0.84663   0.25792   0.00000  Uiso   1.00
H1511  H     0.74857   0.65337   0.74208   0.00000  Uiso   1.00
H1512  H     0.90067   0.76748   0.42731   0.00000  Uiso   1.00
H1513  H     0.93148   0.81260   0.46511   0.00000  Uiso   1.00
H1514  H     0.91779   0.74028   0.38721   0.00000  Uiso   1.00
H1515  H     0.89383   0.78235   0.37842   0.00000  Uiso   1.00
H1516  H     0.60617   0.71765   0.62158   0.00000  Uiso   1.00
H1517  H     0.58221   0.75972   0.61280   0.00000  Uiso   1.00
H1518  H     0.59932   0.73252   0.57268   0.00000  Uiso   1.00
H1519  H     0.75961   0.58208   0.38687   0.00000  Uiso   1.00
H1520  H     0.73224   0.59927   0.42686   0.00000  Uiso   1.00
H1521  H     0.71756   0.60599   0.37793   0.00000  Uiso   1.00
H1522  H     0.76778   0.90072   0.57315   0.00000  Uiso   1.00
H1523  H     0.74038   0.91792   0.61311   0.00000  Uiso   1.00
H1524  H     0.56851   0.68740   0.53489   0.00000  Uiso   1.00
H1525  H     0.78243   0.89402   0.62209   0.00000  Uiso   1.00
H1526  H     0.59919   0.73217   0.42688   0.00000  Uiso   1.00
H1527  H     0.58213   0.75945   0.38682   0.00000  Uiso   1.00
H1528  H     0.60598   0.71736   0.37804   0.00000  Uiso   1.00
H1529  H     0.91790   0.74052   0.61309   0.00000  Uiso   1.00
H1530  H     0.90075   0.76794   0.57317   0.00000  Uiso   1.00
H1531  H     0.89408   0.78259   0.62209   0.00000  Uiso   1.00
H1532  H     0.78219   0.89379   0.37842   0.00000  Uiso   1.00
H1533  H     0.74016   0.91782   0.38721   0.00000  Uiso   1.00
H1534  H     0.76732   0.90065   0.42731   0.00000  Uiso   1.00
H1535  H     0.68738   0.56849   0.46510   0.00000  Uiso   1.00
H1536  H     0.73271   0.59933   0.57268   0.00000  Uiso   1.00
H1537  H     0.75982   0.58220   0.61283   0.00000  Uiso   1.00
H1538  H     0.71778   0.60623   0.62153   0.00000  Uiso   1.00
H1539  H     0.66781   0.99020   0.88721   0.00000  Uiso   1.00
H1540  H     0.64381   0.53224   0.87842   0.00000  Uiso   1.00
H1541  H     0.65066   0.51738   0.92731   0.00000  Uiso   1.00
H1542  H     0.85619   0.96775   0.12159   0.00000  Uiso   1.00
H1543  H     0.83219   0.50980   0.11279   0.00000  Uiso   1.00
H1544  H     0.84934   0.98261   0.07270   0.00000  Uiso   1.00
H1545  H     0.50967   0.83207   0.88691   0.00000  Uiso   1.00
H1546  H     0.81262   0.93151   0.53490   0.00000  Uiso   1.00
H1547  H     0.98226   0.84929   0.92684   0.00000  Uiso   1.00
H1548  H     0.96764   0.85599   0.87790   0.00000  Uiso   1.00
H1549  H     0.51775   0.65071   0.07317   0.00000  Uiso   1.00
H1550  H     0.99034   0.66793   0.11309   0.00000  Uiso   1.00
H1551  H     0.53237   0.64402   0.12211   0.00000  Uiso   1.00
H1552  H     0.84927   0.98216   0.92685   0.00000  Uiso   1.00
H1553  H     0.83208   0.50957   0.88690   0.00000  Uiso   1.00
H1554  H     0.85596   0.96751   0.87790   0.00000  Uiso   1.00
H1555  H     0.66792   0.99042   0.11309   0.00000  Uiso   1.00
H1556  H     0.65072   0.51784   0.07315   0.00000  Uiso   1.00
H1557  H     0.81846   0.93734   0.96510   0.00000  Uiso   1.00
H1558  H     0.64404   0.53247   0.12211   0.00000  Uiso   1.00
H1559  H     0.53214   0.64377   0.87843   0.00000  Uiso   1.00
H1560  H     0.99012   0.66782   0.88720   0.00000  Uiso   1.00
H1561  H     0.51727   0.65065   0.92732   0.00000  Uiso   1.00
H1562  H     0.98271   0.84936   0.07270   0.00000  Uiso   1.00
H1563  H     0.50988   0.83218   0.11278   0.00000  Uiso   1.00
H1564  H     0.96786   0.85621   0.12159   0.00000  Uiso   1.00
O1565  O     0.75000   0.50000   0.25000   0.00000  Uiso   1.00
O1566  O     0.75000   0.96963   0.66245   0.00000  Uiso   1.00
O1567  O     0.81171   0.90246   0.16849   0.00000  Uiso   1.00
O1568  O     0.84708   0.79495   0.19241   0.00000  Uiso   1.00
O1569  O     0.90246   0.81174   0.16848   0.00000  Uiso   1.00
O1570  O     0.65291   0.70505   0.80759   0.00000  Uiso   1.00
O1571  O     0.59754   0.68826   0.83153   0.00000  Uiso   1.00
O1572  O     0.78140   0.62810   0.21181   0.00000  Uiso   1.00
O1573  O     0.78290   0.67423   0.25570   0.00000  Uiso   1.00
O1574  O     0.71860   0.87190   0.78819   0.00000  Uiso   1.00
O1575  O     0.71710   0.82577   0.74430   0.00000  Uiso   1.00
O1576  O     0.65328   0.70526   0.19242   0.00000  Uiso   1.00
O1577  O     0.96964   0.75000   0.33755   0.00000  Uiso   1.00
O1578  O     0.59791   0.68879   0.16859   0.00000  Uiso   1.00
O1579  O     0.84672   0.79474   0.80758   0.00000  Uiso   1.00
O1580  O     0.90209   0.81121   0.83142   0.00000  Uiso   1.00
O1581  O     0.71005   0.84686   0.20377   0.00000  Uiso   1.00
O1582  O     0.72605   0.85401   0.26689   0.00000  Uiso   1.00
O1583  O     0.78995   0.65313   0.79624   0.00000  Uiso   1.00
O1584  O     0.77395   0.64599   0.73311   0.00000  Uiso   1.00
O1585  O     0.94625   0.78900   0.39850   0.00000  Uiso   1.00
O1586  O     0.55375   0.71100   0.60150   0.00000  Uiso   1.00
O1587  O     0.71086   0.55361   0.39841   0.00000  Uiso   1.00
O1588  O     0.53037   0.75000   0.66245   0.00000  Uiso   1.00
O1589  O     0.78915   0.94639   0.60159   0.00000  Uiso   1.00
O1590  O     0.55356   0.71078   0.39841   0.00000  Uiso   1.00
O1591  O     0.94645   0.78923   0.60159   0.00000  Uiso   1.00
O1592  O     0.78892   0.94619   0.39850   0.00000  Uiso   1.00
O1593  O     0.71108   0.55380   0.60150   0.00000  Uiso   1.00
O1594  O     0.69622   0.53895   0.89850   0.00000  Uiso   1.00
O1595  O     0.80378   0.96105   0.10150   0.00000  Uiso   1.00
O1596  O     0.96088   0.80363   0.89841   0.00000  Uiso   1.00
O1597  O     0.53913   0.69638   0.10159   0.00000  Uiso   1.00
O1598  O     0.80359   0.96082   0.89841   0.00000  Uiso   1.00
O1599  O     0.50000   0.71963   0.83755   0.00000  Uiso   1.00
O1600  O     0.69641   0.53917   0.10159   0.00000  Uiso   1.00
O1601  O     0.53890   0.69617   0.89850   0.00000  Uiso   1.00
O1602  O     0.96110   0.80382   0.10150   0.00000  Uiso   1.00
O1603  O     0.50000   0.78036   0.16245   0.00000  Uiso   1.00
O1604  O     0.78037   0.50000   0.83755   0.00000  Uiso   1.00
O1605  O     0.71964   0.50000   0.16245   0.00000  Uiso   1.00
O1606  O     0.50000   0.78036   0.83755   0.00000  Uiso   1.00
O1607  O     0.50000   0.71963   0.16245   0.00000  Uiso   1.00
O1608  O     0.71964   0.50000   0.83755   0.00000  Uiso   1.00
O1609  O     0.75000   0.50000   0.75000   0.00000  Uiso   1.00
O1610  O     0.78037   0.50000   0.16245   0.00000  Uiso   1.00
O1611  O     0.70725   0.57307   0.27302   0.00000  Uiso   1.00
O1612  O     0.79276   0.92692   0.72698   0.00000  Uiso   1.00
O1613  O     0.92693   0.70724   0.27302   0.00000  Uiso   1.00
O1614  O     0.57308   0.79275   0.72698   0.00000  Uiso   1.00
O1615  O     0.79276   0.92692   0.27302   0.00000  Uiso   1.00
O1616  O     0.70725   0.57307   0.72698   0.00000  Uiso   1.00
O1617  O     0.57308   0.79275   0.27302   0.00000  Uiso   1.00
O1618  O     0.92693   0.70724   0.72698   0.00000  Uiso   1.00
O1619  O     0.70725   0.92692   0.72698   0.00000  Uiso   1.00
O1620  O     0.50000   0.75000   0.25000   0.00000  Uiso   1.00
O1621  O     0.79276   0.57307   0.27302   0.00000  Uiso   1.00
O1622  O     0.92693   0.79275   0.72698   0.00000  Uiso   1.00
O1623  O     0.57308   0.70724   0.27302   0.00000  Uiso   1.00
O1624  O     0.79276   0.57307   0.72698   0.00000  Uiso   1.00
O1625  O     0.70725   0.92692   0.27302   0.00000  Uiso   1.00
O1626  O     0.57308   0.70724   0.72698   0.00000  Uiso   1.00
O1627  O     0.92693   0.79275   0.27302   0.00000  Uiso   1.00
O1628  O     0.95725   0.82307   0.77302   0.00000  Uiso   1.00
O1629  O     0.54276   0.67692   0.22698   0.00000  Uiso   1.00
O1630  O     0.67693   0.95724   0.77302   0.00000  Uiso   1.00
O1631  O     0.50000   0.75000   0.75000   0.00000  Uiso   1.00
O1632  O     0.82308   0.54275   0.22698   0.00000  Uiso   1.00
O1633  O     0.54276   0.67692   0.77302   0.00000  Uiso   1.00
O1634  O     0.95725   0.82307   0.22698   0.00000  Uiso   1.00
O1635  O     0.82308   0.54275   0.77302   0.00000  Uiso   1.00
O1636  O     0.67693   0.95724   0.22698   0.00000  Uiso   1.00
O1637  O     0.95725   0.67692   0.22698   0.00000  Uiso   1.00
O1638  O     0.54276   0.82307   0.77302   0.00000  Uiso   1.00
O1639  O     0.67693   0.54275   0.22698   0.00000  Uiso   1.00
O1640  O     0.82308   0.95724   0.77302   0.00000  Uiso   1.00
O1641  O     0.54276   0.82307   0.22698   0.00000  Uiso   1.00
O1642  O     0.75000   0.96963   0.33755   0.00000  Uiso   1.00
O1643  O     0.95725   0.67692   0.77302   0.00000  Uiso   1.00
O1644  O     0.82308   0.95724   0.22698   0.00000  Uiso   1.00
O1645  O     0.67693   0.54275   0.77302   0.00000  Uiso   1.00
O1646  O     0.62190   0.96859   0.28819   0.00000  Uiso   1.00
O1647  O     0.57577   0.96709   0.24431   0.00000  Uiso   1.00
O1648  O     0.87810   0.53141   0.71181   0.00000  Uiso   1.00
O1649  O     0.92423   0.53290   0.75569   0.00000  Uiso   1.00
O1650  O     0.54474   0.59670   0.30757   0.00000  Uiso   1.00
O1651  O     0.56119   0.65208   0.33140   0.00000  Uiso   1.00
O1652  O     0.95526   0.90330   0.69243   0.00000  Uiso   1.00
O1653  O     0.75000   0.53036   0.66245   0.00000  Uiso   1.00
O1654  O     0.93882   0.84792   0.66860   0.00000  Uiso   1.00
O1655  O     0.90314   0.53995   0.29623   0.00000  Uiso   1.00
O1656  O     0.89599   0.52396   0.23310   0.00000  Uiso   1.00
O1657  O     0.59687   0.96005   0.70377   0.00000  Uiso   1.00
O1658  O     0.60401   0.97604   0.76689   0.00000  Uiso   1.00
O1659  O     0.95504   0.90294   0.30758   0.00000  Uiso   1.00
O1660  O     0.93830   0.84755   0.33150   0.00000  Uiso   1.00
O1661  O     0.54496   0.59706   0.69242   0.00000  Uiso   1.00
O1662  O     0.56170   0.65245   0.66850   0.00000  Uiso   1.00
O1663  O     0.59708   0.54495   0.69242   0.00000  Uiso   1.00
O1664  O     0.53037   0.75000   0.33755   0.00000  Uiso   1.00
O1665  O     0.65246   0.56174   0.66848   0.00000  Uiso   1.00
O1666  O     0.90292   0.95505   0.30758   0.00000  Uiso   1.00
O1667  O     0.84755   0.93826   0.33153   0.00000  Uiso   1.00
O1668  O     0.53141   0.87810   0.71181   0.00000  Uiso   1.00
O1669  O     0.53290   0.92423   0.75570   0.00000  Uiso   1.00
O1670  O     0.96860   0.62189   0.28819   0.00000  Uiso   1.00
O1671  O     0.96710   0.57577   0.24430   0.00000  Uiso   1.00
O1672  O     0.90328   0.95526   0.69242   0.00000  Uiso   1.00
O1673  O     0.84792   0.93879   0.66858   0.00000  Uiso   1.00
O1674  O     0.59672   0.54474   0.30758   0.00000  Uiso   1.00
O1675  O     0.96964   0.75000   0.66245   0.00000  Uiso   1.00
O1676  O     0.65208   0.56121   0.33142   0.00000  Uiso   1.00
O1677  O     0.96005   0.59687   0.70377   0.00000  Uiso   1.00
O1678  O     0.97605   0.60401   0.76689   0.00000  Uiso   1.00
O1679  O     0.53995   0.90313   0.29623   0.00000  Uiso   1.00
O1680  O     0.52395   0.89599   0.23311   0.00000  Uiso   1.00
O1681  O     0.87190   0.71859   0.78819   0.00000  Uiso   1.00
O1682  O     0.82577   0.71710   0.74431   0.00000  Uiso   1.00
O1683  O     0.62810   0.78141   0.21181   0.00000  Uiso   1.00
O1684  O     0.67423   0.78290   0.25569   0.00000  Uiso   1.00
O1685  O     0.79474   0.84671   0.80758   0.00000  Uiso   1.00
O1686  O     0.75000   0.53036   0.33755   0.00000  Uiso   1.00
O1687  O     0.81119   0.90208   0.83140   0.00000  Uiso   1.00
O1688  O     0.70526   0.65329   0.19242   0.00000  Uiso   1.00
O1689  O     0.68880   0.59792   0.16859   0.00000  Uiso   1.00
O1690  O     0.65314   0.78995   0.79623   0.00000  Uiso   1.00
O1691  O     0.64599   0.77395   0.73311   0.00000  Uiso   1.00
O1692  O     0.84686   0.71005   0.20377   0.00000  Uiso   1.00
O1693  O     0.85401   0.72604   0.26689   0.00000  Uiso   1.00
O1694  O     0.70504   0.65294   0.80759   0.00000  Uiso   1.00
O1695  O     0.68829   0.59754   0.83151   0.00000  Uiso   1.00
O1696  O     0.79496   0.84706   0.19241   0.00000  Uiso   1.00
Zn1697 Zn    0.70660   0.50000   0.21735   0.00000  Uiso   1.00
Zn1698 Zn    0.54341   0.75000   0.28265   0.00000  Uiso   1.00
Zn1699 Zn    0.75000   0.95659   0.71735   0.00000  Uiso   1.00
Zn1700 Zn    0.75000   0.54340   0.28265   0.00000  Uiso   1.00
Zn1701 Zn    0.54341   0.75000   0.71735   0.00000  Uiso   1.00
Zn1702 Zn    0.95660   0.75000   0.28265   0.00000  Uiso   1.00
Zn1703 Zn    0.75000   0.54340   0.71735   0.00000  Uiso   1.00
Zn1704 Zn    0.75000   0.95659   0.28265   0.00000  Uiso   1.00
Zn1705 Zn    0.79341   0.50000   0.78265   0.00000  Uiso   1.00
Zn1706 Zn    0.50000   0.70659   0.21735   0.00000  Uiso   1.00
Zn1707 Zn    0.50000   0.79340   0.78265   0.00000  Uiso   1.00
Zn1708 Zn    0.79341   0.50000   0.21735   0.00000  Uiso   1.00
Zn1709 Zn    0.70660   0.50000   0.78265   0.00000  Uiso   1.00
Zn1710 Zn    0.50000   0.79340   0.21735   0.00000  Uiso   1.00
Zn1711 Zn    0.50000   0.70659   0.78265   0.00000  Uiso   1.00
Zn1712 Zn    0.95660   0.75000   0.71735   0.00000  Uiso   1.00
loop_
_geom_bond_atom_site_label_1
_geom_bond_atom_site_label_2
_geom_bond_distance
_geom_bond_site_symmetry_2
_ccdc_geom_bond_type
C1     C79     1.411   .     A
C1     O301    1.386   .     S
C1     C4      1.405   .     A
C2     C14     1.405   .     A
C2     O311    1.386   .     S
C2     C956    1.411   .     S
C3     C163    1.405   .     A
C3     C106    1.403   .     A
C3     C38     1.412   .     A
C4     C107    1.403   .     A
C4     C34     1.412   .     A
C5     C36     1.412   .     A
C5     C97     1.405   .     A
C5     C109    1.403   .     A
C6     C110    1.403   .     A
C6     C108    1.405   .     A
C6     C893    1.412   1_545 S
C7     C119    1.405   .     A
C7     C111    1.403   .     A
C7     C894    1.412   .     S
C8     C112    1.403   .     A
C8     C35     1.405   .     A
C8     C39     1.412   .     A
C9     C46     1.405   .     A
C9     C113    1.403   .     A
C9     C40     1.412   .     A
C10    C114    1.403   .     A
C10    C57     1.405   .     A
C10    C469    1.412   1_455 S
C11    C115    1.403   .     A
C11    C68     1.405   .     A
C11    C470    1.412   .     S
C12    C174    1.405   .     A
C12    C116    1.403   .     A
C12    C895    1.412   1_545 S
C13    C15     1.405   .     A
C13    O312    1.386   .     S
C13    C101    1.412   .     A
C14    C117    1.403   .     A
C14    C896    1.412   .     S
C15    C118    1.403   .     A
C15    C41     1.412   .     A
C16    C120    1.403   .     A
C16    C24     1.405   .     A
C16    C42     1.412   .     A
C17    C164    1.412   .     A
C17    C166    1.412   .     A
C17    C136    1.456   .     S
C18    C137    1.456   .     S
C18    C165    1.412   .     A
C18    C162    1.412   .     A
C19    C129    1.451   .     S
C19    C161    1.410   .     A
C19    C168    1.410   .     A
C20    C160    1.410   .     A
C20    C167    1.410   .     A
C20    C131    1.451   .     S
C21    C170    1.412   .     A
C21    C159    1.412   .     A
C21    C132    1.456   .     S
C22    C133    1.456   .     S
C22    C169    1.412   .     A
C22    C158    1.412   .     A
C23    C134    1.450   .     S
C23    C157    1.410   .     A
C23    C172    1.410   .     A
C24    O313    1.386   .     S
C24    C102    1.412   .     A
C25    C156    1.410   .     A
C25    C135    1.450   .     S
C25    C171    1.410   .     A
C26    C155    1.410   .     A
C26    C145    1.450   .     S
C26    C175    1.410   .     A
C27    C154    1.410   .     A
C27    C146    1.450   .     S
C27    C173    1.410   .     A
C28    C153    1.412   .     A
C28    C177    1.412   .     A
C28    C138    1.456   .     S
C29    C151    1.412   .     A
C29    C176    1.412   .     A
C29    C139    1.456   .     S
C30    C140    1.451   .     S
C30    C150    1.410   .     A
C30    C179    1.410   .     A
C31    C149    1.410   .     A
C31    C178    1.410   .     A
C31    C142    1.451   .     S
C32    C181    1.412   .     A
C32    C148    1.412   .     A
C32    C143    1.456   .     S
C33    C147    1.412   .     A
C33    C144    1.456   .     S
C33    C180    1.412   .     A
C34    C464    1.410   .     S
C34    C610    1.412   .     S
C35    C99     1.412   .     A
C35    O314    1.386   .     S
C36    C462    1.410   1_455 S
C36    C611    1.412   1_455 S
C37    C184    1.412   .     A
C37    C862    1.412   .     S
C37    C894    1.410   .     S
C38    C863    1.412   1_545 S
C38    C893    1.410   1_545 S
C39    C868    1.412   .     S
C39    C896    1.410   1_556 S
C40    C870    1.412   1_545 S
C40    C895    1.410   1_544 S
C41    C438    1.412   .     S
C41    C470    1.410   1_556 S
C42    C439    1.412   1_455 S
C42    C469    1.410   1_454 S
C43    O363    1.398   .     S
C43    O362    1.223   .     D
C43    C147    1.491   .     S
C44    O364    1.223   .     D
C44    C148    1.491   .     S
C44    O365    1.398   .     S
C45    O367    1.398   .     S
C45    C149    1.488   .     S
C45    O366    1.222   .     D
C46    O316    1.386   .     S
C46    C100    1.412   .     A
C47    O370    1.398   .     S
C47    C150    1.488   .     S
C47    O368    1.222   .     D
C48    C151    1.484   .     S
C48    O371    1.222   .     D
C48    O372    1.398   .     S
C49    C153    1.484   .     S
C49    O374    1.398   .     S
C49    O373    1.222   .     D
C50    O375    1.222   .     D
C50    O376    1.398   .     S
C50    C154    1.488   .     S
C51    O378    1.398   .     S
C51    O377    1.222   .     D
C51    C155    1.488   .     S
C52    O379    1.222   .     D
C52    O381    1.398   .     S
C52    C156    1.488   .     S
C53    O382    1.222   .     D
C53    O383    1.398   .     S
C53    C157    1.488   .     S
C54    O385    1.398   .     S
C54    C158    1.491   .     S
C54    O384    1.223   .     D
C55    O386    1.223   .     D
C55    O387    1.398   .     S
C55    C159    1.491   .     S
C56    O388    1.222   .     D
C56    O389    1.398   .     S
C56    C160    1.488   .     S
C57    O317    1.386   .     S
C57    C529    1.411   1_455 S
C58    O392    1.398   .     S
C58    O390    1.222   .     D
C58    C161    1.488   .     S
C59    O393    1.222   .     D
C59    C162    1.484   .     S
C59    O394    1.398   .     S
C60    O395    1.222   .     D
C60    C164    1.484   .     S
C60    O396    1.398   .     S
C61    O398    1.398   .     S
C61    O397    1.223   .     D
C61    C165    1.491   .     S
C62    O399    1.223   .     D
C62    C166    1.491   .     S
C62    O400    1.398   .     S
C63    O401    1.222   .     D
C63    C167    1.488   .     S
C63    O403    1.398   .     S
C64    O405    1.398   .     S
C64    C168    1.488   .     S
C64    O404    1.222   .     D
C65    O407    1.398   .     S
C65    O406    1.222   .     D
C65    C169    1.484   .     S
C66    O408    1.222   .     D
C66    O409    1.398   .     S
C66    C170    1.484   .     S
C67    O410    1.222   .     D
C67    C171    1.488   .     S
C67    O411    1.398   .     S
C68    O318    1.386   .     S
C68    C530    1.411   .     S
C69    C172    1.488   .     S
C69    O412    1.222   .     D
C69    O283    1.398   .     S
C70    O285    1.398   .     S
C70    O284    1.222   .     D
C70    C173    1.488   .     S
C71    O286    1.222   .     D
C71    C175    1.488   .     S
C71    O287    1.398   .     S
C72    C176    1.491   .     S
C72    O288    1.223   .     D
C72    O289    1.398   .     S
C73    O290    1.223   .     D
C73    O291    1.398   .     S
C73    C177    1.491   .     S
C74    O294    1.398   .     S
C74    C178    1.488   .     S
C74    O292    1.222   .     D
C75    C179    1.488   .     S
C75    O295    1.222   .     D
C75    O296    1.398   .     S
C76    C180    1.484   .     S
C76    O298    1.398   .     S
C76    O297    1.222   .     D
C77    C181    1.484   .     S
C77    O299    1.222   .     D
C77    O300    1.398   .     S
C78    H231    1.109   .     S
C78    H230    1.113   .     S
C78    O301    1.413   .     S
C78    H228    1.111   .     S
C79    C123    1.467   .     S
C79    C558    1.412   .     S
C80    H232    1.109   .     S
C80    O302    1.413   .     S
C80    H234    1.111   .     S
C80    H233    1.114   .     S
C81    H235    1.114   .     S
C81    O303    1.413   .     S
C81    H236    1.111   .     S
C81    H237    1.109   .     S
C82    O305    1.414   .     S
C82    H239    1.114   .     S
C82    H241    1.109   .     S
C82    H238    1.111   .     S
C83    H244    1.109   .     S
C83    H242    1.110   .     S
C83    H243    1.113   .     S
C83    O306    1.413   .     S
C84    H247    1.109   .     S
C84    O307    1.413   .     S
C84    H246    1.110   .     S
C84    H245    1.113   .     S
C85    H248    1.109   .     S
C85    H249    1.114   .     S
C85    H250    1.111   .     S
C85    O308    1.413   .     S
C86    H253    1.113   .     S
C86    H254    1.109   .     S
C86    O309    1.413   .     S
C86    H252    1.110   .     S
C87    H256    1.109   .     S
C87    H257    1.111   .     S
C87    O310    1.413   .     S
C87    H1111   1.113   1_545 S
C88    H258    1.109   .     S
C88    O311    1.413   .     S
C88    H260    1.111   .     S
C88    H1115   1.114   .     S
C89    H263    1.111   .     S
C89    H264    1.109   .     S
C89    O312    1.414   .     S
C89    H689    1.113   .     S
C90    C97     1.411   .     A
C90    C124    1.467   .     S
C90    C569    1.412   1_455 S
C91    O313    1.414   .     S
C91    H267    1.109   .     S
C91    H265    1.110   .     S
C91    H694    1.113   1_455 S
C92    H268    1.111   .     S
C92    H270    1.109   .     S
C92    O314    1.414   .     S
C92    H1125   1.114   .     S
C93    O316    1.414   .     S
C93    H274    1.109   .     S
C93    H272    1.111   .     S
C93    H1127   1.114   1_545 S
C94    H275    1.109   .     S
C94    O317    1.413   .     S
C94    H277    1.111   .     S
C94    H704    1.114   1_455 S
C95    H280    1.109   .     S
C95    H278    1.110   .     S
C95    O318    1.413   .     S
C95    H707    1.113   .     S
C96    C152    1.411   .     A
C96    C121    1.467   .     S
C96    C964    1.412   .     S
C97    O302    1.386   .     S
C98    C122    1.467   .     S
C98    C163    1.411   .     A
C98    C975    1.412   1_545 S
C99    C127    1.467   .     S
C99    C1030   1.411   .     S
C100   C128    1.467   .     S
C100   C858    1.411   1_545 S
C101   C125    1.467   .     S
C101   C485    1.411   .     S
C102   C126    1.467   .     S
C102   C496    1.411   1_455 S
C103   H185    1.083   .     S
C103   C109    1.389   .     A
C103   C182    1.403   .     A
C104   C183    1.403   .     A
C104   C107    1.389   .     A
C104   H196    1.083   .     S
C105   C184    1.403   .     A
C105   C111    1.389   .     A
C105   H207    1.083   .     S
C106   H218    1.083   .     S
C106   C110    1.389   .     A
C107   H229    1.083   .     S
C108   O303    1.386   .     S
C108   C952    1.412   1_545 S
C109   H240    1.083   .     S
C110   H251    1.083   .     S
C111   H262    1.083   .     S
C112   H273    1.083   .     S
C112   C117    1.389   1_556 S
C113   H186    1.083   .     S
C113   C116    1.389   1_554 S
C114   H187    1.083   .     S
C114   C120    1.389   1_556 S
C115   H188    1.083   .     S
C115   C118    1.389   1_554 S
C116   H189    1.083   .     S
C116   C113    1.389   1_556 S
C117   H190    1.083   .     S
C117   C112    1.389   1_554 S
C118   H191    1.083   .     S
C118   C115    1.389   1_556 S
C119   O305    1.386   .     S
C119   C954    1.412   .     S
C120   H192    1.083   .     S
C120   C114    1.389   1_554 S
C121   O358    1.279   .     A
C121   O1258   1.279   .     S
C122   O369    1.279   .     A
C122   O1138   1.279   1_545 S
C123   O293    1.279   .     A
C123   O808    1.279   .     S
C124   O304    1.279   .     A
C124   O819    1.279   1_455 S
C125   O743    1.279   .     S
C125   O750    1.279   .     S
C126   O319    1.279   .     A
C126   O323    1.279   .     A
C127   O1176   1.279   .     S
C127   O1180   1.279   .     S
C128   O321    1.279   .     A
C128   O326    1.279   .     A
C129   O355    1.280   .     A
C129   O327    1.280   .     A
C130   O306    1.386   .     S
C130   C182    1.405   .     A
C130   C507    1.412   1_455 S
C131   O328    1.280   .     A
C131   O356    1.280   .     A
C132   O353    1.281   .     A
C132   O329    1.275   .     A
C133   O354    1.281   .     A
C133   O330    1.275   .     A
C134   O360    1.277   .     A
C134   O331    1.277   .     A
C135   O332    1.277   .     A
C135   O361    1.277   .     A
C136   O333    1.281   .     A
C136   O357    1.275   .     A
C137   O359    1.275   .     A
C137   O334    1.281   .     A
C138   O346    1.275   .     A
C138   O335    1.281   .     A
C139   O337    1.281   .     A
C139   O348    1.275   .     A
C140   O338    1.280   .     A
C140   O344    1.280   .     A
C141   C183    1.405   .     A
C141   O307    1.386   .     S
C141   C518    1.412   .     S
C142   O339    1.280   .     A
C142   O345    1.280   .     A
C143   O340    1.275   .     A
C143   O351    1.281   .     A
C144   O341    1.275   .     A
C144   O352    1.281   .     A
C145   O349    1.277   .     A
C145   O342    1.277   .     A
C146   O343    1.277   .     A
C146   O350    1.277   .     A
C147   C164    1.404   .     A
C148   C162    1.404   .     A
C149   C161    1.406   .     A
C150   C160    1.406   .     A
C151   C159    1.404   .     A
C152   O308    1.386   .     S
C152   C184    1.405   .     A
C153   C158    1.404   .     A
C154   C157    1.406   .     A
C155   C156    1.406   .     A
C163   O309    1.386   .     S
C165   C181    1.404   .     A
C166   C180    1.404   .     A
C167   C179    1.406   .     A
C168   C178    1.406   .     A
C169   C177    1.404   .     A
C170   C176    1.404   .     A
C171   C175    1.406   .     A
C172   C173    1.406   .     A
C174   O310    1.386   .     S
C174   C955    1.411   1_545 S
C182   C462    1.412   1_455 S
C183   C464    1.412   .     S
H193   O363    1.014   .     S
H194   O365    1.014   .     S
H195   O367    1.014   .     S
H197   O370    1.014   .     S
H198   O1228   1.013   .     S
H199   O1230   1.013   1_545 S
H200   O376    1.014   .     S
H201   O378    1.014   .     S
H202   O381    1.014   .     S
H203   O383    1.014   .     S
H204   O385    1.014   .     S
H205   O387    1.014   .     S
H206   O389    1.014   .     S
H208   O392    1.014   .     S
H209   O822    1.013   1_455 S
H210   O824    1.013   .     S
H211   O398    1.014   .     S
H212   O400    1.014   .     S
H213   O403    1.014   .     S
H214   O405    1.014   .     S
H215   O407    1.013   .     S
H216   O409    1.013   .     S
H217   O411    1.014   .     S
H219   O283    1.014   .     S
H220   O285    1.014   .     S
H221   O287    1.014   .     S
H222   O289    1.014   .     S
H223   O291    1.014   .     S
H224   O294    1.014   .     S
H225   O296    1.014   .     S
H226   O298    1.013   .     S
H227   O300    1.013   .     S
H255   C943    1.113   .     S
H259   C944    1.114   1_545 S
H261   C517    1.113   1_455 S
H266   C519    1.113   .     S
H269   C948    1.114   1_545 S
H271   C949    1.114   .     S
H276   C522    1.114   .     S
H279   C523    1.113   1_455 S
O281   Zn416   1.949   .     S
O281   Zn413   1.949   .     S
O281   Zn424   1.944   .     S
O281   Zn1276  1.944   1_545 S
O282   Zn415   1.955   .     S
O282   C978    1.279   .     S
O293   Zn418   1.957   .     S
O304   Zn417   1.957   .     S
O315   C553    1.279   1_455 S
O315   Zn427   1.957   .     S
O319   Zn426   1.957   .     S
O320   Zn421   1.955   .     S
O320   C983    1.279   1_545 S
O321   Zn413   1.955   .     S
O322   Zn423   1.955   .     S
O322   C553    1.279   1_455 S
O323   Zn422   1.955   .     S
O324   Zn425   1.957   .     S
O324   C983    1.279   1_545 S
O325   Zn419   1.944   .     S
O325   Zn425   1.944   .     S
O325   Zn421   1.949   .     S
O325   Zn1271  1.949   1_545 S
O326   Zn424   1.957   .     S
O327   Zn416   1.928   .     S
O328   Zn415   1.928   .     S
O329   Zn418   1.935   .     S
O330   Zn417   1.935   .     S
O331   Zn420   1.928   .     S
O332   Zn419   1.928   .     S
O333   Zn414   1.933   .     S
O334   Zn428   1.933   .     S
O335   Zn415   1.933   .     S
O336   Zn846   1.944   1_455 S
O336   Zn414   1.949   .     S
O336   Zn422   1.949   .     S
O336   Zn426   1.944   .     S
O337   Zn416   1.933   .     S
O338   Zn428   1.928   .     S
O339   Zn414   1.928   .     S
O340   Zn419   1.935   .     S
O341   Zn420   1.935   .     S
O342   Zn417   1.928   .     S
O343   Zn418   1.928   .     S
O344   Zn851   1.928   .     S
O345   Zn422   1.928   .     S
O346   Zn1281  1.935   .     S
O347   Zn423   1.949   .     S
O347   Zn417   1.944   .     S
O347   Zn427   1.944   .     S
O347   Zn856   1.949   1_455 S
O348   Zn424   1.935   .     S
O349   Zn427   1.928   .     S
O350   Zn854   1.928   .     S
O351   Zn421   1.933   .     S
O352   Zn1269  1.933   .     S
O353   Zn850   1.933   .     S
O354   Zn423   1.933   .     S
O355   Zn413   1.928   .     S
O356   Zn1277  1.928   .     S
O357   Zn426   1.935   .     S
O358   Zn420   1.957   .     S
O359   Zn855   1.935   .     S
O360   Zn1280  1.928   .     S
O361   Zn425   1.928   .     S
O369   Zn419   1.957   .     S
O372   H1054   1.013   1_545 S
O374   H1055   1.013   .     S
O380   Zn414   1.955   .     S
O380   C551    1.279   1_455 S
O391   Zn428   1.955   .     S
O391   C552    1.279   .     S
O394   H637    1.013   .     S
O396   H638    1.013   1_455 S
O402   Zn416   1.955   .     S
O402   C977    1.279   1_545 S
Zn413  O1208   1.933   1_545 S
Zn415  O1181   1.949   .     S
Zn418  O764    1.944   .     S
Zn420  O1137   1.944   .     S
Zn421  O1212   1.928   1_545 S
Zn422  O781    1.933   1_455 S
Zn423  O772    1.928   1_455 S
Zn424  O1216   1.928   1_545 S
Zn425  O1202   1.935   1_545 S
Zn426  O778    1.928   1_455 S
Zn427  O787    1.935   1_455 S
Zn428  O775    1.949   .     S
C429   C507    1.411   .     A
C429   O729    1.386   .     S
C429   C432    1.405   .     A
C430   C442    1.405   .     A
C430   O739    1.386   .     S
C430   C1384   1.411   .     S
C431   C591    1.405   .     A
C431   C534    1.403   .     A
C431   C466    1.412   .     A
C432   C535    1.403   .     A
C432   C462    1.412   .     A
C433   C464    1.412   .     A
C433   C525    1.405   .     A
C433   C537    1.403   .     A
C434   C538    1.403   .     A
C434   C536    1.405   .     A
C434   C1321   1.412   1_545 S
C435   C547    1.405   .     A
C435   C539    1.403   .     A
C435   C1322   1.412   .     S
C436   C540    1.403   .     A
C436   C463    1.405   .     A
C436   C467    1.412   .     A
C437   C474    1.405   .     A
C437   C541    1.403   .     A
C437   C468    1.412   .     A
C438   C542    1.403   .     A
C438   C485    1.405   .     A
C439   C543    1.403   .     A
C439   C496    1.405   .     A
C439   C42     1.412   1_655 S
C440   C602    1.405   .     A
C440   C544    1.403   .     A
C440   C1323   1.412   1_545 S
C441   C443    1.405   .     A
C441   O740    1.386   .     S
C441   C529    1.412   .     A
C442   C545    1.403   .     A
C442   C1324   1.412   .     S
C443   C546    1.403   .     A
C443   C469    1.412   .     A
C444   C548    1.403   .     A
C444   C452    1.405   .     A
C444   C470    1.412   .     A
C445   C592    1.412   .     A
C445   C594    1.412   .     A
C445   C564    1.456   .     S
C446   C565    1.456   .     S
C446   C593    1.412   .     A
C446   C590    1.412   .     A
C447   C557    1.451   .     S
C447   C589    1.410   .     A
C447   C596    1.410   .     A
C448   C588    1.410   .     A
C448   C595    1.410   .     A
C448   C559    1.451   .     S
C449   C598    1.412   .     A
C449   C587    1.412   .     A
C449   C560    1.456   .     S
C450   C561    1.456   .     S
C450   C597    1.412   .     A
C450   C586    1.412   .     A
C451   C562    1.450   .     S
C451   C585    1.410   .     A
C451   C600    1.410   .     A
C452   O741    1.386   .     S
C452   C530    1.412   .     A
C453   C584    1.410   .     A
C453   C563    1.450   .     S
C453   C599    1.410   .     A
C454   C583    1.410   .     A
C454   C573    1.450   .     S
C454   C603    1.410   .     A
C455   C582    1.410   .     A
C455   C574    1.450   .     S
C455   C601    1.410   .     A
C456   C581    1.412   .     A
C456   C605    1.412   .     A
C456   C566    1.456   .     S
C457   C579    1.412   .     A
C457   C604    1.412   .     A
C457   C567    1.456   .     S
C458   C568    1.451   .     S
C458   C578    1.410   .     A
C458   C607    1.410   .     A
C459   C577    1.410   .     A
C459   C606    1.410   .     A
C459   C570    1.451   .     S
C460   C609    1.412   .     A
C460   C576    1.412   .     A
C460   C571    1.456   .     S
C461   C575    1.412   .     A
C461   C572    1.456   .     S
C461   C608    1.412   .     A
C462   C36     1.410   1_655 S
C462   C182    1.412   1_655 S
C463   C527    1.412   .     A
C463   O742    1.386   .     S
C465   C612    1.412   .     A
C465   C1290   1.412   .     S
C465   C1322   1.410   .     S
C466   C1291   1.412   1_545 S
C466   C1321   1.410   1_545 S
C467   C1296   1.412   .     S
C467   C1324   1.410   1_556 S
C468   C1298   1.412   1_545 S
C468   C1323   1.410   1_544 S
C469   C10     1.412   1_655 S
C469   C42     1.410   1_656 S
C470   C41     1.410   1_554 S
C471   O791    1.398   .     S
C471   O790    1.223   .     D
C471   C575    1.491   .     S
C472   O792    1.223   .     D
C472   C576    1.491   .     S
C472   O793    1.398   .     S
C473   O795    1.398   .     S
C473   C577    1.488   .     S
C473   O794    1.222   .     D
C474   O744    1.386   .     S
C474   C528    1.412   .     A
C475   O798    1.398   .     S
C475   C578    1.488   .     S
C475   O796    1.222   .     D
C476   C579    1.484   .     S
C476   O799    1.222   .     D
C476   O800    1.398   .     S
C477   C581    1.484   .     S
C477   O802    1.398   .     S
C477   O801    1.222   .     D
C478   O803    1.222   .     D
C478   O804    1.398   .     S
C478   C582    1.488   .     S
C479   O806    1.398   .     S
C479   O805    1.222   .     D
C479   C583    1.488   .     S
C480   O807    1.222   .     D
C480   O809    1.398   .     S
C480   C584    1.488   .     S
C481   O810    1.222   .     D
C481   O811    1.398   .     S
C481   C585    1.488   .     S
C482   O813    1.398   .     S
C482   C586    1.491   .     S
C482   O812    1.223   .     D
C483   O814    1.223   .     D
C483   O815    1.398   .     S
C483   C587    1.491   .     S
C484   O816    1.222   .     D
C484   O817    1.398   .     S
C484   C588    1.488   .     S
C485   O745    1.386   .     S
C486   O820    1.398   .     S
C486   O818    1.222   .     D
C486   C589    1.488   .     S
C487   O821    1.222   .     D
C487   C590    1.484   .     S
C487   O822    1.398   .     S
C488   O823    1.222   .     D
C488   C592    1.484   .     S
C488   O824    1.398   .     S
C489   O826    1.398   .     S
C489   O825    1.223   .     D
C489   C593    1.491   .     S
C490   O827    1.223   .     D
C490   C594    1.491   .     S
C490   O828    1.398   .     S
C491   O829    1.222   .     D
C491   C595    1.488   .     S
C491   O831    1.398   .     S
C492   O833    1.398   .     S
C492   C596    1.488   .     S
C492   O832    1.222   .     D
C493   O835    1.398   .     S
C493   O834    1.222   .     D
C493   C597    1.484   .     S
C494   O836    1.222   .     D
C494   O837    1.398   .     S
C494   C598    1.484   .     S
C495   O838    1.222   .     D
C495   C599    1.488   .     S
C495   O839    1.398   .     S
C496   O746    1.386   .     S
C496   C102    1.411   1_655 S
C497   C600    1.488   .     S
C497   O840    1.222   .     D
C497   O711    1.398   .     S
C498   O713    1.398   .     S
C498   O712    1.222   .     D
C498   C601    1.488   .     S
C499   O714    1.222   .     D
C499   C603    1.488   .     S
C499   O715    1.398   .     S
C500   C604    1.491   .     S
C500   O716    1.223   .     D
C500   O717    1.398   .     S
C501   O718    1.223   .     D
C501   O719    1.398   .     S
C501   C605    1.491   .     S
C502   O722    1.398   .     S
C502   C606    1.488   .     S
C502   O720    1.222   .     D
C503   C607    1.488   .     S
C503   O723    1.222   .     D
C503   O724    1.398   .     S
C504   C608    1.484   .     S
C504   O726    1.398   .     S
C504   O725    1.222   .     D
C505   C609    1.484   .     S
C505   O727    1.222   .     D
C505   O728    1.398   .     S
C506   H659    1.109   .     S
C506   H658    1.113   .     S
C506   O729    1.413   .     S
C506   H656    1.111   .     S
C507   C551    1.467   .     S
C507   C130    1.412   1_655 S
C508   H660    1.109   .     S
C508   O730    1.413   .     S
C508   H662    1.111   .     S
C508   H661    1.114   .     S
C509   H663    1.114   .     S
C509   O731    1.413   .     S
C509   H664    1.111   .     S
C509   H665    1.109   .     S
C510   O733    1.414   .     S
C510   H667    1.114   .     S
C510   H669    1.109   .     S
C510   H666    1.111   .     S
C511   H672    1.109   .     S
C511   H670    1.110   .     S
C511   H671    1.113   .     S
C511   O734    1.413   .     S
C512   H675    1.109   .     S
C512   O735    1.413   .     S
C512   H674    1.110   .     S
C512   H673    1.113   .     S
C513   H676    1.109   .     S
C513   H677    1.114   .     S
C513   H678    1.111   .     S
C513   O736    1.413   .     S
C514   H681    1.113   .     S
C514   H682    1.109   .     S
C514   O737    1.413   .     S
C514   H680    1.110   .     S
C515   H684    1.109   .     S
C515   H685    1.111   .     S
C515   O738    1.413   .     S
C515   H1539   1.113   1_545 S
C516   H686    1.109   .     S
C516   O739    1.413   .     S
C516   H688    1.111   .     S
C516   H1543   1.114   .     S
C517   H691    1.111   .     S
C517   H692    1.109   .     S
C517   O740    1.414   .     S
C517   H261    1.113   1_655 S
C518   C525    1.411   .     A
C518   C552    1.467   .     S
C519   O741    1.414   .     S
C519   H695    1.109   .     S
C519   H693    1.110   .     S
C520   H696    1.111   .     S
C520   H698    1.109   .     S
C520   O742    1.414   .     S
C520   H1553   1.114   .     S
C521   O744    1.414   .     S
C521   H702    1.109   .     S
C521   H700    1.111   .     S
C521   H1555   1.114   1_545 S
C522   H703    1.109   .     S
C522   O745    1.413   .     S
C522   H705    1.111   .     S
C523   H708    1.109   .     S
C523   H706    1.110   .     S
C523   O746    1.413   .     S
C523   H279    1.113   1_655 S
C524   C580    1.411   .     A
C524   C549    1.467   .     S
C524   C1392   1.412   .     S
C525   O730    1.386   .     S
C526   C550    1.467   .     S
C526   C591    1.411   .     A
C526   C1403   1.412   1_545 S
C527   C555    1.467   .     S
C527   C1458   1.411   .     S
C528   C556    1.467   .     S
C528   C1286   1.411   1_545 S
C529   C553    1.467   .     S
C529   C57     1.411   1_655 S
C530   C554    1.467   .     S
C531   H613    1.083   .     S
C531   C537    1.389   .     A
C531   C610    1.403   .     A
C532   C611    1.403   .     A
C532   C535    1.389   .     A
C532   H624    1.083   .     S
C533   C612    1.403   .     A
C533   C539    1.389   .     A
C533   H635    1.083   .     S
C534   H646    1.083   .     S
C534   C538    1.389   .     A
C535   H657    1.083   .     S
C536   O731    1.386   .     S
C536   C1380   1.412   1_545 S
C537   H668    1.083   .     S
C538   H679    1.083   .     S
C539   H690    1.083   .     S
C540   H701    1.083   .     S
C540   C545    1.389   1_556 S
C541   H614    1.083   .     S
C541   C544    1.389   1_554 S
C542   H615    1.083   .     S
C542   C548    1.389   1_556 S
C543   H616    1.083   .     S
C543   C546    1.389   1_554 S
C544   H617    1.083   .     S
C544   C541    1.389   1_556 S
C545   H618    1.083   .     S
C545   C540    1.389   1_554 S
C546   H619    1.083   .     S
C546   C543    1.389   1_556 S
C547   O733    1.386   .     S
C547   C1382   1.412   .     S
C548   H620    1.083   .     S
C548   C542    1.389   1_554 S
C549   O786    1.279   .     A
C549   O1686   1.279   .     S
C550   O797    1.279   .     A
C550   O1566   1.279   1_545 S
C551   O721    1.279   .     A
C551   O380    1.279   1_655 S
C552   O732    1.279   .     A
C553   O315    1.279   1_655 S
C553   O322    1.279   1_655 S
C554   O747    1.279   .     A
C554   O751    1.279   .     A
C555   O1604   1.279   .     S
C555   O1608   1.279   .     S
C556   O749    1.279   .     A
C556   O754    1.279   .     A
C557   O783    1.280   .     A
C557   O755    1.280   .     A
C558   O734    1.386   .     S
C558   C610    1.405   .     A
C559   O756    1.280   .     A
C559   O784    1.280   .     A
C560   O781    1.281   .     A
C560   O757    1.275   .     A
C561   O782    1.281   .     A
C561   O758    1.275   .     A
C562   O788    1.277   .     A
C562   O759    1.277   .     A
C563   O760    1.277   .     A
C563   O789    1.277   .     A
C564   O761    1.281   .     A
C564   O785    1.275   .     A
C565   O787    1.275   .     A
C565   O762    1.281   .     A
C566   O774    1.275   .     A
C566   O763    1.281   .     A
C567   O765    1.281   .     A
C567   O776    1.275   .     A
C568   O766    1.280   .     A
C568   O772    1.280   .     A
C569   C611    1.405   .     A
C569   O735    1.386   .     S
C569   C90     1.412   1_655 S
C570   O767    1.280   .     A
C570   O773    1.280   .     A
C571   O768    1.275   .     A
C571   O779    1.281   .     A
C572   O769    1.275   .     A
C572   O780    1.281   .     A
C573   O777    1.277   .     A
C573   O770    1.277   .     A
C574   O771    1.277   .     A
C574   O778    1.277   .     A
C575   C592    1.404   .     A
C576   C590    1.404   .     A
C577   C589    1.406   .     A
C578   C588    1.406   .     A
C579   C587    1.404   .     A
C580   O736    1.386   .     S
C580   C612    1.405   .     A
C581   C586    1.404   .     A
C582   C585    1.406   .     A
C583   C584    1.406   .     A
C591   O737    1.386   .     S
C593   C609    1.404   .     A
C594   C608    1.404   .     A
C595   C607    1.406   .     A
C596   C606    1.406   .     A
C597   C605    1.404   .     A
C598   C604    1.404   .     A
C599   C603    1.406   .     A
C600   C601    1.406   .     A
C602   O738    1.386   .     S
C602   C1383   1.411   1_545 S
C611   C36     1.412   1_655 S
H621   O791    1.014   .     S
H622   O793    1.014   .     S
H623   O795    1.014   .     S
H625   O798    1.014   .     S
H626   O1656   1.013   .     S
H627   O1658   1.013   1_545 S
H628   O804    1.014   .     S
H629   O806    1.014   .     S
H630   O809    1.014   .     S
H631   O811    1.014   .     S
H632   O813    1.014   .     S
H633   O815    1.014   .     S
H634   O817    1.014   .     S
H636   O820    1.014   .     S
H638   O396    1.013   1_655 S
H639   O826    1.014   .     S
H640   O828    1.014   .     S
H641   O831    1.014   .     S
H642   O833    1.014   .     S
H643   O835    1.013   .     S
H644   O837    1.013   .     S
H645   O839    1.014   .     S
H647   O711    1.014   .     S
H648   O713    1.014   .     S
H649   O715    1.014   .     S
H650   O717    1.014   .     S
H651   O719    1.014   .     S
H652   O722    1.014   .     S
H653   O724    1.014   .     S
H654   O726    1.013   .     S
H655   O728    1.013   .     S
H683   C1371   1.113   .     S
H687   C1372   1.114   1_545 S
H694   C91     1.113   1_655 S
H697   C1376   1.114   1_545 S
H699   C1377   1.114   .     S
H704   C94     1.114   1_655 S
O709   Zn844   1.949   .     S
O709   Zn841   1.949   .     S
O709   Zn852   1.944   .     S
O709   Zn1704  1.944   1_545 S
O710   Zn843   1.955   .     S
O710   C1406   1.279   .     S
O721   Zn846   1.957   .     S
O732   Zn845   1.957   .     S
O743   Zn855   1.957   .     S
O747   Zn854   1.957   .     S
O748   Zn849   1.955   .     S
O748   C1411   1.279   1_545 S
O749   Zn841   1.955   .     S
O750   Zn851   1.955   .     S
O751   Zn850   1.955   .     S
O752   Zn853   1.957   .     S
O752   C1411   1.279   1_545 S
O753   Zn847   1.944   .     S
O753   Zn853   1.944   .     S
O753   Zn849   1.949   .     S
O753   Zn1699  1.949   1_545 S
O754   Zn852   1.957   .     S
O755   Zn844   1.928   .     S
O756   Zn843   1.928   .     S
O757   Zn846   1.935   .     S
O758   Zn845   1.935   .     S
O759   Zn848   1.928   .     S
O760   Zn847   1.928   .     S
O761   Zn842   1.933   .     S
O762   Zn856   1.933   .     S
O763   Zn843   1.933   .     S
O764   Zn842   1.949   .     S
O764   Zn850   1.949   .     S
O764   Zn854   1.944   .     S
O765   Zn844   1.933   .     S
O766   Zn856   1.928   .     S
O767   Zn842   1.928   .     S
O768   Zn847   1.935   .     S
O769   Zn848   1.935   .     S
O770   Zn845   1.928   .     S
O771   Zn846   1.928   .     S
O772   Zn423   1.928   1_655 S
O773   Zn850   1.928   .     S
O774   Zn1709  1.935   .     S
O775   Zn851   1.949   .     S
O775   Zn845   1.944   .     S
O775   Zn855   1.944   .     S
O776   Zn852   1.935   .     S
O777   Zn855   1.928   .     S
O778   Zn426   1.928   1_655 S
O779   Zn849   1.933   .     S
O780   Zn1697  1.933   .     S
O781   Zn422   1.933   1_655 S
O782   Zn851   1.933   .     S
O783   Zn841   1.928   .     S
O784   Zn1705  1.928   .     S
O785   Zn854   1.935   .     S
O786   Zn848   1.957   .     S
O787   Zn427   1.935   1_655 S
O788   Zn1708  1.928   .     S
O789   Zn853   1.928   .     S
O797   Zn847   1.957   .     S
O800   H1482   1.013   1_545 S
O802   H1483   1.013   .     S
O808   Zn842   1.955   .     S
O819   Zn856   1.955   .     S
O819   C124    1.279   1_655 S
O822   H209    1.013   1_655 S
O830   Zn844   1.955   .     S
O830   C1405   1.279   1_545 S
Zn841  O1636   1.933   1_545 S
Zn843  O1609   1.949   .     S
Zn846  O336    1.944   1_655 S
Zn848  O1565   1.944   .     S
Zn849  O1640   1.928   1_545 S
Zn852  O1644   1.928   1_545 S
Zn853  O1630   1.935   1_545 S
Zn856  O347    1.949   1_655 S
C857   C935    1.411   .     A
C857   O1157   1.386   .     S
C857   C860    1.405   .     A
C858   C870    1.405   .     A
C858   O1167   1.386   .     S
C858   C100    1.411   1_565 S
C859   C1019   1.405   .     A
C859   C962    1.403   .     A
C859   C894    1.412   .     A
C860   C963    1.403   .     A
C860   C890    1.412   .     A
C861   C892    1.412   .     A
C861   C953    1.405   .     A
C861   C965    1.403   .     A
C862   C966    1.403   .     A
C862   C964    1.405   .     A
C863   C975    1.405   .     A
C863   C967    1.403   .     A
C863   C38     1.412   1_565 S
C864   C968    1.403   .     A
C864   C891    1.405   .     A
C864   C895    1.412   .     A
C865   C902    1.405   .     A
C865   C969    1.403   .     A
C865   C896    1.412   .     A
C866   C970    1.403   .     A
C866   C913    1.405   .     A
C866   C1325   1.412   1_455 S
C867   C971    1.403   .     A
C867   C924    1.405   .     A
C867   C1326   1.412   .     S
C868   C1030   1.405   .     A
C868   C972    1.403   .     A
C869   C871    1.405   .     A
C869   O1168   1.386   .     S
C869   C957    1.412   .     A
C870   C973    1.403   .     A
C870   C40     1.412   1_565 S
C871   C974    1.403   .     A
C871   C897    1.412   .     A
C872   C976    1.403   .     A
C872   C880    1.405   .     A
C872   C898    1.412   .     A
C873   C1020   1.412   .     A
C873   C1022   1.412   .     A
C873   C992    1.456   .     S
C874   C993    1.456   .     S
C874   C1021   1.412   .     A
C874   C1018   1.412   .     A
C875   C985    1.451   .     S
C875   C1017   1.410   .     A
C875   C1024   1.410   .     A
C876   C1016   1.410   .     A
C876   C1023   1.410   .     A
C876   C987    1.451   .     S
C877   C1026   1.412   .     A
C877   C1015   1.412   .     A
C877   C988    1.456   .     S
C878   C989    1.456   .     S
C878   C1025   1.412   .     A
C878   C1014   1.412   .     A
C879   C990    1.450   .     S
C879   C1013   1.410   .     A
C879   C1028   1.410   .     A
C880   O1169   1.386   .     S
C880   C958    1.412   .     A
C881   C1012   1.410   .     A
C881   C991    1.450   .     S
C881   C1027   1.410   .     A
C882   C1011   1.410   .     A
C882   C1001   1.450   .     S
C882   C1031   1.410   .     A
C883   C1010   1.410   .     A
C883   C1002   1.450   .     S
C883   C1029   1.410   .     A
C884   C1009   1.412   .     A
C884   C1033   1.412   .     A
C884   C994    1.456   .     S
C885   C1007   1.412   .     A
C885   C1032   1.412   .     A
C885   C995    1.456   .     S
C886   C996    1.451   .     S
C886   C1006   1.410   .     A
C886   C1035   1.410   .     A
C887   C1005   1.410   .     A
C887   C1034   1.410   .     A
C887   C998    1.451   .     S
C888   C1037   1.412   .     A
C888   C1004   1.412   .     A
C888   C999    1.456   .     S
C889   C1003   1.412   .     A
C889   C1000   1.456   .     S
C889   C1036   1.412   .     A
C890   C1320   1.410   .     S
C890   C1466   1.412   .     S
C891   C955    1.412   .     A
C891   O1170   1.386   .     S
C892   C1318   1.410   1_455 S
C892   C1467   1.412   1_455 S
C893   C1040   1.412   .     A
C893   C6      1.412   1_565 S
C893   C38     1.410   1_565 S
C895   C12     1.412   1_565 S
C895   C40     1.410   1_566 S
C896   C39     1.410   1_554 S
C897   C1294   1.412   .     S
C897   C1326   1.410   1_556 S
C898   C1295   1.412   1_455 S
C898   C1325   1.410   1_454 S
C899   O1219   1.398   .     S
C899   O1218   1.223   .     D
C899   C1003   1.491   .     S
C900   O1220   1.223   .     D
C900   C1004   1.491   .     S
C900   O1221   1.398   .     S
C901   O1223   1.398   .     S
C901   C1005   1.488   .     S
C901   O1222   1.222   .     D
C902   O1172   1.386   .     S
C902   C956    1.412   .     A
C903   O1226   1.398   .     S
C903   C1006   1.488   .     S
C903   O1224   1.222   .     D
C904   C1007   1.484   .     S
C904   O1227   1.222   .     D
C904   O1228   1.398   .     S
C905   C1009   1.484   .     S
C905   O1230   1.398   .     S
C905   O1229   1.222   .     D
C906   O1231   1.222   .     D
C906   O1232   1.398   .     S
C906   C1010   1.488   .     S
C907   O1234   1.398   .     S
C907   O1233   1.222   .     D
C907   C1011   1.488   .     S
C908   O1235   1.222   .     D
C908   O1237   1.398   .     S
C908   C1012   1.488   .     S
C909   O1238   1.222   .     D
C909   O1239   1.398   .     S
C909   C1013   1.488   .     S
C910   O1241   1.398   .     S
C910   C1014   1.491   .     S
C910   O1240   1.223   .     D
C911   O1242   1.223   .     D
C911   O1243   1.398   .     S
C911   C1015   1.491   .     S
C912   O1244   1.222   .     D
C912   O1245   1.398   .     S
C912   C1016   1.488   .     S
C913   O1173   1.386   .     S
C913   C1385   1.411   1_455 S
C914   O1248   1.398   .     S
C914   O1246   1.222   .     D
C914   C1017   1.488   .     S
C915   O1249   1.222   .     D
C915   C1018   1.484   .     S
C915   O1250   1.398   .     S
C916   O1251   1.222   .     D
C916   C1020   1.484   .     S
C916   O1252   1.398   .     S
C917   O1254   1.398   .     S
C917   O1253   1.223   .     D
C917   C1021   1.491   .     S
C918   O1255   1.223   .     D
C918   C1022   1.491   .     S
C918   O1256   1.398   .     S
C919   O1257   1.222   .     D
C919   C1023   1.488   .     S
C919   O1259   1.398   .     S
C920   O1261   1.398   .     S
C920   C1024   1.488   .     S
C920   O1260   1.222   .     D
C921   O1263   1.398   .     S
C921   O1262   1.222   .     D
C921   C1025   1.484   .     S
C922   O1264   1.222   .     D
C922   O1265   1.398   .     S
C922   C1026   1.484   .     S
C923   O1266   1.222   .     D
C923   C1027   1.488   .     S
C923   O1267   1.398   .     S
C924   O1174   1.386   .     S
C924   C1386   1.411   .     S
C925   C1028   1.488   .     S
C925   O1268   1.222   .     D
C925   O1139   1.398   .     S
C926   O1141   1.398   .     S
C926   O1140   1.222   .     D
C926   C1029   1.488   .     S
C927   O1142   1.222   .     D
C927   C1031   1.488   .     S
C927   O1143   1.398   .     S
C928   C1032   1.491   .     S
C928   O1144   1.223   .     D
C928   O1145   1.398   .     S
C929   O1146   1.223   .     D
C929   O1147   1.398   .     S
C929   C1033   1.491   .     S
C930   O1150   1.398   .     S
C930   C1034   1.488   .     S
C930   O1148   1.222   .     D
C931   C1035   1.488   .     S
C931   O1151   1.222   .     D
C931   O1152   1.398   .     S
C932   C1036   1.484   .     S
C932   O1154   1.398   .     S
C932   O1153   1.222   .     D
C933   C1037   1.484   .     S
C933   O1155   1.222   .     D
C933   O1156   1.398   .     S
C934   H1087   1.109   .     S
C934   H1086   1.113   .     S
C934   O1157   1.413   .     S
C934   H1084   1.111   .     S
C935   C979    1.467   .     S
C935   C1414   1.412   .     S
C936   H1088   1.109   .     S
C936   O1158   1.413   .     S
C936   H1090   1.111   .     S
C936   H1089   1.114   .     S
C937   H1091   1.114   .     S
C937   O1159   1.413   .     S
C937   H1092   1.111   .     S
C937   H1093   1.109   .     S
C938   O1161   1.414   .     S
C938   H1095   1.114   .     S
C938   H1097   1.109   .     S
C938   H1094   1.111   .     S
C939   H1100   1.109   .     S
C939   H1098   1.110   .     S
C939   H1099   1.113   .     S
C939   O1162   1.413   .     S
C940   H1103   1.109   .     S
C940   O1163   1.413   .     S
C940   H1102   1.110   .     S
C940   H1101   1.113   .     S
C941   H1104   1.109   .     S
C941   H1105   1.114   .     S
C941   H1106   1.111   .     S
C941   O1164   1.413   .     S
C942   H1109   1.113   .     S
C942   H1110   1.109   .     S
C942   O1165   1.413   .     S
C942   H1108   1.110   .     S
C943   H1112   1.109   .     S
C943   H1113   1.111   .     S
C943   O1166   1.413   .     S
C944   H1114   1.109   .     S
C944   O1167   1.413   .     S
C944   H1116   1.111   .     S
C944   H259    1.114   1_565 S
C945   H1119   1.111   .     S
C945   H1120   1.109   .     S
C945   O1168   1.414   .     S
C945   H1545   1.113   .     S
C946   C953    1.411   .     A
C946   C980    1.467   .     S
C946   C1425   1.412   1_455 S
C947   O1169   1.414   .     S
C947   H1123   1.109   .     S
C947   H1121   1.110   .     S
C947   H1550   1.113   1_455 S
C948   H1124   1.111   .     S
C948   H1126   1.109   .     S
C948   O1170   1.414   .     S
C948   H269    1.114   1_565 S
C949   O1172   1.414   .     S
C949   H1130   1.109   .     S
C949   H1128   1.111   .     S
C950   H1131   1.109   .     S
C950   O1173   1.413   .     S
C950   H1133   1.111   .     S
C950   H1560   1.114   1_455 S
C951   H1136   1.109   .     S
C951   H1134   1.110   .     S
C951   O1174   1.413   .     S
C951   H1563   1.113   .     S
C952   C1008   1.411   .     A
C952   C977    1.467   .     S
C952   C108    1.412   1_565 S
C953   O1158   1.386   .     S
C954   C978    1.467   .     S
C954   C1019   1.411   .     A
C955   C983    1.467   .     S
C955   C174    1.411   1_565 S
C956   C984    1.467   .     S
C957   C981    1.467   .     S
C957   C1341   1.411   .     S
C958   C982    1.467   .     S
C958   C1352   1.411   1_455 S
C959   H1041   1.083   .     S
C959   C965    1.389   .     A
C959   C1038   1.403   .     A
C960   C1039   1.403   .     A
C960   C963    1.389   .     A
C960   H1052   1.083   .     S
C961   C1040   1.403   .     A
C961   C967    1.389   .     A
C961   H1063   1.083   .     S
C962   H1074   1.083   .     S
C962   C966    1.389   .     A
C963   H1085   1.083   .     S
C964   O1159   1.386   .     S
C965   H1096   1.083   .     S
C966   H1107   1.083   .     S
C967   H1118   1.083   .     S
C968   H1129   1.083   .     S
C968   C973    1.389   1_556 S
C969   H1042   1.083   .     S
C969   C972    1.389   1_554 S
C970   H1043   1.083   .     S
C970   C976    1.389   1_556 S
C971   H1044   1.083   .     S
C971   C974    1.389   1_554 S
C972   H1045   1.083   .     S
C972   C969    1.389   1_556 S
C973   H1046   1.083   .     S
C973   C968    1.389   1_554 S
C974   H1047   1.083   .     S
C974   C971    1.389   1_556 S
C975   O1161   1.386   .     S
C975   C98     1.412   1_565 S
C976   H1048   1.083   .     S
C976   C970    1.389   1_554 S
C977   O1214   1.279   .     A
C977   O402    1.279   1_565 S
C978   O1225   1.279   .     A
C979   O1149   1.279   .     A
C979   O1664   1.279   .     S
C980   O1160   1.279   .     A
C980   O1675   1.279   1_455 S
C981   O1599   1.279   .     S
C981   O1606   1.279   .     S
C982   O1175   1.279   .     A
C982   O1179   1.279   .     A
C983   O320    1.279   1_565 S
C983   O324    1.279   1_565 S
C984   O1177   1.279   .     A
C984   O1182   1.279   .     A
C985   O1211   1.280   .     A
C985   O1183   1.280   .     A
C986   O1162   1.386   .     S
C986   C1038   1.405   .     A
C986   C1363   1.412   1_455 S
C987   O1184   1.280   .     A
C987   O1212   1.280   .     A
C988   O1209   1.281   .     A
C988   O1185   1.275   .     A
C989   O1210   1.281   .     A
C989   O1186   1.275   .     A
C990   O1216   1.277   .     A
C990   O1187   1.277   .     A
C991   O1188   1.277   .     A
C991   O1217   1.277   .     A
C992   O1189   1.281   .     A
C992   O1213   1.275   .     A
C993   O1215   1.275   .     A
C993   O1190   1.281   .     A
C994   O1202   1.275   .     A
C994   O1191   1.281   .     A
C995   O1193   1.281   .     A
C995   O1204   1.275   .     A
C996   O1194   1.280   .     A
C996   O1200   1.280   .     A
C997   C1039   1.405   .     A
C997   O1163   1.386   .     S
C997   C1374   1.412   .     S
C998   O1195   1.280   .     A
C998   O1201   1.280   .     A
C999   O1196   1.275   .     A
C999   O1207   1.281   .     A
C1000  O1197   1.275   .     A
C1000  O1208   1.281   .     A
C1001  O1205   1.277   .     A
C1001  O1198   1.277   .     A
C1002  O1199   1.277   .     A
C1002  O1206   1.277   .     A
C1003  C1020   1.404   .     A
C1004  C1018   1.404   .     A
C1005  C1017   1.406   .     A
C1006  C1016   1.406   .     A
C1007  C1015   1.404   .     A
C1008  O1164   1.386   .     S
C1008  C1040   1.405   .     A
C1009  C1014   1.404   .     A
C1010  C1013   1.406   .     A
C1011  C1012   1.406   .     A
C1019  O1165   1.386   .     S
C1021  C1037   1.404   .     A
C1022  C1036   1.404   .     A
C1023  C1035   1.406   .     A
C1024  C1034   1.406   .     A
C1025  C1033   1.404   .     A
C1026  C1032   1.404   .     A
C1027  C1031   1.406   .     A
C1028  C1029   1.406   .     A
C1030  O1166   1.386   .     S
C1038  C1318   1.412   1_455 S
C1039  C1320   1.412   .     S
H1049  O1219   1.014   .     S
H1050  O1221   1.014   .     S
H1051  O1223   1.014   .     S
H1053  O1226   1.014   .     S
H1054  O372    1.013   1_565 S
H1056  O1232   1.014   .     S
H1057  O1234   1.014   .     S
H1058  O1237   1.014   .     S
H1059  O1239   1.014   .     S
H1060  O1241   1.014   .     S
H1061  O1243   1.014   .     S
H1062  O1245   1.014   .     S
H1064  O1248   1.014   .     S
H1065  O1678   1.013   1_455 S
H1066  O1680   1.013   .     S
H1067  O1254   1.014   .     S
H1068  O1256   1.014   .     S
H1069  O1259   1.014   .     S
H1070  O1261   1.014   .     S
H1071  O1263   1.013   .     S
H1072  O1265   1.013   .     S
H1073  O1267   1.014   .     S
H1075  O1139   1.014   .     S
H1076  O1141   1.014   .     S
H1077  O1143   1.014   .     S
H1078  O1145   1.014   .     S
H1079  O1147   1.014   .     S
H1080  O1150   1.014   .     S
H1081  O1152   1.014   .     S
H1082  O1154   1.013   .     S
H1083  O1156   1.013   .     S
H1111  C87     1.113   1_565 S
H1117  C1373   1.113   1_455 S
H1122  C1375   1.113   .     S
H1127  C93     1.114   1_565 S
H1132  C1378   1.114   .     S
H1135  C1379   1.113   1_455 S
O1137  Zn1272  1.949   .     S
O1137  Zn1269  1.949   .     S
O1137  Zn1280  1.944   .     S
O1138  Zn1271  1.955   .     S
O1138  C122    1.279   1_565 S
O1149  Zn1274  1.957   .     S
O1160  Zn1273  1.957   .     S
O1171  C1409   1.279   1_455 S
O1171  Zn1283  1.957   .     S
O1175  Zn1282  1.957   .     S
O1176  Zn1277  1.955   .     S
O1177  Zn1269  1.955   .     S
O1178  Zn1279  1.955   .     S
O1178  C1409   1.279   1_455 S
O1179  Zn1278  1.955   .     S
O1180  Zn1281  1.957   .     S
O1181  Zn1275  1.944   .     S
O1181  Zn1281  1.944   .     S
O1181  Zn1277  1.949   .     S
O1182  Zn1280  1.957   .     S
O1183  Zn1272  1.928   .     S
O1184  Zn1271  1.928   .     S
O1185  Zn1274  1.935   .     S
O1186  Zn1273  1.935   .     S
O1187  Zn1276  1.928   .     S
O1188  Zn1275  1.928   .     S
O1189  Zn1270  1.933   .     S
O1190  Zn1284  1.933   .     S
O1191  Zn1271  1.933   .     S
O1192  Zn1702  1.944   1_455 S
O1192  Zn1270  1.949   .     S
O1192  Zn1278  1.949   .     S
O1192  Zn1282  1.944   .     S
O1193  Zn1272  1.933   .     S
O1194  Zn1284  1.928   .     S
O1195  Zn1270  1.928   .     S
O1196  Zn1275  1.935   .     S
O1197  Zn1276  1.935   .     S
O1198  Zn1273  1.928   .     S
O1199  Zn1274  1.928   .     S
O1200  Zn1707  1.928   .     S
O1201  Zn1278  1.928   .     S
O1202  Zn425   1.935   1_565 S
O1203  Zn1279  1.949   .     S
O1203  Zn1273  1.944   .     S
O1203  Zn1283  1.944   .     S
O1203  Zn1712  1.949   1_455 S
O1204  Zn1280  1.935   .     S
O1205  Zn1283  1.928   .     S
O1206  Zn1710  1.928   .     S
O1207  Zn1277  1.933   .     S
O1208  Zn413   1.933   1_565 S
O1209  Zn1706  1.933   .     S
O1210  Zn1279  1.933   .     S
O1211  Zn1269  1.928   .     S
O1212  Zn421   1.928   1_565 S
O1213  Zn1282  1.935   .     S
O1214  Zn1276  1.957   .     S
O1215  Zn1711  1.935   .     S
O1216  Zn424   1.928   1_565 S
O1217  Zn1281  1.928   .     S
O1225  Zn1275  1.957   .     S
O1230  H199    1.013   1_565 S
O1236  Zn1270  1.955   .     S
O1236  C1407   1.279   1_455 S
O1247  Zn1284  1.955   .     S
O1247  C1408   1.279   .     S
O1250  H1493   1.013   .     S
O1252  H1494   1.013   1_455 S
O1258  Zn1272  1.955   .     S
Zn1271 O325    1.949   1_565 S
Zn1274 O1620   1.944   .     S
Zn1276 O281    1.944   1_565 S
Zn1278 O1637   1.933   1_455 S
Zn1279 O1628   1.928   1_455 S
Zn1282 O1634   1.928   1_455 S
Zn1283 O1643   1.935   1_455 S
Zn1284 O1631   1.949   .     S
C1285  C1363   1.411   .     A
C1285  O1585   1.386   .     S
C1285  C1288   1.405   .     A
C1286  C1298   1.405   .     A
C1286  O1595   1.386   .     S
C1286  C528    1.411   1_565 S
C1287  C1447   1.405   .     A
C1287  C1390   1.403   .     A
C1287  C1322   1.412   .     A
C1288  C1391   1.403   .     A
C1288  C1318   1.412   .     A
C1289  C1320   1.412   .     A
C1289  C1381   1.405   .     A
C1289  C1393   1.403   .     A
C1290  C1394   1.403   .     A
C1290  C1392   1.405   .     A
C1291  C1403   1.405   .     A
C1291  C1395   1.403   .     A
C1291  C466    1.412   1_565 S
C1292  C1396   1.403   .     A
C1292  C1319   1.405   .     A
C1292  C1323   1.412   .     A
C1293  C1330   1.405   .     A
C1293  C1397   1.403   .     A
C1293  C1324   1.412   .     A
C1294  C1398   1.403   .     A
C1294  C1341   1.405   .     A
C1295  C1399   1.403   .     A
C1295  C1352   1.405   .     A
C1295  C898    1.412   1_655 S
C1296  C1458   1.405   .     A
C1296  C1400   1.403   .     A
C1297  C1299   1.405   .     A
C1297  O1596   1.386   .     S
C1297  C1385   1.412   .     A
C1298  C1401   1.403   .     A
C1298  C468    1.412   1_565 S
C1299  C1402   1.403   .     A
C1299  C1325   1.412   .     A
C1300  C1404   1.403   .     A
C1300  C1308   1.405   .     A
C1300  C1326   1.412   .     A
C1301  C1448   1.412   .     A
C1301  C1450   1.412   .     A
C1301  C1420   1.456   .     S
C1302  C1421   1.456   .     S
C1302  C1449   1.412   .     A
C1302  C1446   1.412   .     A
C1303  C1413   1.451   .     S
C1303  C1445   1.410   .     A
C1303  C1452   1.410   .     A
C1304  C1444   1.410   .     A
C1304  C1451   1.410   .     A
C1304  C1415   1.451   .     S
C1305  C1454   1.412   .     A
C1305  C1443   1.412   .     A
C1305  C1416   1.456   .     S
C1306  C1417   1.456   .     S
C1306  C1453   1.412   .     A
C1306  C1442   1.412   .     A
C1307  C1418   1.450   .     S
C1307  C1441   1.410   .     A
C1307  C1456   1.410   .     A
C1308  O1597   1.386   .     S
C1308  C1386   1.412   .     A
C1309  C1440   1.410   .     A
C1309  C1419   1.450   .     S
C1309  C1455   1.410   .     A
C1310  C1439   1.410   .     A
C1310  C1429   1.450   .     S
C1310  C1459   1.410   .     A
C1311  C1438   1.410   .     A
C1311  C1430   1.450   .     S
C1311  C1457   1.410   .     A
C1312  C1437   1.412   .     A
C1312  C1461   1.412   .     A
C1312  C1422   1.456   .     S
C1313  C1435   1.412   .     A
C1313  C1460   1.412   .     A
C1313  C1423   1.456   .     S
C1314  C1424   1.451   .     S
C1314  C1434   1.410   .     A
C1314  C1463   1.410   .     A
C1315  C1433   1.410   .     A
C1315  C1462   1.410   .     A
C1315  C1426   1.451   .     S
C1316  C1465   1.412   .     A
C1316  C1432   1.412   .     A
C1316  C1427   1.456   .     S
C1317  C1431   1.412   .     A
C1317  C1428   1.456   .     S
C1317  C1464   1.412   .     A
C1318  C892    1.410   1_655 S
C1318  C1038   1.412   1_655 S
C1319  C1383   1.412   .     A
C1319  O1598   1.386   .     S
C1321  C1468   1.412   .     A
C1321  C434    1.412   1_565 S
C1321  C466    1.410   1_565 S
C1323  C440    1.412   1_565 S
C1323  C468    1.410   1_566 S
C1324  C467    1.410   1_554 S
C1325  C866    1.412   1_655 S
C1325  C898    1.410   1_656 S
C1326  C897    1.410   1_554 S
C1327  O1647   1.398   .     S
C1327  O1646   1.223   .     D
C1327  C1431   1.491   .     S
C1328  O1648   1.223   .     D
C1328  C1432   1.491   .     S
C1328  O1649   1.398   .     S
C1329  O1651   1.398   .     S
C1329  C1433   1.488   .     S
C1329  O1650   1.222   .     D
C1330  O1600   1.386   .     S
C1330  C1384   1.412   .     A
C1331  O1654   1.398   .     S
C1331  C1434   1.488   .     S
C1331  O1652   1.222   .     D
C1332  C1435   1.484   .     S
C1332  O1655   1.222   .     D
C1332  O1656   1.398   .     S
C1333  C1437   1.484   .     S
C1333  O1658   1.398   .     S
C1333  O1657   1.222   .     D
C1334  O1659   1.222   .     D
C1334  O1660   1.398   .     S
C1334  C1438   1.488   .     S
C1335  O1662   1.398   .     S
C1335  O1661   1.222   .     D
C1335  C1439   1.488   .     S
C1336  O1663   1.222   .     D
C1336  O1665   1.398   .     S
C1336  C1440   1.488   .     S
C1337  O1666   1.222   .     D
C1337  O1667   1.398   .     S
C1337  C1441   1.488   .     S
C1338  O1669   1.398   .     S
C1338  C1442   1.491   .     S
C1338  O1668   1.223   .     D
C1339  O1670   1.223   .     D
C1339  O1671   1.398   .     S
C1339  C1443   1.491   .     S
C1340  O1672   1.222   .     D
C1340  O1673   1.398   .     S
C1340  C1444   1.488   .     S
C1341  O1601   1.386   .     S
C1342  O1676   1.398   .     S
C1342  O1674   1.222   .     D
C1342  C1445   1.488   .     S
C1343  O1677   1.222   .     D
C1343  C1446   1.484   .     S
C1343  O1678   1.398   .     S
C1344  O1679   1.222   .     D
C1344  C1448   1.484   .     S
C1344  O1680   1.398   .     S
C1345  O1682   1.398   .     S
C1345  O1681   1.223   .     D
C1345  C1449   1.491   .     S
C1346  O1683   1.223   .     D
C1346  C1450   1.491   .     S
C1346  O1684   1.398   .     S
C1347  O1685   1.222   .     D
C1347  C1451   1.488   .     S
C1347  O1687   1.398   .     S
C1348  O1689   1.398   .     S
C1348  C1452   1.488   .     S
C1348  O1688   1.222   .     D
C1349  O1691   1.398   .     S
C1349  O1690   1.222   .     D
C1349  C1453   1.484   .     S
C1350  O1692   1.222   .     D
C1350  O1693   1.398   .     S
C1350  C1454   1.484   .     S
C1351  O1694   1.222   .     D
C1351  C1455   1.488   .     S
C1351  O1695   1.398   .     S
C1352  O1602   1.386   .     S
C1352  C958    1.411   1_655 S
C1353  C1456   1.488   .     S
C1353  O1696   1.222   .     D
C1353  O1567   1.398   .     S
C1354  O1569   1.398   .     S
C1354  O1568   1.222   .     D
C1354  C1457   1.488   .     S
C1355  O1570   1.222   .     D
C1355  C1459   1.488   .     S
C1355  O1571   1.398   .     S
C1356  C1460   1.491   .     S
C1356  O1572   1.223   .     D
C1356  O1573   1.398   .     S
C1357  O1574   1.223   .     D
C1357  O1575   1.398   .     S
C1357  C1461   1.491   .     S
C1358  O1578   1.398   .     S
C1358  C1462   1.488   .     S
C1358  O1576   1.222   .     D
C1359  C1463   1.488   .     S
C1359  O1579   1.222   .     D
C1359  O1580   1.398   .     S
C1360  C1464   1.484   .     S
C1360  O1582   1.398   .     S
C1360  O1581   1.222   .     D
C1361  C1465   1.484   .     S
C1361  O1583   1.222   .     D
C1361  O1584   1.398   .     S
C1362  H1515   1.109   .     S
C1362  H1514   1.113   .     S
C1362  O1585   1.413   .     S
C1362  H1512   1.111   .     S
C1363  C1407   1.467   .     S
C1363  C986    1.412   1_655 S
C1364  H1516   1.109   .     S
C1364  O1586   1.413   .     S
C1364  H1518   1.111   .     S
C1364  H1517   1.114   .     S
C1365  H1519   1.114   .     S
C1365  O1587   1.413   .     S
C1365  H1520   1.111   .     S
C1365  H1521   1.109   .     S
C1366  O1589   1.414   .     S
C1366  H1523   1.114   .     S
C1366  H1525   1.109   .     S
C1366  H1522   1.111   .     S
C1367  H1528   1.109   .     S
C1367  H1526   1.110   .     S
C1367  H1527   1.113   .     S
C1367  O1590   1.413   .     S
C1368  H1531   1.109   .     S
C1368  O1591   1.413   .     S
C1368  H1530   1.110   .     S
C1368  H1529   1.113   .     S
C1369  H1532   1.109   .     S
C1369  H1533   1.114   .     S
C1369  H1534   1.111   .     S
C1369  O1592   1.413   .     S
C1370  H1537   1.113   .     S
C1370  H1538   1.109   .     S
C1370  O1593   1.413   .     S
C1370  H1536   1.110   .     S
C1371  H1540   1.109   .     S
C1371  H1541   1.111   .     S
C1371  O1594   1.413   .     S
C1372  H1542   1.109   .     S
C1372  O1595   1.413   .     S
C1372  H1544   1.111   .     S
C1372  H687    1.114   1_565 S
C1373  H1547   1.111   .     S
C1373  H1548   1.109   .     S
C1373  O1596   1.414   .     S
C1373  H1117   1.113   1_655 S
C1374  C1381   1.411   .     A
C1374  C1408   1.467   .     S
C1375  O1597   1.414   .     S
C1375  H1551   1.109   .     S
C1375  H1549   1.110   .     S
C1376  H1552   1.111   .     S
C1376  H1554   1.109   .     S
C1376  O1598   1.414   .     S
C1376  H697    1.114   1_565 S
C1377  O1600   1.414   .     S
C1377  H1558   1.109   .     S
C1377  H1556   1.111   .     S
C1378  H1559   1.109   .     S
C1378  O1601   1.413   .     S
C1378  H1561   1.111   .     S
C1379  H1564   1.109   .     S
C1379  H1562   1.110   .     S
C1379  O1602   1.413   .     S
C1379  H1135   1.113   1_655 S
C1380  C1436   1.411   .     A
C1380  C1405   1.467   .     S
C1380  C536    1.412   1_565 S
C1381  O1586   1.386   .     S
C1382  C1406   1.467   .     S
C1382  C1447   1.411   .     A
C1383  C1411   1.467   .     S
C1383  C602    1.411   1_565 S
C1384  C1412   1.467   .     S
C1385  C1409   1.467   .     S
C1385  C913    1.411   1_655 S
C1386  C1410   1.467   .     S
C1387  H1469   1.083   .     S
C1387  C1393   1.389   .     A
C1387  C1466   1.403   .     A
C1388  C1467   1.403   .     A
C1388  C1391   1.389   .     A
C1388  H1480   1.083   .     S
C1389  C1468   1.403   .     A
C1389  C1395   1.389   .     A
C1389  H1491   1.083   .     S
C1390  H1502   1.083   .     S
C1390  C1394   1.389   .     A
C1391  H1513   1.083   .     S
C1392  O1587   1.386   .     S
C1393  H1524   1.083   .     S
C1394  H1535   1.083   .     S
C1395  H1546   1.083   .     S
C1396  H1557   1.083   .     S
C1396  C1401   1.389   1_556 S
C1397  H1470   1.083   .     S
C1397  C1400   1.389   1_554 S
C1398  H1471   1.083   .     S
C1398  C1404   1.389   1_556 S
C1399  H1472   1.083   .     S
C1399  C1402   1.389   1_554 S
C1400  H1473   1.083   .     S
C1400  C1397   1.389   1_556 S
C1401  H1474   1.083   .     S
C1401  C1396   1.389   1_554 S
C1402  H1475   1.083   .     S
C1402  C1399   1.389   1_556 S
C1403  O1589   1.386   .     S
C1403  C526    1.412   1_565 S
C1404  H1476   1.083   .     S
C1404  C1398   1.389   1_554 S
C1405  O1642   1.279   .     A
C1405  O830    1.279   1_565 S
C1406  O1653   1.279   .     A
C1407  O1577   1.279   .     A
C1407  O1236   1.279   1_655 S
C1408  O1588   1.279   .     A
C1409  O1171   1.279   1_655 S
C1409  O1178   1.279   1_655 S
C1410  O1603   1.279   .     A
C1410  O1607   1.279   .     A
C1411  O748    1.279   1_565 S
C1411  O752    1.279   1_565 S
C1412  O1605   1.279   .     A
C1412  O1610   1.279   .     A
C1413  O1639   1.280   .     A
C1413  O1611   1.280   .     A
C1414  O1590   1.386   .     S
C1414  C1466   1.405   .     A
C1415  O1612   1.280   .     A
C1415  O1640   1.280   .     A
C1416  O1637   1.281   .     A
C1416  O1613   1.275   .     A
C1417  O1638   1.281   .     A
C1417  O1614   1.275   .     A
C1418  O1644   1.277   .     A
C1418  O1615   1.277   .     A
C1419  O1616   1.277   .     A
C1419  O1645   1.277   .     A
C1420  O1617   1.281   .     A
C1420  O1641   1.275   .     A
C1421  O1643   1.275   .     A
C1421  O1618   1.281   .     A
C1422  O1630   1.275   .     A
C1422  O1619   1.281   .     A
C1423  O1621   1.281   .     A
C1423  O1632   1.275   .     A
C1424  O1622   1.280   .     A
C1424  O1628   1.280   .     A
C1425  C1467   1.405   .     A
C1425  O1591   1.386   .     S
C1425  C946    1.412   1_655 S
C1426  O1623   1.280   .     A
C1426  O1629   1.280   .     A
C1427  O1624   1.275   .     A
C1427  O1635   1.281   .     A
C1428  O1625   1.275   .     A
C1428  O1636   1.281   .     A
C1429  O1633   1.277   .     A
C1429  O1626   1.277   .     A
C1430  O1627   1.277   .     A
C1430  O1634   1.277   .     A
C1431  C1448   1.404   .     A
C1432  C1446   1.404   .     A
C1433  C1445   1.406   .     A
C1434  C1444   1.406   .     A
C1435  C1443   1.404   .     A
C1436  O1592   1.386   .     S
C1436  C1468   1.405   .     A
C1437  C1442   1.404   .     A
C1438  C1441   1.406   .     A
C1439  C1440   1.406   .     A
C1447  O1593   1.386   .     S
C1449  C1465   1.404   .     A
C1450  C1464   1.404   .     A
C1451  C1463   1.406   .     A
C1452  C1462   1.406   .     A
C1453  C1461   1.404   .     A
C1454  C1460   1.404   .     A
C1455  C1459   1.406   .     A
C1456  C1457   1.406   .     A
C1458  O1594   1.386   .     S
C1467  C892    1.412   1_655 S
H1477  O1647   1.014   .     S
H1478  O1649   1.014   .     S
H1479  O1651   1.014   .     S
H1481  O1654   1.014   .     S
H1482  O800    1.013   1_565 S
H1484  O1660   1.014   .     S
H1485  O1662   1.014   .     S
H1486  O1665   1.014   .     S
H1487  O1667   1.014   .     S
H1488  O1669   1.014   .     S
H1489  O1671   1.014   .     S
H1490  O1673   1.014   .     S
H1492  O1676   1.014   .     S
H1494  O1252   1.013   1_655 S
H1495  O1682   1.014   .     S
H1496  O1684   1.014   .     S
H1497  O1687   1.014   .     S
H1498  O1689   1.014   .     S
H1499  O1691   1.013   .     S
H1500  O1693   1.013   .     S
H1501  O1695   1.014   .     S
H1503  O1567   1.014   .     S
H1504  O1569   1.014   .     S
H1505  O1571   1.014   .     S
H1506  O1573   1.014   .     S
H1507  O1575   1.014   .     S
H1508  O1578   1.014   .     S
H1509  O1580   1.014   .     S
H1510  O1582   1.013   .     S
H1511  O1584   1.013   .     S
H1539  C515    1.113   1_565 S
H1550  C947    1.113   1_655 S
H1555  C521    1.114   1_565 S
H1560  C950    1.114   1_655 S
O1565  Zn1700  1.949   .     S
O1565  Zn1697  1.949   .     S
O1565  Zn1708  1.944   .     S
O1566  Zn1699  1.955   .     S
O1566  C550    1.279   1_565 S
O1577  Zn1702  1.957   .     S
O1588  Zn1701  1.957   .     S
O1599  Zn1711  1.957   .     S
O1603  Zn1710  1.957   .     S
O1604  Zn1705  1.955   .     S
O1605  Zn1697  1.955   .     S
O1606  Zn1707  1.955   .     S
O1607  Zn1706  1.955   .     S
O1608  Zn1709  1.957   .     S
O1609  Zn1703  1.944   .     S
O1609  Zn1709  1.944   .     S
O1609  Zn1705  1.949   .     S
O1610  Zn1708  1.957   .     S
O1611  Zn1700  1.928   .     S
O1612  Zn1699  1.928   .     S
O1613  Zn1702  1.935   .     S
O1614  Zn1701  1.935   .     S
O1615  Zn1704  1.928   .     S
O1616  Zn1703  1.928   .     S
O1617  Zn1698  1.933   .     S
O1618  Zn1712  1.933   .     S
O1619  Zn1699  1.933   .     S
O1620  Zn1698  1.949   .     S
O1620  Zn1706  1.949   .     S
O1620  Zn1710  1.944   .     S
O1621  Zn1700  1.933   .     S
O1622  Zn1712  1.928   .     S
O1623  Zn1698  1.928   .     S
O1624  Zn1703  1.935   .     S
O1625  Zn1704  1.935   .     S
O1626  Zn1701  1.928   .     S
O1627  Zn1702  1.928   .     S
O1628  Zn1279  1.928   1_655 S
O1629  Zn1706  1.928   .     S
O1630  Zn853   1.935   1_565 S
O1631  Zn1707  1.949   .     S
O1631  Zn1701  1.944   .     S
O1631  Zn1711  1.944   .     S
O1632  Zn1708  1.935   .     S
O1633  Zn1711  1.928   .     S
O1634  Zn1282  1.928   1_655 S
O1635  Zn1705  1.933   .     S
O1636  Zn841   1.933   1_565 S
O1637  Zn1278  1.933   1_655 S
O1638  Zn1707  1.933   .     S
O1639  Zn1697  1.928   .     S
O1640  Zn849   1.928   1_565 S
O1641  Zn1710  1.935   .     S
O1642  Zn1704  1.957   .     S
O1643  Zn1283  1.935   1_655 S
O1644  Zn852   1.928   1_565 S
O1645  Zn1709  1.928   .     S
O1653  Zn1703  1.957   .     S
O1658  H627    1.013   1_565 S
O1664  Zn1698  1.955   .     S
O1675  Zn1712  1.955   .     S
O1675  C980    1.279   1_655 S
O1678  H1065   1.013   1_655 S
O1686  Zn1700  1.955   .     S
Zn1699 O753    1.949   1_565 S
Zn1702 O1192   1.944   1_655 S
Zn1704 O709    1.944   1_565 S
Zn1712 O1203   1.949   1_655 S
