data_str_m1_o10_o16_pcu_sym.203
_audit_creation_date              2020-01-03
_audit_creation_method            'Materials Studio'
_symmetry_space_group_name_H-M    'P1'
_symmetry_Int_Tables_number       1
_symmetry_cell_setting            triclinic
loop_
_symmetry_equiv_pos_as_xyz
  x,y,z
_cell_length_a                    32.5619
_cell_length_b                    32.5099
_cell_length_c                    31.0747
_cell_angle_alpha                 96.0493
_cell_angle_beta                  74.2930
_cell_angle_gamma                 98.5374
loop_
_atom_site_label
_atom_site_type_symbol
_atom_site_fract_x
_atom_site_fract_y
_atom_site_fract_z
_atom_site_U_iso_or_equiv
_atom_site_adp_type
_atom_site_occupancy
Br1    Br    0.03301   0.20558   0.18601   0.00000  Uiso   1.00
C2     C     0.05274   0.15959   0.26029   0.00000  Uiso   1.00
C3     C     0.16554   0.15235   0.05934   0.00000  Uiso   1.00
C4     C     0.23744   0.13878   0.05653   0.00000  Uiso   1.00
C5     C     0.28094   0.17383   0.23973   0.00000  Uiso   1.00
C6     C     0.13712   0.18821   0.42029   0.00000  Uiso   1.00
C7     C     0.32707   0.17628   0.23465   0.00000  Uiso   1.00
C8     C     0.00758   0.15796   0.26378   0.00000  Uiso   1.00
C9     C     0.18068   0.32259   0.23614   0.00000  Uiso   1.00
C10    C     0.15222   0.01176   0.26393   0.00000  Uiso   1.00
C11    C     0.15634   0.05590   0.26011   0.00000  Uiso   1.00
C12    C     0.17669   0.27798   0.24005   0.00000  Uiso   1.00
C13    C     0.07900   0.18860   0.48910   0.00000  Uiso   1.00
C14    C     0.18565   0.14848   0.12929   0.00000  Uiso   1.00
C15    C     0.14879   0.18484   0.37088   0.00000  Uiso   1.00
C16    C     0.25057   0.14502   0.01114   0.00000  Uiso   1.00
C17    C     0.19525   0.14322   0.08076   0.00000  Uiso   1.00
C18    C     0.09443   0.19322   0.44284   0.00000  Uiso   1.00
C19    C     0.01863   0.22252   0.49905   0.00000  Uiso   1.00
C20    C     0.10627   0.17665   0.01197   0.00000  Uiso   1.00
C21    C     0.14990   0.17228   0.49065   0.00000  Uiso   1.00
C22    C     0.16577   0.18022   0.44458   0.00000  Uiso   1.00
C23    C     0.17831   0.16009   0.01344   0.00000  Uiso   1.00
C24    C     0.22190   0.15688   0.48976   0.00000  Uiso   1.00
C25    C     0.23722   0.16743   0.44552   0.00000  Uiso   1.00
C26    C     0.20992   0.17991   0.42363   0.00000  Uiso   1.00
H27    H     0.26078   0.13251   0.07333   0.00000  Uiso   1.00
H28    H     0.22417   0.18985   0.39013   0.00000  Uiso   1.00
H29    H     0.00745   0.21182   0.46851   0.00000  Uiso   1.00
H30    H     0.04149   0.25178   0.49385   0.00000  Uiso   1.00
H31    H     0.32329   0.22989   0.02600   0.00000  Uiso   1.00
H32    H     0.31873   0.14203   0.29155   0.00000  Uiso   1.00
H33    H     0.20697   0.00389   0.21051   0.00000  Uiso   1.00
H34    H     0.12566   0.33122   0.28975   0.00000  Uiso   1.00
H35    H     0.27080   0.16677   0.42790   0.00000  Uiso   1.00
H36    H     0.28375   0.14249   0.49322   0.00000  Uiso   1.00
H37    H     0.13386   0.15624   0.08023   0.00000  Uiso   1.00
H38    H     0.07255   0.19825   0.42373   0.00000  Uiso   1.00
H39    H     0.09199   0.17114   0.04672   0.00000  Uiso   1.00
O40    O     0.16667   0.16667   0.25000   0.00000  Uiso   1.00
O41    O     0.15451   0.12637   0.15459   0.00000  Uiso   1.00
O42    O     0.12940   0.20391   0.34968   0.00000  Uiso   1.00
O43    O     0.20824   0.17759   0.14606   0.00000  Uiso   1.00
O44    O     0.17451   0.15880   0.34968   0.00000  Uiso   1.00
O45    O     0.03626   0.19046   0.01261   0.00000  Uiso   1.00
O46    O     0.17930   0.08019   0.28214   0.00000  Uiso   1.00
O47    O     0.14632   0.26085   0.27014   0.00000  Uiso   1.00
O48    O     0.07412   0.13291   0.23413   0.00000  Uiso   1.00
O49    O     0.26693   0.19272   0.21361   0.00000  Uiso   1.00
O50    O     0.07071   0.18878   0.28213   0.00000  Uiso   1.00
O51    O     0.25491   0.15226   0.27014   0.00000  Uiso   1.00
O52    O     0.13760   0.06944   0.23413   0.00000  Uiso   1.00
O53    O     0.20345   0.25620   0.21361   0.00000  Uiso   1.00
Zn54   Zn    0.19338   0.13994   0.28734   0.00000  Uiso   1.00
Zn55   Zn    0.13379   0.12458   0.21876   0.00000  Uiso   1.00
Zn56   Zn    0.21056   0.19775   0.20657   0.00000  Uiso   1.00
Zn57   Zn    0.12893   0.20439   0.28734   0.00000  Uiso   1.00
Br58   Br    0.36634   0.20558   0.18601   0.00000  Uiso   1.00
C59    C     0.38607   0.15959   0.26029   0.00000  Uiso   1.00
C60    C     0.49887   0.15235   0.05934   0.00000  Uiso   1.00
C61    C     0.57077   0.13878   0.05653   0.00000  Uiso   1.00
C62    C     0.61427   0.17383   0.23973   0.00000  Uiso   1.00
C63    C     0.47045   0.18821   0.42029   0.00000  Uiso   1.00
C64    C     0.66040   0.17628   0.23465   0.00000  Uiso   1.00
C65    C     0.34092   0.15796   0.26378   0.00000  Uiso   1.00
C66    C     0.51401   0.32259   0.23614   0.00000  Uiso   1.00
C67    C     0.48555   0.01176   0.26393   0.00000  Uiso   1.00
C68    C     0.48968   0.05590   0.26011   0.00000  Uiso   1.00
C69    C     0.51003   0.27798   0.24005   0.00000  Uiso   1.00
C70    C     0.41233   0.18860   0.48910   0.00000  Uiso   1.00
C71    C     0.51898   0.14848   0.12929   0.00000  Uiso   1.00
C72    C     0.48213   0.18484   0.37088   0.00000  Uiso   1.00
C73    C     0.58391   0.14502   0.01114   0.00000  Uiso   1.00
C74    C     0.52858   0.14322   0.08076   0.00000  Uiso   1.00
C75    C     0.42776   0.19322   0.44284   0.00000  Uiso   1.00
C76    C     0.35197   0.22252   0.49905   0.00000  Uiso   1.00
C77    C     0.43961   0.17665   0.01197   0.00000  Uiso   1.00
C78    C     0.48323   0.17228   0.49065   0.00000  Uiso   1.00
C79    C     0.49910   0.18022   0.44458   0.00000  Uiso   1.00
C80    C     0.51165   0.16009   0.01344   0.00000  Uiso   1.00
C81    C     0.55523   0.15688   0.48976   0.00000  Uiso   1.00
C82    C     0.57055   0.16743   0.44552   0.00000  Uiso   1.00
C83    C     0.54325   0.17991   0.42363   0.00000  Uiso   1.00
H84    H     0.59412   0.13251   0.07333   0.00000  Uiso   1.00
H85    H     0.55751   0.18985   0.39013   0.00000  Uiso   1.00
H86    H     0.34078   0.21182   0.46851   0.00000  Uiso   1.00
H87    H     0.37482   0.25178   0.49385   0.00000  Uiso   1.00
H88    H     0.65663   0.22989   0.02600   0.00000  Uiso   1.00
H89    H     0.65207   0.14203   0.29155   0.00000  Uiso   1.00
H90    H     0.54030   0.00389   0.21051   0.00000  Uiso   1.00
H91    H     0.45899   0.33122   0.28975   0.00000  Uiso   1.00
H92    H     0.60413   0.16677   0.42790   0.00000  Uiso   1.00
H93    H     0.61708   0.14249   0.49322   0.00000  Uiso   1.00
H94    H     0.46720   0.15624   0.08023   0.00000  Uiso   1.00
H95    H     0.40589   0.19825   0.42373   0.00000  Uiso   1.00
H96    H     0.42532   0.17114   0.04672   0.00000  Uiso   1.00
O97    O     0.50000   0.16667   0.25000   0.00000  Uiso   1.00
O98    O     0.48784   0.12637   0.15459   0.00000  Uiso   1.00
O99    O     0.46274   0.20391   0.34968   0.00000  Uiso   1.00
O100   O     0.54157   0.17759   0.14606   0.00000  Uiso   1.00
O101   O     0.50785   0.15880   0.34968   0.00000  Uiso   1.00
O102   O     0.36959   0.19046   0.01261   0.00000  Uiso   1.00
O103   O     0.51264   0.08019   0.28214   0.00000  Uiso   1.00
O104   O     0.47965   0.26085   0.27014   0.00000  Uiso   1.00
O105   O     0.40745   0.13291   0.23413   0.00000  Uiso   1.00
O106   O     0.60026   0.19272   0.21361   0.00000  Uiso   1.00
O107   O     0.40405   0.18878   0.28213   0.00000  Uiso   1.00
O108   O     0.58824   0.15226   0.27014   0.00000  Uiso   1.00
O109   O     0.47093   0.06944   0.23413   0.00000  Uiso   1.00
O110   O     0.53678   0.25620   0.21361   0.00000  Uiso   1.00
Zn111  Zn    0.52672   0.13994   0.28734   0.00000  Uiso   1.00
Zn112  Zn    0.46713   0.12458   0.21876   0.00000  Uiso   1.00
Zn113  Zn    0.54389   0.19775   0.20657   0.00000  Uiso   1.00
Zn114  Zn    0.46226   0.20439   0.28734   0.00000  Uiso   1.00
Br115  Br    0.69967   0.20558   0.18601   0.00000  Uiso   1.00
C116   C     0.71941   0.15959   0.26029   0.00000  Uiso   1.00
C117   C     0.83220   0.15235   0.05934   0.00000  Uiso   1.00
C118   C     0.90411   0.13878   0.05653   0.00000  Uiso   1.00
C119   C     0.94761   0.17383   0.23973   0.00000  Uiso   1.00
C120   C     0.80379   0.18821   0.42029   0.00000  Uiso   1.00
C121   C     0.99374   0.17628   0.23465   0.00000  Uiso   1.00
C122   C     0.67425   0.15796   0.26378   0.00000  Uiso   1.00
C123   C     0.84735   0.32259   0.23614   0.00000  Uiso   1.00
C124   C     0.81889   0.01176   0.26393   0.00000  Uiso   1.00
C125   C     0.82301   0.05590   0.26011   0.00000  Uiso   1.00
C126   C     0.84336   0.27798   0.24005   0.00000  Uiso   1.00
C127   C     0.74566   0.18860   0.48910   0.00000  Uiso   1.00
C128   C     0.85232   0.14848   0.12929   0.00000  Uiso   1.00
C129   C     0.81546   0.18484   0.37088   0.00000  Uiso   1.00
C130   C     0.91724   0.14502   0.01114   0.00000  Uiso   1.00
C131   C     0.86192   0.14322   0.08076   0.00000  Uiso   1.00
C132   C     0.76109   0.19322   0.44284   0.00000  Uiso   1.00
C133   C     0.68530   0.22252   0.49905   0.00000  Uiso   1.00
C134   C     0.77294   0.17665   0.01197   0.00000  Uiso   1.00
C135   C     0.81656   0.17228   0.49065   0.00000  Uiso   1.00
C136   C     0.83244   0.18022   0.44458   0.00000  Uiso   1.00
C137   C     0.84498   0.16009   0.01344   0.00000  Uiso   1.00
C138   C     0.88857   0.15688   0.48976   0.00000  Uiso   1.00
C139   C     0.90388   0.16743   0.44552   0.00000  Uiso   1.00
C140   C     0.87659   0.17991   0.42363   0.00000  Uiso   1.00
H141   H     0.92745   0.13251   0.07333   0.00000  Uiso   1.00
H142   H     0.89084   0.18985   0.39013   0.00000  Uiso   1.00
H143   H     0.67411   0.21182   0.46851   0.00000  Uiso   1.00
H144   H     0.70815   0.25178   0.49385   0.00000  Uiso   1.00
H145   H     0.98996   0.22989   0.02600   0.00000  Uiso   1.00
H146   H     0.98540   0.14203   0.29155   0.00000  Uiso   1.00
H147   H     0.87363   0.00389   0.21051   0.00000  Uiso   1.00
H148   H     0.79232   0.33122   0.28975   0.00000  Uiso   1.00
H149   H     0.93746   0.16677   0.42790   0.00000  Uiso   1.00
H150   H     0.95042   0.14249   0.49322   0.00000  Uiso   1.00
H151   H     0.80053   0.15624   0.08023   0.00000  Uiso   1.00
H152   H     0.73922   0.19825   0.42373   0.00000  Uiso   1.00
H153   H     0.75866   0.17114   0.04672   0.00000  Uiso   1.00
O154   O     0.83333   0.16667   0.25000   0.00000  Uiso   1.00
O155   O     0.82118   0.12637   0.15459   0.00000  Uiso   1.00
O156   O     0.79607   0.20391   0.34968   0.00000  Uiso   1.00
O157   O     0.87491   0.17759   0.14606   0.00000  Uiso   1.00
O158   O     0.84118   0.15880   0.34968   0.00000  Uiso   1.00
O159   O     0.70293   0.19046   0.01261   0.00000  Uiso   1.00
O160   O     0.84597   0.08019   0.28214   0.00000  Uiso   1.00
O161   O     0.81298   0.26085   0.27014   0.00000  Uiso   1.00
O162   O     0.74078   0.13291   0.23413   0.00000  Uiso   1.00
O163   O     0.93360   0.19272   0.21361   0.00000  Uiso   1.00
O164   O     0.73738   0.18878   0.28213   0.00000  Uiso   1.00
O165   O     0.92158   0.15226   0.27014   0.00000  Uiso   1.00
O166   O     0.80426   0.06944   0.23413   0.00000  Uiso   1.00
O167   O     0.87012   0.25620   0.21361   0.00000  Uiso   1.00
Zn168  Zn    0.86005   0.13994   0.28734   0.00000  Uiso   1.00
Zn169  Zn    0.80046   0.12458   0.21876   0.00000  Uiso   1.00
Zn170  Zn    0.87723   0.19775   0.20657   0.00000  Uiso   1.00
Zn171  Zn    0.79560   0.20439   0.28734   0.00000  Uiso   1.00
Br172  Br    0.03301   0.53891   0.18601   0.00000  Uiso   1.00
C173   C     0.05274   0.49292   0.26029   0.00000  Uiso   1.00
C174   C     0.16554   0.48568   0.05934   0.00000  Uiso   1.00
C175   C     0.23744   0.47211   0.05653   0.00000  Uiso   1.00
C176   C     0.28094   0.50717   0.23973   0.00000  Uiso   1.00
C177   C     0.13712   0.52155   0.42029   0.00000  Uiso   1.00
C178   C     0.32707   0.50962   0.23465   0.00000  Uiso   1.00
C179   C     0.00758   0.49129   0.26378   0.00000  Uiso   1.00
C180   C     0.18068   0.65592   0.23614   0.00000  Uiso   1.00
C181   C     0.15222   0.34510   0.26393   0.00000  Uiso   1.00
C182   C     0.15634   0.38923   0.26011   0.00000  Uiso   1.00
C183   C     0.17669   0.61132   0.24005   0.00000  Uiso   1.00
C184   C     0.07900   0.52193   0.48910   0.00000  Uiso   1.00
C185   C     0.18565   0.48182   0.12929   0.00000  Uiso   1.00
C186   C     0.14879   0.51817   0.37088   0.00000  Uiso   1.00
C187   C     0.25057   0.47835   0.01114   0.00000  Uiso   1.00
C188   C     0.19525   0.47655   0.08076   0.00000  Uiso   1.00
C189   C     0.09443   0.52655   0.44284   0.00000  Uiso   1.00
C190   C     0.01863   0.55585   0.49905   0.00000  Uiso   1.00
C191   C     0.10627   0.50998   0.01197   0.00000  Uiso   1.00
C192   C     0.14990   0.50561   0.49065   0.00000  Uiso   1.00
C193   C     0.16577   0.51356   0.44458   0.00000  Uiso   1.00
C194   C     0.17831   0.49342   0.01344   0.00000  Uiso   1.00
C195   C     0.22190   0.49022   0.48976   0.00000  Uiso   1.00
C196   C     0.23722   0.50077   0.44552   0.00000  Uiso   1.00
C197   C     0.20992   0.51325   0.42363   0.00000  Uiso   1.00
H198   H     0.26078   0.46585   0.07333   0.00000  Uiso   1.00
H199   H     0.22417   0.52319   0.39013   0.00000  Uiso   1.00
H200   H     0.00745   0.54515   0.46851   0.00000  Uiso   1.00
H201   H     0.04149   0.58511   0.49385   0.00000  Uiso   1.00
H202   H     0.32329   0.56322   0.02600   0.00000  Uiso   1.00
H203   H     0.31873   0.47536   0.29155   0.00000  Uiso   1.00
H204   H     0.20697   0.33722   0.21051   0.00000  Uiso   1.00
H205   H     0.12566   0.66456   0.28975   0.00000  Uiso   1.00
H206   H     0.27080   0.50010   0.42790   0.00000  Uiso   1.00
H207   H     0.28375   0.47582   0.49322   0.00000  Uiso   1.00
H208   H     0.13386   0.48957   0.08023   0.00000  Uiso   1.00
H209   H     0.07255   0.53158   0.42373   0.00000  Uiso   1.00
H210   H     0.09199   0.50447   0.04672   0.00000  Uiso   1.00
O211   O     0.16667   0.50000   0.25000   0.00000  Uiso   1.00
O212   O     0.15451   0.45970   0.15459   0.00000  Uiso   1.00
O213   O     0.12940   0.53724   0.34968   0.00000  Uiso   1.00
O214   O     0.20824   0.51092   0.14606   0.00000  Uiso   1.00
O215   O     0.17451   0.49213   0.34968   0.00000  Uiso   1.00
O216   O     0.03626   0.52379   0.01261   0.00000  Uiso   1.00
O217   O     0.17930   0.41352   0.28214   0.00000  Uiso   1.00
O218   O     0.14632   0.59418   0.27014   0.00000  Uiso   1.00
O219   O     0.07412   0.46625   0.23413   0.00000  Uiso   1.00
O220   O     0.26693   0.52605   0.21361   0.00000  Uiso   1.00
O221   O     0.07071   0.52211   0.28213   0.00000  Uiso   1.00
O222   O     0.25491   0.48559   0.27014   0.00000  Uiso   1.00
O223   O     0.13760   0.40277   0.23413   0.00000  Uiso   1.00
O224   O     0.20345   0.58953   0.21361   0.00000  Uiso   1.00
Zn225  Zn    0.19338   0.47327   0.28734   0.00000  Uiso   1.00
Zn226  Zn    0.13379   0.45791   0.21876   0.00000  Uiso   1.00
Zn227  Zn    0.21056   0.53109   0.20657   0.00000  Uiso   1.00
Zn228  Zn    0.12893   0.53773   0.28734   0.00000  Uiso   1.00
Br229  Br    0.36634   0.53891   0.18601   0.00000  Uiso   1.00
C230   C     0.38607   0.49292   0.26029   0.00000  Uiso   1.00
C231   C     0.49887   0.48568   0.05934   0.00000  Uiso   1.00
C232   C     0.57077   0.47211   0.05653   0.00000  Uiso   1.00
C233   C     0.61427   0.50717   0.23973   0.00000  Uiso   1.00
C234   C     0.47045   0.52155   0.42029   0.00000  Uiso   1.00
C235   C     0.66040   0.50962   0.23465   0.00000  Uiso   1.00
C236   C     0.34092   0.49129   0.26378   0.00000  Uiso   1.00
C237   C     0.51401   0.65592   0.23614   0.00000  Uiso   1.00
C238   C     0.48555   0.34510   0.26393   0.00000  Uiso   1.00
C239   C     0.48968   0.38923   0.26011   0.00000  Uiso   1.00
C240   C     0.51003   0.61132   0.24005   0.00000  Uiso   1.00
C241   C     0.41233   0.52193   0.48910   0.00000  Uiso   1.00
C242   C     0.51898   0.48182   0.12929   0.00000  Uiso   1.00
C243   C     0.48213   0.51817   0.37088   0.00000  Uiso   1.00
C244   C     0.58391   0.47835   0.01114   0.00000  Uiso   1.00
C245   C     0.52858   0.47655   0.08076   0.00000  Uiso   1.00
C246   C     0.42776   0.52655   0.44284   0.00000  Uiso   1.00
C247   C     0.35197   0.55585   0.49905   0.00000  Uiso   1.00
C248   C     0.43961   0.50998   0.01197   0.00000  Uiso   1.00
C249   C     0.48323   0.50561   0.49065   0.00000  Uiso   1.00
C250   C     0.49910   0.51356   0.44458   0.00000  Uiso   1.00
C251   C     0.51165   0.49342   0.01344   0.00000  Uiso   1.00
C252   C     0.55523   0.49022   0.48976   0.00000  Uiso   1.00
C253   C     0.57055   0.50077   0.44552   0.00000  Uiso   1.00
C254   C     0.54325   0.51325   0.42363   0.00000  Uiso   1.00
H255   H     0.59412   0.46585   0.07333   0.00000  Uiso   1.00
H256   H     0.55751   0.52319   0.39013   0.00000  Uiso   1.00
H257   H     0.34078   0.54515   0.46851   0.00000  Uiso   1.00
H258   H     0.37482   0.58511   0.49385   0.00000  Uiso   1.00
H259   H     0.65663   0.56322   0.02600   0.00000  Uiso   1.00
H260   H     0.65207   0.47536   0.29155   0.00000  Uiso   1.00
H261   H     0.54030   0.33722   0.21051   0.00000  Uiso   1.00
H262   H     0.45899   0.66456   0.28975   0.00000  Uiso   1.00
H263   H     0.60413   0.50010   0.42790   0.00000  Uiso   1.00
H264   H     0.61708   0.47582   0.49322   0.00000  Uiso   1.00
H265   H     0.46720   0.48957   0.08023   0.00000  Uiso   1.00
H266   H     0.40589   0.53158   0.42373   0.00000  Uiso   1.00
H267   H     0.42532   0.50447   0.04672   0.00000  Uiso   1.00
O268   O     0.50000   0.50000   0.25000   0.00000  Uiso   1.00
O269   O     0.48784   0.45970   0.15459   0.00000  Uiso   1.00
O270   O     0.46274   0.53724   0.34968   0.00000  Uiso   1.00
O271   O     0.54157   0.51092   0.14606   0.00000  Uiso   1.00
O272   O     0.50785   0.49213   0.34968   0.00000  Uiso   1.00
O273   O     0.36959   0.52379   0.01261   0.00000  Uiso   1.00
O274   O     0.51264   0.41352   0.28214   0.00000  Uiso   1.00
O275   O     0.47965   0.59418   0.27014   0.00000  Uiso   1.00
O276   O     0.40745   0.46625   0.23413   0.00000  Uiso   1.00
O277   O     0.60026   0.52605   0.21361   0.00000  Uiso   1.00
O278   O     0.40405   0.52211   0.28213   0.00000  Uiso   1.00
O279   O     0.58824   0.48559   0.27014   0.00000  Uiso   1.00
O280   O     0.47093   0.40277   0.23413   0.00000  Uiso   1.00
O281   O     0.53678   0.58953   0.21361   0.00000  Uiso   1.00
Zn282  Zn    0.52672   0.47327   0.28734   0.00000  Uiso   1.00
Zn283  Zn    0.46713   0.45791   0.21876   0.00000  Uiso   1.00
Zn284  Zn    0.54389   0.53109   0.20657   0.00000  Uiso   1.00
Zn285  Zn    0.46226   0.53773   0.28734   0.00000  Uiso   1.00
Br286  Br    0.69967   0.53891   0.18601   0.00000  Uiso   1.00
C287   C     0.71941   0.49292   0.26029   0.00000  Uiso   1.00
C288   C     0.83220   0.48568   0.05934   0.00000  Uiso   1.00
C289   C     0.90411   0.47211   0.05653   0.00000  Uiso   1.00
C290   C     0.94761   0.50717   0.23973   0.00000  Uiso   1.00
C291   C     0.80379   0.52155   0.42029   0.00000  Uiso   1.00
C292   C     0.99374   0.50962   0.23465   0.00000  Uiso   1.00
C293   C     0.67425   0.49129   0.26378   0.00000  Uiso   1.00
C294   C     0.84735   0.65592   0.23614   0.00000  Uiso   1.00
C295   C     0.81889   0.34510   0.26393   0.00000  Uiso   1.00
C296   C     0.82301   0.38923   0.26011   0.00000  Uiso   1.00
C297   C     0.84336   0.61132   0.24005   0.00000  Uiso   1.00
C298   C     0.74566   0.52193   0.48910   0.00000  Uiso   1.00
C299   C     0.85232   0.48182   0.12929   0.00000  Uiso   1.00
C300   C     0.81546   0.51817   0.37088   0.00000  Uiso   1.00
C301   C     0.91724   0.47835   0.01114   0.00000  Uiso   1.00
C302   C     0.86192   0.47655   0.08076   0.00000  Uiso   1.00
C303   C     0.76109   0.52655   0.44284   0.00000  Uiso   1.00
C304   C     0.68530   0.55585   0.49905   0.00000  Uiso   1.00
C305   C     0.77294   0.50998   0.01197   0.00000  Uiso   1.00
C306   C     0.81656   0.50561   0.49065   0.00000  Uiso   1.00
C307   C     0.83244   0.51356   0.44458   0.00000  Uiso   1.00
C308   C     0.84498   0.49342   0.01344   0.00000  Uiso   1.00
C309   C     0.88857   0.49022   0.48976   0.00000  Uiso   1.00
C310   C     0.90388   0.50077   0.44552   0.00000  Uiso   1.00
C311   C     0.87659   0.51325   0.42363   0.00000  Uiso   1.00
H312   H     0.92745   0.46585   0.07333   0.00000  Uiso   1.00
H313   H     0.89084   0.52319   0.39013   0.00000  Uiso   1.00
H314   H     0.67411   0.54515   0.46851   0.00000  Uiso   1.00
H315   H     0.70815   0.58511   0.49385   0.00000  Uiso   1.00
H316   H     0.98996   0.56322   0.02600   0.00000  Uiso   1.00
H317   H     0.98540   0.47536   0.29155   0.00000  Uiso   1.00
H318   H     0.87363   0.33722   0.21051   0.00000  Uiso   1.00
H319   H     0.79232   0.66456   0.28975   0.00000  Uiso   1.00
H320   H     0.93746   0.50010   0.42790   0.00000  Uiso   1.00
H321   H     0.95042   0.47582   0.49322   0.00000  Uiso   1.00
H322   H     0.80053   0.48957   0.08023   0.00000  Uiso   1.00
H323   H     0.73922   0.53158   0.42373   0.00000  Uiso   1.00
H324   H     0.75866   0.50447   0.04672   0.00000  Uiso   1.00
O325   O     0.83333   0.50000   0.25000   0.00000  Uiso   1.00
O326   O     0.82118   0.45970   0.15459   0.00000  Uiso   1.00
O327   O     0.79607   0.53724   0.34968   0.00000  Uiso   1.00
O328   O     0.87491   0.51092   0.14606   0.00000  Uiso   1.00
O329   O     0.84118   0.49213   0.34968   0.00000  Uiso   1.00
O330   O     0.70293   0.52379   0.01261   0.00000  Uiso   1.00
O331   O     0.84597   0.41352   0.28214   0.00000  Uiso   1.00
O332   O     0.81298   0.59418   0.27014   0.00000  Uiso   1.00
O333   O     0.74078   0.46625   0.23413   0.00000  Uiso   1.00
O334   O     0.93360   0.52605   0.21361   0.00000  Uiso   1.00
O335   O     0.73738   0.52211   0.28213   0.00000  Uiso   1.00
O336   O     0.92158   0.48559   0.27014   0.00000  Uiso   1.00
O337   O     0.80426   0.40277   0.23413   0.00000  Uiso   1.00
O338   O     0.87012   0.58953   0.21361   0.00000  Uiso   1.00
Zn339  Zn    0.86005   0.47327   0.28734   0.00000  Uiso   1.00
Zn340  Zn    0.80046   0.45791   0.21876   0.00000  Uiso   1.00
Zn341  Zn    0.87723   0.53109   0.20657   0.00000  Uiso   1.00
Zn342  Zn    0.79560   0.53773   0.28734   0.00000  Uiso   1.00
Br343  Br    0.03301   0.87225   0.18601   0.00000  Uiso   1.00
C344   C     0.05274   0.82626   0.26029   0.00000  Uiso   1.00
C345   C     0.16554   0.81901   0.05934   0.00000  Uiso   1.00
C346   C     0.23744   0.80544   0.05653   0.00000  Uiso   1.00
C347   C     0.28094   0.84050   0.23973   0.00000  Uiso   1.00
C348   C     0.13712   0.85488   0.42029   0.00000  Uiso   1.00
C349   C     0.32707   0.84295   0.23465   0.00000  Uiso   1.00
C350   C     0.00758   0.82462   0.26378   0.00000  Uiso   1.00
C351   C     0.18068   0.98926   0.23614   0.00000  Uiso   1.00
C352   C     0.15222   0.67843   0.26393   0.00000  Uiso   1.00
C353   C     0.15634   0.72256   0.26011   0.00000  Uiso   1.00
C354   C     0.17669   0.94465   0.24005   0.00000  Uiso   1.00
C355   C     0.07900   0.85526   0.48910   0.00000  Uiso   1.00
C356   C     0.18565   0.81515   0.12929   0.00000  Uiso   1.00
C357   C     0.14879   0.85151   0.37088   0.00000  Uiso   1.00
C358   C     0.25057   0.81168   0.01114   0.00000  Uiso   1.00
C359   C     0.19525   0.80988   0.08076   0.00000  Uiso   1.00
C360   C     0.09443   0.85989   0.44284   0.00000  Uiso   1.00
C361   C     0.01863   0.88918   0.49905   0.00000  Uiso   1.00
C362   C     0.10627   0.84331   0.01197   0.00000  Uiso   1.00
C363   C     0.14990   0.83894   0.49065   0.00000  Uiso   1.00
C364   C     0.16577   0.84689   0.44458   0.00000  Uiso   1.00
C365   C     0.17831   0.82676   0.01344   0.00000  Uiso   1.00
C366   C     0.22190   0.82355   0.48976   0.00000  Uiso   1.00
C367   C     0.23722   0.83410   0.44552   0.00000  Uiso   1.00
C368   C     0.20992   0.84658   0.42363   0.00000  Uiso   1.00
H369   H     0.26078   0.79918   0.07333   0.00000  Uiso   1.00
H370   H     0.22417   0.85652   0.39013   0.00000  Uiso   1.00
H371   H     0.00745   0.87849   0.46851   0.00000  Uiso   1.00
H372   H     0.04149   0.91845   0.49385   0.00000  Uiso   1.00
H373   H     0.32329   0.89656   0.02600   0.00000  Uiso   1.00
H374   H     0.31873   0.80870   0.29155   0.00000  Uiso   1.00
H375   H     0.20697   0.67056   0.21051   0.00000  Uiso   1.00
H376   H     0.12566   0.99789   0.28975   0.00000  Uiso   1.00
H377   H     0.27080   0.83343   0.42790   0.00000  Uiso   1.00
H378   H     0.28375   0.80915   0.49322   0.00000  Uiso   1.00
H379   H     0.13386   0.82291   0.08023   0.00000  Uiso   1.00
H380   H     0.07255   0.86491   0.42373   0.00000  Uiso   1.00
H381   H     0.09199   0.83781   0.04672   0.00000  Uiso   1.00
O382   O     0.16667   0.83333   0.25000   0.00000  Uiso   1.00
O383   O     0.15451   0.79304   0.15459   0.00000  Uiso   1.00
O384   O     0.12940   0.87058   0.34968   0.00000  Uiso   1.00
O385   O     0.20824   0.84425   0.14606   0.00000  Uiso   1.00
O386   O     0.17451   0.82546   0.34968   0.00000  Uiso   1.00
O387   O     0.03626   0.85712   0.01261   0.00000  Uiso   1.00
O388   O     0.17930   0.74686   0.28214   0.00000  Uiso   1.00
O389   O     0.14632   0.92751   0.27014   0.00000  Uiso   1.00
O390   O     0.07412   0.79958   0.23413   0.00000  Uiso   1.00
O391   O     0.26693   0.85939   0.21361   0.00000  Uiso   1.00
O392   O     0.07071   0.85544   0.28213   0.00000  Uiso   1.00
O393   O     0.25491   0.81892   0.27014   0.00000  Uiso   1.00
O394   O     0.13760   0.73610   0.23413   0.00000  Uiso   1.00
O395   O     0.20345   0.92286   0.21361   0.00000  Uiso   1.00
Zn396  Zn    0.19338   0.80661   0.28734   0.00000  Uiso   1.00
Zn397  Zn    0.13379   0.79124   0.21876   0.00000  Uiso   1.00
Zn398  Zn    0.21056   0.86442   0.20657   0.00000  Uiso   1.00
Zn399  Zn    0.12893   0.87106   0.28734   0.00000  Uiso   1.00
Br400  Br    0.36634   0.87225   0.18601   0.00000  Uiso   1.00
C401   C     0.38607   0.82626   0.26029   0.00000  Uiso   1.00
C402   C     0.49887   0.81901   0.05934   0.00000  Uiso   1.00
C403   C     0.57077   0.80544   0.05653   0.00000  Uiso   1.00
C404   C     0.61427   0.84050   0.23973   0.00000  Uiso   1.00
C405   C     0.47045   0.85488   0.42029   0.00000  Uiso   1.00
C406   C     0.66040   0.84295   0.23465   0.00000  Uiso   1.00
C407   C     0.34092   0.82462   0.26378   0.00000  Uiso   1.00
C408   C     0.51401   0.98926   0.23614   0.00000  Uiso   1.00
C409   C     0.48555   0.67843   0.26393   0.00000  Uiso   1.00
C410   C     0.48968   0.72256   0.26011   0.00000  Uiso   1.00
C411   C     0.51003   0.94465   0.24005   0.00000  Uiso   1.00
C412   C     0.41233   0.85526   0.48910   0.00000  Uiso   1.00
C413   C     0.51898   0.81515   0.12929   0.00000  Uiso   1.00
C414   C     0.48213   0.85151   0.37088   0.00000  Uiso   1.00
C415   C     0.58391   0.81168   0.01114   0.00000  Uiso   1.00
C416   C     0.52858   0.80988   0.08076   0.00000  Uiso   1.00
C417   C     0.42776   0.85989   0.44284   0.00000  Uiso   1.00
C418   C     0.35197   0.88918   0.49905   0.00000  Uiso   1.00
C419   C     0.43961   0.84331   0.01197   0.00000  Uiso   1.00
C420   C     0.48323   0.83894   0.49065   0.00000  Uiso   1.00
C421   C     0.49910   0.84689   0.44458   0.00000  Uiso   1.00
C422   C     0.51165   0.82676   0.01344   0.00000  Uiso   1.00
C423   C     0.55523   0.82355   0.48976   0.00000  Uiso   1.00
C424   C     0.57055   0.83410   0.44552   0.00000  Uiso   1.00
C425   C     0.54325   0.84658   0.42363   0.00000  Uiso   1.00
H426   H     0.59412   0.79918   0.07333   0.00000  Uiso   1.00
H427   H     0.55751   0.85652   0.39013   0.00000  Uiso   1.00
H428   H     0.34078   0.87849   0.46851   0.00000  Uiso   1.00
H429   H     0.37482   0.91845   0.49385   0.00000  Uiso   1.00
H430   H     0.65663   0.89656   0.02600   0.00000  Uiso   1.00
H431   H     0.65207   0.80870   0.29155   0.00000  Uiso   1.00
H432   H     0.54030   0.67056   0.21051   0.00000  Uiso   1.00
H433   H     0.45899   0.99789   0.28975   0.00000  Uiso   1.00
H434   H     0.60413   0.83343   0.42790   0.00000  Uiso   1.00
H435   H     0.61708   0.80915   0.49322   0.00000  Uiso   1.00
H436   H     0.46720   0.82291   0.08023   0.00000  Uiso   1.00
H437   H     0.40589   0.86491   0.42373   0.00000  Uiso   1.00
H438   H     0.42532   0.83781   0.04672   0.00000  Uiso   1.00
O439   O     0.50000   0.83333   0.25000   0.00000  Uiso   1.00
O440   O     0.48784   0.79304   0.15459   0.00000  Uiso   1.00
O441   O     0.46274   0.87058   0.34968   0.00000  Uiso   1.00
O442   O     0.54157   0.84425   0.14606   0.00000  Uiso   1.00
O443   O     0.50785   0.82546   0.34968   0.00000  Uiso   1.00
O444   O     0.36959   0.85712   0.01261   0.00000  Uiso   1.00
O445   O     0.51264   0.74686   0.28214   0.00000  Uiso   1.00
O446   O     0.47965   0.92751   0.27014   0.00000  Uiso   1.00
O447   O     0.40745   0.79958   0.23413   0.00000  Uiso   1.00
O448   O     0.60026   0.85939   0.21361   0.00000  Uiso   1.00
O449   O     0.40405   0.85544   0.28213   0.00000  Uiso   1.00
O450   O     0.58824   0.81892   0.27014   0.00000  Uiso   1.00
O451   O     0.47093   0.73610   0.23413   0.00000  Uiso   1.00
O452   O     0.53678   0.92286   0.21361   0.00000  Uiso   1.00
Zn453  Zn    0.52672   0.80661   0.28734   0.00000  Uiso   1.00
Zn454  Zn    0.46713   0.79124   0.21876   0.00000  Uiso   1.00
Zn455  Zn    0.54389   0.86442   0.20657   0.00000  Uiso   1.00
Zn456  Zn    0.46226   0.87106   0.28734   0.00000  Uiso   1.00
Br457  Br    0.69967   0.87225   0.18601   0.00000  Uiso   1.00
C458   C     0.71941   0.82626   0.26029   0.00000  Uiso   1.00
C459   C     0.83220   0.81901   0.05934   0.00000  Uiso   1.00
C460   C     0.90411   0.80544   0.05653   0.00000  Uiso   1.00
C461   C     0.94761   0.84050   0.23973   0.00000  Uiso   1.00
C462   C     0.80379   0.85488   0.42029   0.00000  Uiso   1.00
C463   C     0.99374   0.84295   0.23465   0.00000  Uiso   1.00
C464   C     0.67425   0.82462   0.26378   0.00000  Uiso   1.00
C465   C     0.84735   0.98926   0.23614   0.00000  Uiso   1.00
C466   C     0.81889   0.67843   0.26393   0.00000  Uiso   1.00
C467   C     0.82301   0.72256   0.26011   0.00000  Uiso   1.00
C468   C     0.84336   0.94465   0.24005   0.00000  Uiso   1.00
C469   C     0.74566   0.85526   0.48910   0.00000  Uiso   1.00
C470   C     0.85232   0.81515   0.12929   0.00000  Uiso   1.00
C471   C     0.81546   0.85151   0.37088   0.00000  Uiso   1.00
C472   C     0.91724   0.81168   0.01114   0.00000  Uiso   1.00
C473   C     0.86192   0.80988   0.08076   0.00000  Uiso   1.00
C474   C     0.76109   0.85989   0.44284   0.00000  Uiso   1.00
C475   C     0.68530   0.88918   0.49905   0.00000  Uiso   1.00
C476   C     0.77294   0.84331   0.01197   0.00000  Uiso   1.00
C477   C     0.81656   0.83894   0.49065   0.00000  Uiso   1.00
C478   C     0.83244   0.84689   0.44458   0.00000  Uiso   1.00
C479   C     0.84498   0.82676   0.01344   0.00000  Uiso   1.00
C480   C     0.88857   0.82355   0.48976   0.00000  Uiso   1.00
C481   C     0.90388   0.83410   0.44552   0.00000  Uiso   1.00
C482   C     0.87659   0.84658   0.42363   0.00000  Uiso   1.00
H483   H     0.92745   0.79918   0.07333   0.00000  Uiso   1.00
H484   H     0.89084   0.85652   0.39013   0.00000  Uiso   1.00
H485   H     0.67411   0.87849   0.46851   0.00000  Uiso   1.00
H486   H     0.70815   0.91845   0.49385   0.00000  Uiso   1.00
H487   H     0.98996   0.89656   0.02600   0.00000  Uiso   1.00
H488   H     0.98540   0.80870   0.29155   0.00000  Uiso   1.00
H489   H     0.87363   0.67056   0.21051   0.00000  Uiso   1.00
H490   H     0.79232   0.99789   0.28975   0.00000  Uiso   1.00
H491   H     0.93746   0.83343   0.42790   0.00000  Uiso   1.00
H492   H     0.95042   0.80915   0.49322   0.00000  Uiso   1.00
H493   H     0.80053   0.82291   0.08023   0.00000  Uiso   1.00
H494   H     0.73922   0.86491   0.42373   0.00000  Uiso   1.00
H495   H     0.75866   0.83781   0.04672   0.00000  Uiso   1.00
O496   O     0.83333   0.83333   0.25000   0.00000  Uiso   1.00
O497   O     0.82118   0.79304   0.15459   0.00000  Uiso   1.00
O498   O     0.79607   0.87058   0.34968   0.00000  Uiso   1.00
O499   O     0.87491   0.84425   0.14606   0.00000  Uiso   1.00
O500   O     0.84118   0.82546   0.34968   0.00000  Uiso   1.00
O501   O     0.70293   0.85712   0.01261   0.00000  Uiso   1.00
O502   O     0.84597   0.74686   0.28214   0.00000  Uiso   1.00
O503   O     0.81298   0.92751   0.27014   0.00000  Uiso   1.00
O504   O     0.74078   0.79958   0.23413   0.00000  Uiso   1.00
O505   O     0.93360   0.85939   0.21361   0.00000  Uiso   1.00
O506   O     0.73738   0.85544   0.28213   0.00000  Uiso   1.00
O507   O     0.92158   0.81892   0.27014   0.00000  Uiso   1.00
O508   O     0.80426   0.73610   0.23413   0.00000  Uiso   1.00
O509   O     0.87012   0.92286   0.21361   0.00000  Uiso   1.00
Zn510  Zn    0.86005   0.80661   0.28734   0.00000  Uiso   1.00
Zn511  Zn    0.80046   0.79124   0.21876   0.00000  Uiso   1.00
Zn512  Zn    0.87723   0.86442   0.20657   0.00000  Uiso   1.00
Zn513  Zn    0.79560   0.87106   0.28734   0.00000  Uiso   1.00
Br514  Br    0.03301   0.20558   0.68601   0.00000  Uiso   1.00
C515   C     0.05274   0.15959   0.76029   0.00000  Uiso   1.00
C516   C     0.16554   0.15235   0.55934   0.00000  Uiso   1.00
C517   C     0.23744   0.13878   0.55653   0.00000  Uiso   1.00
C518   C     0.28094   0.17383   0.73973   0.00000  Uiso   1.00
C519   C     0.13712   0.18821   0.92029   0.00000  Uiso   1.00
C520   C     0.32707   0.17628   0.73465   0.00000  Uiso   1.00
C521   C     0.00758   0.15796   0.76378   0.00000  Uiso   1.00
C522   C     0.18068   0.32259   0.73614   0.00000  Uiso   1.00
C523   C     0.15222   0.01176   0.76393   0.00000  Uiso   1.00
C524   C     0.15634   0.05590   0.76011   0.00000  Uiso   1.00
C525   C     0.17669   0.27798   0.74005   0.00000  Uiso   1.00
C526   C     0.07900   0.18860   0.98910   0.00000  Uiso   1.00
C527   C     0.18565   0.14848   0.62929   0.00000  Uiso   1.00
C528   C     0.14879   0.18484   0.87088   0.00000  Uiso   1.00
C529   C     0.25057   0.14502   0.51114   0.00000  Uiso   1.00
C530   C     0.19525   0.14322   0.58076   0.00000  Uiso   1.00
C531   C     0.09443   0.19322   0.94284   0.00000  Uiso   1.00
C532   C     0.01863   0.22252   0.99905   0.00000  Uiso   1.00
C533   C     0.10627   0.17665   0.51197   0.00000  Uiso   1.00
C534   C     0.14990   0.17228   0.99065   0.00000  Uiso   1.00
C535   C     0.16577   0.18022   0.94458   0.00000  Uiso   1.00
C536   C     0.17831   0.16009   0.51344   0.00000  Uiso   1.00
C537   C     0.22190   0.15688   0.98976   0.00000  Uiso   1.00
C538   C     0.23722   0.16743   0.94552   0.00000  Uiso   1.00
C539   C     0.20992   0.17991   0.92363   0.00000  Uiso   1.00
H540   H     0.26078   0.13251   0.57333   0.00000  Uiso   1.00
H541   H     0.22417   0.18985   0.89013   0.00000  Uiso   1.00
H542   H     0.00745   0.21182   0.96851   0.00000  Uiso   1.00
H543   H     0.04149   0.25178   0.99385   0.00000  Uiso   1.00
H544   H     0.32329   0.22989   0.52600   0.00000  Uiso   1.00
H545   H     0.31873   0.14203   0.79155   0.00000  Uiso   1.00
H546   H     0.20697   0.00389   0.71051   0.00000  Uiso   1.00
H547   H     0.12566   0.33122   0.78975   0.00000  Uiso   1.00
H548   H     0.27080   0.16677   0.92790   0.00000  Uiso   1.00
H549   H     0.28375   0.14249   0.99322   0.00000  Uiso   1.00
H550   H     0.13386   0.15624   0.58023   0.00000  Uiso   1.00
H551   H     0.07255   0.19825   0.92373   0.00000  Uiso   1.00
H552   H     0.09199   0.17114   0.54672   0.00000  Uiso   1.00
O553   O     0.16667   0.16667   0.75000   0.00000  Uiso   1.00
O554   O     0.15451   0.12637   0.65459   0.00000  Uiso   1.00
O555   O     0.12940   0.20391   0.84968   0.00000  Uiso   1.00
O556   O     0.20824   0.17759   0.64606   0.00000  Uiso   1.00
O557   O     0.17451   0.15880   0.84968   0.00000  Uiso   1.00
O558   O     0.03626   0.19046   0.51261   0.00000  Uiso   1.00
O559   O     0.17930   0.08019   0.78214   0.00000  Uiso   1.00
O560   O     0.14632   0.26085   0.77014   0.00000  Uiso   1.00
O561   O     0.07412   0.13291   0.73413   0.00000  Uiso   1.00
O562   O     0.26693   0.19272   0.71361   0.00000  Uiso   1.00
O563   O     0.07071   0.18878   0.78213   0.00000  Uiso   1.00
O564   O     0.25491   0.15226   0.77014   0.00000  Uiso   1.00
O565   O     0.13760   0.06944   0.73413   0.00000  Uiso   1.00
O566   O     0.20345   0.25620   0.71361   0.00000  Uiso   1.00
Zn567  Zn    0.19338   0.13994   0.78734   0.00000  Uiso   1.00
Zn568  Zn    0.13379   0.12458   0.71876   0.00000  Uiso   1.00
Zn569  Zn    0.21056   0.19775   0.70657   0.00000  Uiso   1.00
Zn570  Zn    0.12893   0.20439   0.78734   0.00000  Uiso   1.00
Br571  Br    0.36634   0.20558   0.68601   0.00000  Uiso   1.00
C572   C     0.38607   0.15959   0.76029   0.00000  Uiso   1.00
C573   C     0.49887   0.15235   0.55934   0.00000  Uiso   1.00
C574   C     0.57077   0.13878   0.55653   0.00000  Uiso   1.00
C575   C     0.61427   0.17383   0.73973   0.00000  Uiso   1.00
C576   C     0.47045   0.18821   0.92029   0.00000  Uiso   1.00
C577   C     0.66040   0.17628   0.73465   0.00000  Uiso   1.00
C578   C     0.34092   0.15796   0.76378   0.00000  Uiso   1.00
C579   C     0.51401   0.32259   0.73614   0.00000  Uiso   1.00
C580   C     0.48555   0.01176   0.76393   0.00000  Uiso   1.00
C581   C     0.48968   0.05590   0.76011   0.00000  Uiso   1.00
C582   C     0.51003   0.27798   0.74005   0.00000  Uiso   1.00
C583   C     0.41233   0.18860   0.98910   0.00000  Uiso   1.00
C584   C     0.51898   0.14848   0.62929   0.00000  Uiso   1.00
C585   C     0.48213   0.18484   0.87088   0.00000  Uiso   1.00
C586   C     0.58391   0.14502   0.51114   0.00000  Uiso   1.00
C587   C     0.52858   0.14322   0.58076   0.00000  Uiso   1.00
C588   C     0.42776   0.19322   0.94284   0.00000  Uiso   1.00
C589   C     0.35197   0.22252   0.99905   0.00000  Uiso   1.00
C590   C     0.43961   0.17665   0.51197   0.00000  Uiso   1.00
C591   C     0.48323   0.17228   0.99065   0.00000  Uiso   1.00
C592   C     0.49910   0.18022   0.94458   0.00000  Uiso   1.00
C593   C     0.51165   0.16009   0.51344   0.00000  Uiso   1.00
C594   C     0.55523   0.15688   0.98976   0.00000  Uiso   1.00
C595   C     0.57055   0.16743   0.94552   0.00000  Uiso   1.00
C596   C     0.54325   0.17991   0.92363   0.00000  Uiso   1.00
H597   H     0.59412   0.13251   0.57333   0.00000  Uiso   1.00
H598   H     0.55751   0.18985   0.89013   0.00000  Uiso   1.00
H599   H     0.34078   0.21182   0.96851   0.00000  Uiso   1.00
H600   H     0.37482   0.25178   0.99385   0.00000  Uiso   1.00
H601   H     0.65663   0.22989   0.52600   0.00000  Uiso   1.00
H602   H     0.65207   0.14203   0.79155   0.00000  Uiso   1.00
H603   H     0.54030   0.00389   0.71051   0.00000  Uiso   1.00
H604   H     0.45899   0.33122   0.78975   0.00000  Uiso   1.00
H605   H     0.60413   0.16677   0.92790   0.00000  Uiso   1.00
H606   H     0.61708   0.14249   0.99322   0.00000  Uiso   1.00
H607   H     0.46720   0.15624   0.58023   0.00000  Uiso   1.00
H608   H     0.40589   0.19825   0.92373   0.00000  Uiso   1.00
H609   H     0.42532   0.17114   0.54672   0.00000  Uiso   1.00
O610   O     0.50000   0.16667   0.75000   0.00000  Uiso   1.00
O611   O     0.48784   0.12637   0.65459   0.00000  Uiso   1.00
O612   O     0.46274   0.20391   0.84968   0.00000  Uiso   1.00
O613   O     0.54157   0.17759   0.64606   0.00000  Uiso   1.00
O614   O     0.50785   0.15880   0.84968   0.00000  Uiso   1.00
O615   O     0.36959   0.19046   0.51261   0.00000  Uiso   1.00
O616   O     0.51264   0.08019   0.78214   0.00000  Uiso   1.00
O617   O     0.47965   0.26085   0.77014   0.00000  Uiso   1.00
O618   O     0.40745   0.13291   0.73413   0.00000  Uiso   1.00
O619   O     0.60026   0.19272   0.71361   0.00000  Uiso   1.00
O620   O     0.40405   0.18878   0.78213   0.00000  Uiso   1.00
O621   O     0.58824   0.15226   0.77014   0.00000  Uiso   1.00
O622   O     0.47093   0.06944   0.73413   0.00000  Uiso   1.00
O623   O     0.53678   0.25620   0.71361   0.00000  Uiso   1.00
Zn624  Zn    0.52672   0.13994   0.78734   0.00000  Uiso   1.00
Zn625  Zn    0.46713   0.12458   0.71876   0.00000  Uiso   1.00
Zn626  Zn    0.54389   0.19775   0.70657   0.00000  Uiso   1.00
Zn627  Zn    0.46226   0.20439   0.78734   0.00000  Uiso   1.00
Br628  Br    0.69967   0.20558   0.68601   0.00000  Uiso   1.00
C629   C     0.71941   0.15959   0.76029   0.00000  Uiso   1.00
C630   C     0.83220   0.15235   0.55934   0.00000  Uiso   1.00
C631   C     0.90411   0.13878   0.55653   0.00000  Uiso   1.00
C632   C     0.94761   0.17383   0.73973   0.00000  Uiso   1.00
C633   C     0.80379   0.18821   0.92029   0.00000  Uiso   1.00
C634   C     0.99374   0.17628   0.73465   0.00000  Uiso   1.00
C635   C     0.67425   0.15796   0.76378   0.00000  Uiso   1.00
C636   C     0.84735   0.32259   0.73614   0.00000  Uiso   1.00
C637   C     0.81889   0.01176   0.76393   0.00000  Uiso   1.00
C638   C     0.82301   0.05590   0.76011   0.00000  Uiso   1.00
C639   C     0.84336   0.27798   0.74005   0.00000  Uiso   1.00
C640   C     0.74566   0.18860   0.98910   0.00000  Uiso   1.00
C641   C     0.85232   0.14848   0.62929   0.00000  Uiso   1.00
C642   C     0.81546   0.18484   0.87088   0.00000  Uiso   1.00
C643   C     0.91724   0.14502   0.51114   0.00000  Uiso   1.00
C644   C     0.86192   0.14322   0.58076   0.00000  Uiso   1.00
C645   C     0.76109   0.19322   0.94284   0.00000  Uiso   1.00
C646   C     0.68530   0.22252   0.99905   0.00000  Uiso   1.00
C647   C     0.77294   0.17665   0.51197   0.00000  Uiso   1.00
C648   C     0.81656   0.17228   0.99065   0.00000  Uiso   1.00
C649   C     0.83244   0.18022   0.94458   0.00000  Uiso   1.00
C650   C     0.84498   0.16009   0.51344   0.00000  Uiso   1.00
C651   C     0.88857   0.15688   0.98976   0.00000  Uiso   1.00
C652   C     0.90388   0.16743   0.94552   0.00000  Uiso   1.00
C653   C     0.87659   0.17991   0.92363   0.00000  Uiso   1.00
H654   H     0.92745   0.13251   0.57333   0.00000  Uiso   1.00
H655   H     0.89084   0.18985   0.89013   0.00000  Uiso   1.00
H656   H     0.67411   0.21182   0.96851   0.00000  Uiso   1.00
H657   H     0.70815   0.25178   0.99385   0.00000  Uiso   1.00
H658   H     0.98996   0.22989   0.52600   0.00000  Uiso   1.00
H659   H     0.98540   0.14203   0.79155   0.00000  Uiso   1.00
H660   H     0.87363   0.00389   0.71051   0.00000  Uiso   1.00
H661   H     0.79232   0.33122   0.78975   0.00000  Uiso   1.00
H662   H     0.93746   0.16677   0.92790   0.00000  Uiso   1.00
H663   H     0.95042   0.14249   0.99322   0.00000  Uiso   1.00
H664   H     0.80053   0.15624   0.58023   0.00000  Uiso   1.00
H665   H     0.73922   0.19825   0.92373   0.00000  Uiso   1.00
H666   H     0.75866   0.17114   0.54672   0.00000  Uiso   1.00
O667   O     0.83333   0.16667   0.75000   0.00000  Uiso   1.00
O668   O     0.82118   0.12637   0.65459   0.00000  Uiso   1.00
O669   O     0.79607   0.20391   0.84968   0.00000  Uiso   1.00
O670   O     0.87491   0.17759   0.64606   0.00000  Uiso   1.00
O671   O     0.84118   0.15880   0.84968   0.00000  Uiso   1.00
O672   O     0.70293   0.19046   0.51261   0.00000  Uiso   1.00
O673   O     0.84597   0.08019   0.78214   0.00000  Uiso   1.00
O674   O     0.81298   0.26085   0.77014   0.00000  Uiso   1.00
O675   O     0.74078   0.13291   0.73413   0.00000  Uiso   1.00
O676   O     0.93360   0.19272   0.71361   0.00000  Uiso   1.00
O677   O     0.73738   0.18878   0.78213   0.00000  Uiso   1.00
O678   O     0.92158   0.15226   0.77014   0.00000  Uiso   1.00
O679   O     0.80426   0.06944   0.73413   0.00000  Uiso   1.00
O680   O     0.87012   0.25620   0.71361   0.00000  Uiso   1.00
Zn681  Zn    0.86005   0.13994   0.78734   0.00000  Uiso   1.00
Zn682  Zn    0.80046   0.12458   0.71876   0.00000  Uiso   1.00
Zn683  Zn    0.87723   0.19775   0.70657   0.00000  Uiso   1.00
Zn684  Zn    0.79560   0.20439   0.78734   0.00000  Uiso   1.00
Br685  Br    0.03301   0.53891   0.68601   0.00000  Uiso   1.00
C686   C     0.05274   0.49292   0.76029   0.00000  Uiso   1.00
C687   C     0.16554   0.48568   0.55934   0.00000  Uiso   1.00
C688   C     0.23744   0.47211   0.55653   0.00000  Uiso   1.00
C689   C     0.28094   0.50717   0.73973   0.00000  Uiso   1.00
C690   C     0.13712   0.52155   0.92029   0.00000  Uiso   1.00
C691   C     0.32707   0.50962   0.73465   0.00000  Uiso   1.00
C692   C     0.00758   0.49129   0.76378   0.00000  Uiso   1.00
C693   C     0.18068   0.65592   0.73614   0.00000  Uiso   1.00
C694   C     0.15222   0.34510   0.76393   0.00000  Uiso   1.00
C695   C     0.15634   0.38923   0.76011   0.00000  Uiso   1.00
C696   C     0.17669   0.61132   0.74005   0.00000  Uiso   1.00
C697   C     0.07900   0.52193   0.98910   0.00000  Uiso   1.00
C698   C     0.18565   0.48182   0.62929   0.00000  Uiso   1.00
C699   C     0.14879   0.51817   0.87088   0.00000  Uiso   1.00
C700   C     0.25057   0.47835   0.51114   0.00000  Uiso   1.00
C701   C     0.19525   0.47655   0.58076   0.00000  Uiso   1.00
C702   C     0.09443   0.52655   0.94284   0.00000  Uiso   1.00
C703   C     0.01863   0.55585   0.99905   0.00000  Uiso   1.00
C704   C     0.10627   0.50998   0.51197   0.00000  Uiso   1.00
C705   C     0.14990   0.50561   0.99065   0.00000  Uiso   1.00
C706   C     0.16577   0.51356   0.94458   0.00000  Uiso   1.00
C707   C     0.17831   0.49342   0.51344   0.00000  Uiso   1.00
C708   C     0.22190   0.49022   0.98976   0.00000  Uiso   1.00
C709   C     0.23722   0.50077   0.94552   0.00000  Uiso   1.00
C710   C     0.20992   0.51325   0.92363   0.00000  Uiso   1.00
H711   H     0.26078   0.46585   0.57333   0.00000  Uiso   1.00
H712   H     0.22417   0.52319   0.89013   0.00000  Uiso   1.00
H713   H     0.00745   0.54515   0.96851   0.00000  Uiso   1.00
H714   H     0.04149   0.58511   0.99385   0.00000  Uiso   1.00
H715   H     0.32329   0.56322   0.52600   0.00000  Uiso   1.00
H716   H     0.31873   0.47536   0.79155   0.00000  Uiso   1.00
H717   H     0.20697   0.33722   0.71051   0.00000  Uiso   1.00
H718   H     0.12566   0.66456   0.78975   0.00000  Uiso   1.00
H719   H     0.27080   0.50010   0.92790   0.00000  Uiso   1.00
H720   H     0.28375   0.47582   0.99322   0.00000  Uiso   1.00
H721   H     0.13386   0.48957   0.58023   0.00000  Uiso   1.00
H722   H     0.07255   0.53158   0.92373   0.00000  Uiso   1.00
H723   H     0.09199   0.50447   0.54672   0.00000  Uiso   1.00
O724   O     0.16667   0.50000   0.75000   0.00000  Uiso   1.00
O725   O     0.15451   0.45970   0.65459   0.00000  Uiso   1.00
O726   O     0.12940   0.53724   0.84968   0.00000  Uiso   1.00
O727   O     0.20824   0.51092   0.64606   0.00000  Uiso   1.00
O728   O     0.17451   0.49213   0.84968   0.00000  Uiso   1.00
O729   O     0.03626   0.52379   0.51261   0.00000  Uiso   1.00
O730   O     0.17930   0.41352   0.78214   0.00000  Uiso   1.00
O731   O     0.14632   0.59418   0.77014   0.00000  Uiso   1.00
O732   O     0.07412   0.46625   0.73413   0.00000  Uiso   1.00
O733   O     0.26693   0.52605   0.71361   0.00000  Uiso   1.00
O734   O     0.07071   0.52211   0.78213   0.00000  Uiso   1.00
O735   O     0.25491   0.48559   0.77014   0.00000  Uiso   1.00
O736   O     0.13760   0.40277   0.73413   0.00000  Uiso   1.00
O737   O     0.20345   0.58953   0.71361   0.00000  Uiso   1.00
Zn738  Zn    0.19338   0.47327   0.78734   0.00000  Uiso   1.00
Zn739  Zn    0.13379   0.45791   0.71876   0.00000  Uiso   1.00
Zn740  Zn    0.21056   0.53109   0.70657   0.00000  Uiso   1.00
Zn741  Zn    0.12893   0.53773   0.78734   0.00000  Uiso   1.00
Br742  Br    0.36634   0.53891   0.68601   0.00000  Uiso   1.00
C743   C     0.38607   0.49292   0.76029   0.00000  Uiso   1.00
C744   C     0.49887   0.48568   0.55934   0.00000  Uiso   1.00
C745   C     0.57077   0.47211   0.55653   0.00000  Uiso   1.00
C746   C     0.61427   0.50717   0.73973   0.00000  Uiso   1.00
C747   C     0.47045   0.52155   0.92029   0.00000  Uiso   1.00
C748   C     0.66040   0.50962   0.73465   0.00000  Uiso   1.00
C749   C     0.34092   0.49129   0.76378   0.00000  Uiso   1.00
C750   C     0.51401   0.65592   0.73614   0.00000  Uiso   1.00
C751   C     0.48555   0.34510   0.76393   0.00000  Uiso   1.00
C752   C     0.48968   0.38923   0.76011   0.00000  Uiso   1.00
C753   C     0.51003   0.61132   0.74005   0.00000  Uiso   1.00
C754   C     0.41233   0.52193   0.98910   0.00000  Uiso   1.00
C755   C     0.51898   0.48182   0.62929   0.00000  Uiso   1.00
C756   C     0.48213   0.51817   0.87088   0.00000  Uiso   1.00
C757   C     0.58391   0.47835   0.51114   0.00000  Uiso   1.00
C758   C     0.52858   0.47655   0.58076   0.00000  Uiso   1.00
C759   C     0.42776   0.52655   0.94284   0.00000  Uiso   1.00
C760   C     0.35197   0.55585   0.99905   0.00000  Uiso   1.00
C761   C     0.43961   0.50998   0.51197   0.00000  Uiso   1.00
C762   C     0.48323   0.50561   0.99065   0.00000  Uiso   1.00
C763   C     0.49910   0.51356   0.94458   0.00000  Uiso   1.00
C764   C     0.51165   0.49342   0.51344   0.00000  Uiso   1.00
C765   C     0.55523   0.49022   0.98976   0.00000  Uiso   1.00
C766   C     0.57055   0.50077   0.94552   0.00000  Uiso   1.00
C767   C     0.54325   0.51325   0.92363   0.00000  Uiso   1.00
H768   H     0.59412   0.46585   0.57333   0.00000  Uiso   1.00
H769   H     0.55751   0.52319   0.89013   0.00000  Uiso   1.00
H770   H     0.34078   0.54515   0.96851   0.00000  Uiso   1.00
H771   H     0.37482   0.58511   0.99385   0.00000  Uiso   1.00
H772   H     0.65663   0.56322   0.52600   0.00000  Uiso   1.00
H773   H     0.65207   0.47536   0.79155   0.00000  Uiso   1.00
H774   H     0.54030   0.33722   0.71051   0.00000  Uiso   1.00
H775   H     0.45899   0.66456   0.78975   0.00000  Uiso   1.00
H776   H     0.60413   0.50010   0.92790   0.00000  Uiso   1.00
H777   H     0.61708   0.47582   0.99322   0.00000  Uiso   1.00
H778   H     0.46720   0.48957   0.58023   0.00000  Uiso   1.00
H779   H     0.40589   0.53158   0.92373   0.00000  Uiso   1.00
H780   H     0.42532   0.50447   0.54672   0.00000  Uiso   1.00
O781   O     0.50000   0.50000   0.75000   0.00000  Uiso   1.00
O782   O     0.48784   0.45970   0.65459   0.00000  Uiso   1.00
O783   O     0.46274   0.53724   0.84968   0.00000  Uiso   1.00
O784   O     0.54157   0.51092   0.64606   0.00000  Uiso   1.00
O785   O     0.50785   0.49213   0.84968   0.00000  Uiso   1.00
O786   O     0.36959   0.52379   0.51261   0.00000  Uiso   1.00
O787   O     0.51264   0.41352   0.78214   0.00000  Uiso   1.00
O788   O     0.47965   0.59418   0.77014   0.00000  Uiso   1.00
O789   O     0.40745   0.46625   0.73413   0.00000  Uiso   1.00
O790   O     0.60026   0.52605   0.71361   0.00000  Uiso   1.00
O791   O     0.40405   0.52211   0.78213   0.00000  Uiso   1.00
O792   O     0.58824   0.48559   0.77014   0.00000  Uiso   1.00
O793   O     0.47093   0.40277   0.73413   0.00000  Uiso   1.00
O794   O     0.53678   0.58953   0.71361   0.00000  Uiso   1.00
Zn795  Zn    0.52672   0.47327   0.78734   0.00000  Uiso   1.00
Zn796  Zn    0.46713   0.45791   0.71876   0.00000  Uiso   1.00
Zn797  Zn    0.54389   0.53109   0.70657   0.00000  Uiso   1.00
Zn798  Zn    0.46226   0.53773   0.78734   0.00000  Uiso   1.00
Br799  Br    0.69967   0.53891   0.68601   0.00000  Uiso   1.00
C800   C     0.71941   0.49292   0.76029   0.00000  Uiso   1.00
C801   C     0.83220   0.48568   0.55934   0.00000  Uiso   1.00
C802   C     0.90411   0.47211   0.55653   0.00000  Uiso   1.00
C803   C     0.94761   0.50717   0.73973   0.00000  Uiso   1.00
C804   C     0.80379   0.52155   0.92029   0.00000  Uiso   1.00
C805   C     0.99374   0.50962   0.73465   0.00000  Uiso   1.00
C806   C     0.67425   0.49129   0.76378   0.00000  Uiso   1.00
C807   C     0.84735   0.65592   0.73614   0.00000  Uiso   1.00
C808   C     0.81889   0.34510   0.76393   0.00000  Uiso   1.00
C809   C     0.82301   0.38923   0.76011   0.00000  Uiso   1.00
C810   C     0.84336   0.61132   0.74005   0.00000  Uiso   1.00
C811   C     0.74566   0.52193   0.98910   0.00000  Uiso   1.00
C812   C     0.85232   0.48182   0.62929   0.00000  Uiso   1.00
C813   C     0.81546   0.51817   0.87088   0.00000  Uiso   1.00
C814   C     0.91724   0.47835   0.51114   0.00000  Uiso   1.00
C815   C     0.86192   0.47655   0.58076   0.00000  Uiso   1.00
C816   C     0.76109   0.52655   0.94284   0.00000  Uiso   1.00
C817   C     0.68530   0.55585   0.99905   0.00000  Uiso   1.00
C818   C     0.77294   0.50998   0.51197   0.00000  Uiso   1.00
C819   C     0.81656   0.50561   0.99065   0.00000  Uiso   1.00
C820   C     0.83244   0.51356   0.94458   0.00000  Uiso   1.00
C821   C     0.84498   0.49342   0.51344   0.00000  Uiso   1.00
C822   C     0.88857   0.49022   0.98976   0.00000  Uiso   1.00
C823   C     0.90388   0.50077   0.94552   0.00000  Uiso   1.00
C824   C     0.87659   0.51325   0.92363   0.00000  Uiso   1.00
H825   H     0.92745   0.46585   0.57333   0.00000  Uiso   1.00
H826   H     0.89084   0.52319   0.89013   0.00000  Uiso   1.00
H827   H     0.67411   0.54515   0.96851   0.00000  Uiso   1.00
H828   H     0.70815   0.58511   0.99385   0.00000  Uiso   1.00
H829   H     0.98996   0.56322   0.52600   0.00000  Uiso   1.00
H830   H     0.98540   0.47536   0.79155   0.00000  Uiso   1.00
H831   H     0.87363   0.33722   0.71051   0.00000  Uiso   1.00
H832   H     0.79232   0.66456   0.78975   0.00000  Uiso   1.00
H833   H     0.93746   0.50010   0.92790   0.00000  Uiso   1.00
H834   H     0.95042   0.47582   0.99322   0.00000  Uiso   1.00
H835   H     0.80053   0.48957   0.58023   0.00000  Uiso   1.00
H836   H     0.73922   0.53158   0.92373   0.00000  Uiso   1.00
H837   H     0.75866   0.50447   0.54672   0.00000  Uiso   1.00
O838   O     0.83333   0.50000   0.75000   0.00000  Uiso   1.00
O839   O     0.82118   0.45970   0.65459   0.00000  Uiso   1.00
O840   O     0.79607   0.53724   0.84968   0.00000  Uiso   1.00
O841   O     0.87491   0.51092   0.64606   0.00000  Uiso   1.00
O842   O     0.84118   0.49213   0.84968   0.00000  Uiso   1.00
O843   O     0.70293   0.52379   0.51261   0.00000  Uiso   1.00
O844   O     0.84597   0.41352   0.78214   0.00000  Uiso   1.00
O845   O     0.81298   0.59418   0.77014   0.00000  Uiso   1.00
O846   O     0.74078   0.46625   0.73413   0.00000  Uiso   1.00
O847   O     0.93360   0.52605   0.71361   0.00000  Uiso   1.00
O848   O     0.73738   0.52211   0.78213   0.00000  Uiso   1.00
O849   O     0.92158   0.48559   0.77014   0.00000  Uiso   1.00
O850   O     0.80426   0.40277   0.73413   0.00000  Uiso   1.00
O851   O     0.87012   0.58953   0.71361   0.00000  Uiso   1.00
Zn852  Zn    0.86005   0.47327   0.78734   0.00000  Uiso   1.00
Zn853  Zn    0.80046   0.45791   0.71876   0.00000  Uiso   1.00
Zn854  Zn    0.87723   0.53109   0.70657   0.00000  Uiso   1.00
Zn855  Zn    0.79560   0.53773   0.78734   0.00000  Uiso   1.00
Br856  Br    0.03301   0.87225   0.68601   0.00000  Uiso   1.00
C857   C     0.05274   0.82626   0.76029   0.00000  Uiso   1.00
C858   C     0.16554   0.81901   0.55934   0.00000  Uiso   1.00
C859   C     0.23744   0.80544   0.55653   0.00000  Uiso   1.00
C860   C     0.28094   0.84050   0.73973   0.00000  Uiso   1.00
C861   C     0.13712   0.85488   0.92029   0.00000  Uiso   1.00
C862   C     0.32707   0.84295   0.73465   0.00000  Uiso   1.00
C863   C     0.00758   0.82462   0.76378   0.00000  Uiso   1.00
C864   C     0.18068   0.98926   0.73614   0.00000  Uiso   1.00
C865   C     0.15222   0.67843   0.76393   0.00000  Uiso   1.00
C866   C     0.15634   0.72256   0.76011   0.00000  Uiso   1.00
C867   C     0.17669   0.94465   0.74005   0.00000  Uiso   1.00
C868   C     0.07900   0.85526   0.98910   0.00000  Uiso   1.00
C869   C     0.18565   0.81515   0.62929   0.00000  Uiso   1.00
C870   C     0.14879   0.85151   0.87088   0.00000  Uiso   1.00
C871   C     0.25057   0.81168   0.51114   0.00000  Uiso   1.00
C872   C     0.19525   0.80988   0.58076   0.00000  Uiso   1.00
C873   C     0.09443   0.85989   0.94284   0.00000  Uiso   1.00
C874   C     0.01863   0.88918   0.99905   0.00000  Uiso   1.00
C875   C     0.10627   0.84331   0.51197   0.00000  Uiso   1.00
C876   C     0.14990   0.83894   0.99065   0.00000  Uiso   1.00
C877   C     0.16577   0.84689   0.94458   0.00000  Uiso   1.00
C878   C     0.17831   0.82676   0.51344   0.00000  Uiso   1.00
C879   C     0.22190   0.82355   0.98976   0.00000  Uiso   1.00
C880   C     0.23722   0.83410   0.94552   0.00000  Uiso   1.00
C881   C     0.20992   0.84658   0.92363   0.00000  Uiso   1.00
H882   H     0.26078   0.79918   0.57333   0.00000  Uiso   1.00
H883   H     0.22417   0.85652   0.89013   0.00000  Uiso   1.00
H884   H     0.00745   0.87849   0.96851   0.00000  Uiso   1.00
H885   H     0.04149   0.91845   0.99385   0.00000  Uiso   1.00
H886   H     0.32329   0.89656   0.52600   0.00000  Uiso   1.00
H887   H     0.31873   0.80870   0.79155   0.00000  Uiso   1.00
H888   H     0.20697   0.67056   0.71051   0.00000  Uiso   1.00
H889   H     0.12566   0.99789   0.78975   0.00000  Uiso   1.00
H890   H     0.27080   0.83343   0.92790   0.00000  Uiso   1.00
H891   H     0.28375   0.80915   0.99322   0.00000  Uiso   1.00
H892   H     0.13386   0.82291   0.58023   0.00000  Uiso   1.00
H893   H     0.07255   0.86491   0.92373   0.00000  Uiso   1.00
H894   H     0.09199   0.83781   0.54672   0.00000  Uiso   1.00
O895   O     0.16667   0.83333   0.75000   0.00000  Uiso   1.00
O896   O     0.15451   0.79304   0.65459   0.00000  Uiso   1.00
O897   O     0.12940   0.87058   0.84968   0.00000  Uiso   1.00
O898   O     0.20824   0.84425   0.64606   0.00000  Uiso   1.00
O899   O     0.17451   0.82546   0.84968   0.00000  Uiso   1.00
O900   O     0.03626   0.85712   0.51261   0.00000  Uiso   1.00
O901   O     0.17930   0.74686   0.78214   0.00000  Uiso   1.00
O902   O     0.14632   0.92751   0.77014   0.00000  Uiso   1.00
O903   O     0.07412   0.79958   0.73413   0.00000  Uiso   1.00
O904   O     0.26693   0.85939   0.71361   0.00000  Uiso   1.00
O905   O     0.07071   0.85544   0.78213   0.00000  Uiso   1.00
O906   O     0.25491   0.81892   0.77014   0.00000  Uiso   1.00
O907   O     0.13760   0.73610   0.73413   0.00000  Uiso   1.00
O908   O     0.20345   0.92286   0.71361   0.00000  Uiso   1.00
Zn909  Zn    0.19338   0.80661   0.78734   0.00000  Uiso   1.00
Zn910  Zn    0.13379   0.79124   0.71876   0.00000  Uiso   1.00
Zn911  Zn    0.21056   0.86442   0.70657   0.00000  Uiso   1.00
Zn912  Zn    0.12893   0.87106   0.78734   0.00000  Uiso   1.00
Br913  Br    0.36634   0.87225   0.68601   0.00000  Uiso   1.00
C914   C     0.38607   0.82626   0.76029   0.00000  Uiso   1.00
C915   C     0.49887   0.81901   0.55934   0.00000  Uiso   1.00
C916   C     0.57077   0.80544   0.55653   0.00000  Uiso   1.00
C917   C     0.61427   0.84050   0.73973   0.00000  Uiso   1.00
C918   C     0.47045   0.85488   0.92029   0.00000  Uiso   1.00
C919   C     0.66040   0.84295   0.73465   0.00000  Uiso   1.00
C920   C     0.34092   0.82462   0.76378   0.00000  Uiso   1.00
C921   C     0.51401   0.98926   0.73614   0.00000  Uiso   1.00
C922   C     0.48555   0.67843   0.76393   0.00000  Uiso   1.00
C923   C     0.48968   0.72256   0.76011   0.00000  Uiso   1.00
C924   C     0.51003   0.94465   0.74005   0.00000  Uiso   1.00
C925   C     0.41233   0.85526   0.98910   0.00000  Uiso   1.00
C926   C     0.51898   0.81515   0.62929   0.00000  Uiso   1.00
C927   C     0.48213   0.85151   0.87088   0.00000  Uiso   1.00
C928   C     0.58391   0.81168   0.51114   0.00000  Uiso   1.00
C929   C     0.52858   0.80988   0.58076   0.00000  Uiso   1.00
C930   C     0.42776   0.85989   0.94284   0.00000  Uiso   1.00
C931   C     0.35197   0.88918   0.99905   0.00000  Uiso   1.00
C932   C     0.43961   0.84331   0.51197   0.00000  Uiso   1.00
C933   C     0.48323   0.83894   0.99065   0.00000  Uiso   1.00
C934   C     0.49910   0.84689   0.94458   0.00000  Uiso   1.00
C935   C     0.51165   0.82676   0.51344   0.00000  Uiso   1.00
C936   C     0.55523   0.82355   0.98976   0.00000  Uiso   1.00
C937   C     0.57055   0.83410   0.94552   0.00000  Uiso   1.00
C938   C     0.54325   0.84658   0.92363   0.00000  Uiso   1.00
H939   H     0.59412   0.79918   0.57333   0.00000  Uiso   1.00
H940   H     0.55751   0.85652   0.89013   0.00000  Uiso   1.00
H941   H     0.34078   0.87849   0.96851   0.00000  Uiso   1.00
H942   H     0.37482   0.91845   0.99385   0.00000  Uiso   1.00
H943   H     0.65663   0.89656   0.52600   0.00000  Uiso   1.00
H944   H     0.65207   0.80870   0.79155   0.00000  Uiso   1.00
H945   H     0.54030   0.67056   0.71051   0.00000  Uiso   1.00
H946   H     0.45899   0.99789   0.78975   0.00000  Uiso   1.00
H947   H     0.60413   0.83343   0.92790   0.00000  Uiso   1.00
H948   H     0.61708   0.80915   0.99322   0.00000  Uiso   1.00
H949   H     0.46720   0.82291   0.58023   0.00000  Uiso   1.00
H950   H     0.40589   0.86491   0.92373   0.00000  Uiso   1.00
H951   H     0.42532   0.83781   0.54672   0.00000  Uiso   1.00
O952   O     0.50000   0.83333   0.75000   0.00000  Uiso   1.00
O953   O     0.48784   0.79304   0.65459   0.00000  Uiso   1.00
O954   O     0.46274   0.87058   0.84968   0.00000  Uiso   1.00
O955   O     0.54157   0.84425   0.64606   0.00000  Uiso   1.00
O956   O     0.50785   0.82546   0.84968   0.00000  Uiso   1.00
O957   O     0.36959   0.85712   0.51261   0.00000  Uiso   1.00
O958   O     0.51264   0.74686   0.78214   0.00000  Uiso   1.00
O959   O     0.47965   0.92751   0.77014   0.00000  Uiso   1.00
O960   O     0.40745   0.79958   0.73413   0.00000  Uiso   1.00
O961   O     0.60026   0.85939   0.71361   0.00000  Uiso   1.00
O962   O     0.40405   0.85544   0.78213   0.00000  Uiso   1.00
O963   O     0.58824   0.81892   0.77014   0.00000  Uiso   1.00
O964   O     0.47093   0.73610   0.73413   0.00000  Uiso   1.00
O965   O     0.53678   0.92286   0.71361   0.00000  Uiso   1.00
Zn966  Zn    0.52672   0.80661   0.78734   0.00000  Uiso   1.00
Zn967  Zn    0.46713   0.79124   0.71876   0.00000  Uiso   1.00
Zn968  Zn    0.54389   0.86442   0.70657   0.00000  Uiso   1.00
Zn969  Zn    0.46226   0.87106   0.78734   0.00000  Uiso   1.00
Br970  Br    0.69967   0.87225   0.68601   0.00000  Uiso   1.00
C971   C     0.71941   0.82626   0.76029   0.00000  Uiso   1.00
C972   C     0.83220   0.81901   0.55934   0.00000  Uiso   1.00
C973   C     0.90411   0.80544   0.55653   0.00000  Uiso   1.00
C974   C     0.94761   0.84050   0.73973   0.00000  Uiso   1.00
C975   C     0.80379   0.85488   0.92029   0.00000  Uiso   1.00
C976   C     0.99374   0.84295   0.73465   0.00000  Uiso   1.00
C977   C     0.67425   0.82462   0.76378   0.00000  Uiso   1.00
C978   C     0.84735   0.98926   0.73614   0.00000  Uiso   1.00
C979   C     0.81889   0.67843   0.76393   0.00000  Uiso   1.00
C980   C     0.82301   0.72256   0.76011   0.00000  Uiso   1.00
C981   C     0.84336   0.94465   0.74005   0.00000  Uiso   1.00
C982   C     0.74566   0.85526   0.98910   0.00000  Uiso   1.00
C983   C     0.85232   0.81515   0.62929   0.00000  Uiso   1.00
C984   C     0.81546   0.85151   0.87088   0.00000  Uiso   1.00
C985   C     0.91724   0.81168   0.51114   0.00000  Uiso   1.00
C986   C     0.86192   0.80988   0.58076   0.00000  Uiso   1.00
C987   C     0.76109   0.85989   0.94284   0.00000  Uiso   1.00
C988   C     0.68530   0.88918   0.99905   0.00000  Uiso   1.00
C989   C     0.77294   0.84331   0.51197   0.00000  Uiso   1.00
C990   C     0.81656   0.83894   0.99065   0.00000  Uiso   1.00
C991   C     0.83244   0.84689   0.94458   0.00000  Uiso   1.00
C992   C     0.84498   0.82676   0.51344   0.00000  Uiso   1.00
C993   C     0.88857   0.82355   0.98976   0.00000  Uiso   1.00
C994   C     0.90388   0.83410   0.94552   0.00000  Uiso   1.00
C995   C     0.87659   0.84658   0.92363   0.00000  Uiso   1.00
H996   H     0.92745   0.79918   0.57333   0.00000  Uiso   1.00
H997   H     0.89084   0.85652   0.89013   0.00000  Uiso   1.00
H998   H     0.67411   0.87849   0.96851   0.00000  Uiso   1.00
H999   H     0.70815   0.91845   0.99385   0.00000  Uiso   1.00
H1000  H     0.98996   0.89656   0.52600   0.00000  Uiso   1.00
H1001  H     0.98540   0.80870   0.79155   0.00000  Uiso   1.00
H1002  H     0.87363   0.67056   0.71051   0.00000  Uiso   1.00
H1003  H     0.79232   0.99789   0.78975   0.00000  Uiso   1.00
H1004  H     0.93746   0.83343   0.92790   0.00000  Uiso   1.00
H1005  H     0.95042   0.80915   0.99322   0.00000  Uiso   1.00
H1006  H     0.80053   0.82291   0.58023   0.00000  Uiso   1.00
H1007  H     0.73922   0.86491   0.92373   0.00000  Uiso   1.00
H1008  H     0.75866   0.83781   0.54672   0.00000  Uiso   1.00
O1009  O     0.83333   0.83333   0.75000   0.00000  Uiso   1.00
O1010  O     0.82118   0.79304   0.65459   0.00000  Uiso   1.00
O1011  O     0.79607   0.87058   0.84968   0.00000  Uiso   1.00
O1012  O     0.87491   0.84425   0.64606   0.00000  Uiso   1.00
O1013  O     0.84118   0.82546   0.84968   0.00000  Uiso   1.00
O1014  O     0.70293   0.85712   0.51261   0.00000  Uiso   1.00
O1015  O     0.84597   0.74686   0.78214   0.00000  Uiso   1.00
O1016  O     0.81298   0.92751   0.77014   0.00000  Uiso   1.00
O1017  O     0.74078   0.79958   0.73413   0.00000  Uiso   1.00
O1018  O     0.93360   0.85939   0.71361   0.00000  Uiso   1.00
O1019  O     0.73738   0.85544   0.78213   0.00000  Uiso   1.00
O1020  O     0.92158   0.81892   0.77014   0.00000  Uiso   1.00
O1021  O     0.80426   0.73610   0.73413   0.00000  Uiso   1.00
O1022  O     0.87012   0.92286   0.71361   0.00000  Uiso   1.00
Zn1023 Zn    0.86005   0.80661   0.78734   0.00000  Uiso   1.00
Zn1024 Zn    0.80046   0.79124   0.71876   0.00000  Uiso   1.00
Zn1025 Zn    0.87723   0.86442   0.70657   0.00000  Uiso   1.00
Zn1026 Zn    0.79560   0.87106   0.78734   0.00000  Uiso   1.00
loop_
_geom_bond_atom_site_label_1
_geom_bond_atom_site_label_2
_geom_bond_distance
_geom_bond_site_symmetry_2
_ccdc_geom_bond_type
Br1    C121    1.929   1_455 S
C2     O50     1.272   .     A
C2     O48     1.273   .     A
C2     C8      1.438   .     S
C3     C17     1.394   .     A
C3     H37     1.077   .     S
C3     C23     1.412   .     A
C4     C16     1.386   .     A
C4     C17     1.397   .     A
C4     H27     1.084   .     S
C5     O49     1.278   .     A
C5     O51     1.278   .     A
C5     C7      1.458   .     S
C6     C22     1.415   .     A
C6     C18     1.402   .     A
C6     C15     1.475   .     S
C7     Br58    1.929   .     S
C7     C65     1.339   .     S
C8     C121    1.339   1_455 S
C8     H146    1.086   1_455 S
C9     C12     1.452   .     S
C9     C181    1.332   .     S
C9     H204    1.088   .     S
C10    C11     1.436   .     S
C10    C351    1.332   1_545 S
C10    H376    1.086   1_545 S
C11    O46     1.280   .     A
C11    O52     1.280   .     A
C12    O53     1.269   .     A
C12    O47     1.268   .     A
C13    C18     1.405   .     A
C13    C533    1.395   .     S
C13    O558    1.392   .     S
C14    C17     1.452   .     S
C14    O41     1.278   .     A
C14    O43     1.267   .     A
C15    O44     1.283   .     A
C15    O42     1.282   .     A
C16    C537    1.400   1_554 S
C16    H549    1.084   1_554 S
C18    H38     1.082   .     S
C19    H29     1.111   .     S
C19    H30     1.114   .     S
C19    H658    1.109   1_455 S
C19    O558    1.412   .     S
C20    H39     1.076   .     S
C20    C526    1.395   1_554 S
C20    C534    1.417   1_554 S
C21    C22     1.422   .     A
C21    C533    1.417   .     S
C21    C536    1.427   .     S
C22    C26     1.410   .     A
C23    C534    1.427   1_554 S
C23    C537    1.424   1_554 S
C24    C25     1.391   .     A
C24    C529    1.400   .     S
C24    C536    1.424   .     S
C25    H35     1.084   .     S
C25    C26     1.382   .     A
C26    H28     1.081   .     S
H31    C589    1.109   1_554 S
H32    C65     1.086   .     S
H33    C351    1.088   1_545 S
H34    C181    1.086   .     S
H36    C529    1.084   .     S
O40    Zn57    1.933   .     S
O40    Zn54    1.960   .     S
O40    Zn56    1.923   .     S
O40    Zn55    1.952   .     S
O41    Zn55    1.929   .     S
O42    Zn57    1.943   .     S
O43    Zn56    1.943   .     S
O44    Zn54    1.930   .     S
O45    C526    1.392   1_554 S
O45    C532    1.412   1_554 S
O46    Zn54    1.928   .     S
O47    Zn57    1.926   .     S
O48    Zn55    1.925   .     S
O49    Zn56    1.938   .     S
O50    Zn57    1.934   .     S
O51    Zn54    1.920   .     S
O52    Zn55    1.933   .     S
O53    Zn56    1.931   .     S
C59    O107    1.272   .     A
C59    O105    1.273   .     A
C59    C65     1.438   .     S
C60    C74     1.394   .     A
C60    H94     1.077   .     S
C60    C80     1.412   .     A
C61    C73     1.386   .     A
C61    C74     1.397   .     A
C61    H84     1.084   .     S
C62    O106    1.278   .     A
C62    O108    1.278   .     A
C62    C64     1.458   .     S
C63    C79     1.415   .     A
C63    C75     1.402   .     A
C63    C72     1.475   .     S
C64    Br115   1.929   .     S
C64    C122    1.339   .     S
C66    C69     1.452   .     S
C66    C238    1.332   .     S
C66    H261    1.088   .     S
C67    C68     1.436   .     S
C67    C408    1.332   1_545 S
C67    H433    1.086   1_545 S
C68    O103    1.280   .     A
C68    O109    1.280   .     A
C69    O110    1.269   .     A
C69    O104    1.268   .     A
C70    C75     1.405   .     A
C70    C590    1.395   .     S
C70    O615    1.392   .     S
C71    C74     1.452   .     S
C71    O98     1.278   .     A
C71    O100    1.267   .     A
C72    O101    1.283   .     A
C72    O99     1.282   .     A
C73    C594    1.400   1_554 S
C73    H606    1.084   1_554 S
C75    H95     1.082   .     S
C76    H86     1.111   .     S
C76    H87     1.114   .     S
C76    H544    1.109   .     S
C76    O615    1.412   .     S
C77    H96     1.076   .     S
C77    C583    1.395   1_554 S
C77    C591    1.417   1_554 S
C78    C79     1.422   .     A
C78    C590    1.417   .     S
C78    C593    1.427   .     S
C79    C83     1.410   .     A
C80    C591    1.427   1_554 S
C80    C594    1.424   1_554 S
C81    C82     1.391   .     A
C81    C586    1.400   .     S
C81    C593    1.424   .     S
C82    H92     1.084   .     S
C82    C83     1.382   .     A
C83    H85     1.081   .     S
H88    C646    1.109   1_554 S
H89    C122    1.086   .     S
H90    C408    1.088   1_545 S
H91    C238    1.086   .     S
H93    C586    1.084   .     S
O97    Zn114   1.933   .     S
O97    Zn111   1.960   .     S
O97    Zn113   1.923   .     S
O97    Zn112   1.952   .     S
O98    Zn112   1.929   .     S
O99    Zn114   1.943   .     S
O100   Zn113   1.943   .     S
O101   Zn111   1.930   .     S
O102   C583    1.392   1_554 S
O102   C589    1.412   1_554 S
O103   Zn111   1.928   .     S
O104   Zn114   1.926   .     S
O105   Zn112   1.925   .     S
O106   Zn113   1.938   .     S
O107   Zn114   1.934   .     S
O108   Zn111   1.920   .     S
O109   Zn112   1.933   .     S
O110   Zn113   1.931   .     S
C116   O164    1.272   .     A
C116   O162    1.273   .     A
C116   C122    1.438   .     S
C117   C131    1.394   .     A
C117   H151    1.077   .     S
C117   C137    1.412   .     A
C118   C130    1.386   .     A
C118   C131    1.397   .     A
C118   H141    1.084   .     S
C119   O163    1.278   .     A
C119   O165    1.278   .     A
C119   C121    1.458   .     S
C120   C136    1.415   .     A
C120   C132    1.402   .     A
C120   C129    1.475   .     S
C121   Br1     1.929   1_655 S
C121   C8      1.339   1_655 S
C123   C126    1.452   .     S
C123   C295    1.332   .     S
C123   H318    1.088   .     S
C124   C125    1.436   .     S
C124   C465    1.332   1_545 S
C124   H490    1.086   1_545 S
C125   O160    1.280   .     A
C125   O166    1.280   .     A
C126   O167    1.269   .     A
C126   O161    1.268   .     A
C127   C132    1.405   .     A
C127   C647    1.395   .     S
C127   O672    1.392   .     S
C128   C131    1.452   .     S
C128   O155    1.278   .     A
C128   O157    1.267   .     A
C129   O158    1.283   .     A
C129   O156    1.282   .     A
C130   C651    1.400   1_554 S
C130   H663    1.084   1_554 S
C132   H152    1.082   .     S
C133   H143    1.111   .     S
C133   H144    1.114   .     S
C133   H601    1.109   .     S
C133   O672    1.412   .     S
C134   H153    1.076   .     S
C134   C640    1.395   1_554 S
C134   C648    1.417   1_554 S
C135   C136    1.422   .     A
C135   C647    1.417   .     S
C135   C650    1.427   .     S
C136   C140    1.410   .     A
C137   C648    1.427   1_554 S
C137   C651    1.424   1_554 S
C138   C139    1.391   .     A
C138   C643    1.400   .     S
C138   C650    1.424   .     S
C139   H149    1.084   .     S
C139   C140    1.382   .     A
C140   H142    1.081   .     S
H145   C532    1.109   1_654 S
H146   C8      1.086   1_655 S
H147   C465    1.088   1_545 S
H148   C295    1.086   .     S
H150   C643    1.084   .     S
O154   Zn171   1.933   .     S
O154   Zn168   1.960   .     S
O154   Zn170   1.923   .     S
O154   Zn169   1.952   .     S
O155   Zn169   1.929   .     S
O156   Zn171   1.943   .     S
O157   Zn170   1.943   .     S
O158   Zn168   1.930   .     S
O159   C640    1.392   1_554 S
O159   C646    1.412   1_554 S
O160   Zn168   1.928   .     S
O161   Zn171   1.926   .     S
O162   Zn169   1.925   .     S
O163   Zn170   1.938   .     S
O164   Zn171   1.934   .     S
O165   Zn168   1.920   .     S
O166   Zn169   1.933   .     S
O167   Zn170   1.931   .     S
Br172  C292    1.929   1_455 S
C173   O221    1.272   .     A
C173   O219    1.273   .     A
C173   C179    1.438   .     S
C174   C188    1.394   .     A
C174   H208    1.077   .     S
C174   C194    1.412   .     A
C175   C187    1.386   .     A
C175   C188    1.397   .     A
C175   H198    1.084   .     S
C176   O220    1.278   .     A
C176   O222    1.278   .     A
C176   C178    1.458   .     S
C177   C193    1.415   .     A
C177   C189    1.402   .     A
C177   C186    1.475   .     S
C178   Br229   1.929   .     S
C178   C236    1.339   .     S
C179   C292    1.339   1_455 S
C179   H317    1.086   1_455 S
C180   C183    1.452   .     S
C180   C352    1.332   .     S
C180   H375    1.088   .     S
C181   C182    1.436   .     S
C182   O217    1.280   .     A
C182   O223    1.280   .     A
C183   O224    1.269   .     A
C183   O218    1.268   .     A
C184   C189    1.405   .     A
C184   C704    1.395   .     S
C184   O729    1.392   .     S
C185   C188    1.452   .     S
C185   O212    1.278   .     A
C185   O214    1.267   .     A
C186   O215    1.283   .     A
C186   O213    1.282   .     A
C187   C708    1.400   1_554 S
C187   H720    1.084   1_554 S
C189   H209    1.082   .     S
C190   H200    1.111   .     S
C190   H201    1.114   .     S
C190   H829    1.109   1_455 S
C190   O729    1.412   .     S
C191   H210    1.076   .     S
C191   C697    1.395   1_554 S
C191   C705    1.417   1_554 S
C192   C193    1.422   .     A
C192   C704    1.417   .     S
C192   C707    1.427   .     S
C193   C197    1.410   .     A
C194   C705    1.427   1_554 S
C194   C708    1.424   1_554 S
C195   C196    1.391   .     A
C195   C700    1.400   .     S
C195   C707    1.424   .     S
C196   H206    1.084   .     S
C196   C197    1.382   .     A
C197   H199    1.081   .     S
H202   C760    1.109   1_554 S
H203   C236    1.086   .     S
H205   C352    1.086   .     S
H207   C700    1.084   .     S
O211   Zn228   1.933   .     S
O211   Zn225   1.960   .     S
O211   Zn227   1.923   .     S
O211   Zn226   1.952   .     S
O212   Zn226   1.929   .     S
O213   Zn228   1.943   .     S
O214   Zn227   1.943   .     S
O215   Zn225   1.930   .     S
O216   C697    1.392   1_554 S
O216   C703    1.412   1_554 S
O217   Zn225   1.928   .     S
O218   Zn228   1.926   .     S
O219   Zn226   1.925   .     S
O220   Zn227   1.938   .     S
O221   Zn228   1.934   .     S
O222   Zn225   1.920   .     S
O223   Zn226   1.933   .     S
O224   Zn227   1.931   .     S
C230   O278    1.272   .     A
C230   O276    1.273   .     A
C230   C236    1.438   .     S
C231   C245    1.394   .     A
C231   H265    1.077   .     S
C231   C251    1.412   .     A
C232   C244    1.386   .     A
C232   C245    1.397   .     A
C232   H255    1.084   .     S
C233   O277    1.278   .     A
C233   O279    1.278   .     A
C233   C235    1.458   .     S
C234   C250    1.415   .     A
C234   C246    1.402   .     A
C234   C243    1.475   .     S
C235   Br286   1.929   .     S
C235   C293    1.339   .     S
C237   C240    1.452   .     S
C237   C409    1.332   .     S
C237   H432    1.088   .     S
C238   C239    1.436   .     S
C239   O274    1.280   .     A
C239   O280    1.280   .     A
C240   O281    1.269   .     A
C240   O275    1.268   .     A
C241   C246    1.405   .     A
C241   C761    1.395   .     S
C241   O786    1.392   .     S
C242   C245    1.452   .     S
C242   O269    1.278   .     A
C242   O271    1.267   .     A
C243   O272    1.283   .     A
C243   O270    1.282   .     A
C244   C765    1.400   1_554 S
C244   H777    1.084   1_554 S
C246   H266    1.082   .     S
C247   H257    1.111   .     S
C247   H258    1.114   .     S
C247   H715    1.109   .     S
C247   O786    1.412   .     S
C248   H267    1.076   .     S
C248   C754    1.395   1_554 S
C248   C762    1.417   1_554 S
C249   C250    1.422   .     A
C249   C761    1.417   .     S
C249   C764    1.427   .     S
C250   C254    1.410   .     A
C251   C762    1.427   1_554 S
C251   C765    1.424   1_554 S
C252   C253    1.391   .     A
C252   C757    1.400   .     S
C252   C764    1.424   .     S
C253   H263    1.084   .     S
C253   C254    1.382   .     A
C254   H256    1.081   .     S
H259   C817    1.109   1_554 S
H260   C293    1.086   .     S
H262   C409    1.086   .     S
H264   C757    1.084   .     S
O268   Zn285   1.933   .     S
O268   Zn282   1.960   .     S
O268   Zn284   1.923   .     S
O268   Zn283   1.952   .     S
O269   Zn283   1.929   .     S
O270   Zn285   1.943   .     S
O271   Zn284   1.943   .     S
O272   Zn282   1.930   .     S
O273   C754    1.392   1_554 S
O273   C760    1.412   1_554 S
O274   Zn282   1.928   .     S
O275   Zn285   1.926   .     S
O276   Zn283   1.925   .     S
O277   Zn284   1.938   .     S
O278   Zn285   1.934   .     S
O279   Zn282   1.920   .     S
O280   Zn283   1.933   .     S
O281   Zn284   1.931   .     S
C287   O335    1.272   .     A
C287   O333    1.273   .     A
C287   C293    1.438   .     S
C288   C302    1.394   .     A
C288   H322    1.077   .     S
C288   C308    1.412   .     A
C289   C301    1.386   .     A
C289   C302    1.397   .     A
C289   H312    1.084   .     S
C290   O334    1.278   .     A
C290   O336    1.278   .     A
C290   C292    1.458   .     S
C291   C307    1.415   .     A
C291   C303    1.402   .     A
C291   C300    1.475   .     S
C292   Br172   1.929   1_655 S
C292   C179    1.339   1_655 S
C294   C297    1.452   .     S
C294   C466    1.332   .     S
C294   H489    1.088   .     S
C295   C296    1.436   .     S
C296   O331    1.280   .     A
C296   O337    1.280   .     A
C297   O338    1.269   .     A
C297   O332    1.268   .     A
C298   C303    1.405   .     A
C298   C818    1.395   .     S
C298   O843    1.392   .     S
C299   C302    1.452   .     S
C299   O326    1.278   .     A
C299   O328    1.267   .     A
C300   O329    1.283   .     A
C300   O327    1.282   .     A
C301   C822    1.400   1_554 S
C301   H834    1.084   1_554 S
C303   H323    1.082   .     S
C304   H314    1.111   .     S
C304   H315    1.114   .     S
C304   H772    1.109   .     S
C304   O843    1.412   .     S
C305   H324    1.076   .     S
C305   C811    1.395   1_554 S
C305   C819    1.417   1_554 S
C306   C307    1.422   .     A
C306   C818    1.417   .     S
C306   C821    1.427   .     S
C307   C311    1.410   .     A
C308   C819    1.427   1_554 S
C308   C822    1.424   1_554 S
C309   C310    1.391   .     A
C309   C814    1.400   .     S
C309   C821    1.424   .     S
C310   H320    1.084   .     S
C310   C311    1.382   .     A
C311   H313    1.081   .     S
H316   C703    1.109   1_654 S
H317   C179    1.086   1_655 S
H319   C466    1.086   .     S
H321   C814    1.084   .     S
O325   Zn342   1.933   .     S
O325   Zn339   1.960   .     S
O325   Zn341   1.923   .     S
O325   Zn340   1.952   .     S
O326   Zn340   1.929   .     S
O327   Zn342   1.943   .     S
O328   Zn341   1.943   .     S
O329   Zn339   1.930   .     S
O330   C811    1.392   1_554 S
O330   C817    1.412   1_554 S
O331   Zn339   1.928   .     S
O332   Zn342   1.926   .     S
O333   Zn340   1.925   .     S
O334   Zn341   1.938   .     S
O335   Zn342   1.934   .     S
O336   Zn339   1.920   .     S
O337   Zn340   1.933   .     S
O338   Zn341   1.931   .     S
Br343  C463    1.929   1_455 S
C344   O392    1.272   .     A
C344   O390    1.273   .     A
C344   C350    1.438   .     S
C345   C359    1.394   .     A
C345   H379    1.077   .     S
C345   C365    1.412   .     A
C346   C358    1.386   .     A
C346   C359    1.397   .     A
C346   H369    1.084   .     S
C347   O391    1.278   .     A
C347   O393    1.278   .     A
C347   C349    1.458   .     S
C348   C364    1.415   .     A
C348   C360    1.402   .     A
C348   C357    1.475   .     S
C349   Br400   1.929   .     S
C349   C407    1.339   .     S
C350   C463    1.339   1_455 S
C350   H488    1.086   1_455 S
C351   C354    1.452   .     S
C351   C10     1.332   1_565 S
C351   H33     1.088   1_565 S
C352   C353    1.436   .     S
C353   O388    1.280   .     A
C353   O394    1.280   .     A
C354   O395    1.269   .     A
C354   O389    1.268   .     A
C355   C360    1.405   .     A
C355   C875    1.395   .     S
C355   O900    1.392   .     S
C356   C359    1.452   .     S
C356   O383    1.278   .     A
C356   O385    1.267   .     A
C357   O386    1.283   .     A
C357   O384    1.282   .     A
C358   C879    1.400   1_554 S
C358   H891    1.084   1_554 S
C360   H380    1.082   .     S
C361   H371    1.111   .     S
C361   H372    1.114   .     S
C361   H1000   1.109   1_455 S
C361   O900    1.412   .     S
C362   H381    1.076   .     S
C362   C868    1.395   1_554 S
C362   C876    1.417   1_554 S
C363   C364    1.422   .     A
C363   C875    1.417   .     S
C363   C878    1.427   .     S
C364   C368    1.410   .     A
C365   C876    1.427   1_554 S
C365   C879    1.424   1_554 S
C366   C367    1.391   .     A
C366   C871    1.400   .     S
C366   C878    1.424   .     S
C367   H377    1.084   .     S
C367   C368    1.382   .     A
C368   H370    1.081   .     S
H373   C931    1.109   1_554 S
H374   C407    1.086   .     S
H376   C10     1.086   1_565 S
H378   C871    1.084   .     S
O382   Zn399   1.933   .     S
O382   Zn396   1.960   .     S
O382   Zn398   1.923   .     S
O382   Zn397   1.952   .     S
O383   Zn397   1.929   .     S
O384   Zn399   1.943   .     S
O385   Zn398   1.943   .     S
O386   Zn396   1.930   .     S
O387   C868    1.392   1_554 S
O387   C874    1.412   1_554 S
O388   Zn396   1.928   .     S
O389   Zn399   1.926   .     S
O390   Zn397   1.925   .     S
O391   Zn398   1.938   .     S
O392   Zn399   1.934   .     S
O393   Zn396   1.920   .     S
O394   Zn397   1.933   .     S
O395   Zn398   1.931   .     S
C401   O449    1.272   .     A
C401   O447    1.273   .     A
C401   C407    1.438   .     S
C402   C416    1.394   .     A
C402   H436    1.077   .     S
C402   C422    1.412   .     A
C403   C415    1.386   .     A
C403   C416    1.397   .     A
C403   H426    1.084   .     S
C404   O448    1.278   .     A
C404   O450    1.278   .     A
C404   C406    1.458   .     S
C405   C421    1.415   .     A
C405   C417    1.402   .     A
C405   C414    1.475   .     S
C406   Br457   1.929   .     S
C406   C464    1.339   .     S
C408   C411    1.452   .     S
C408   C67     1.332   1_565 S
C408   H90     1.088   1_565 S
C409   C410    1.436   .     S
C410   O445    1.280   .     A
C410   O451    1.280   .     A
C411   O452    1.269   .     A
C411   O446    1.268   .     A
C412   C417    1.405   .     A
C412   C932    1.395   .     S
C412   O957    1.392   .     S
C413   C416    1.452   .     S
C413   O440    1.278   .     A
C413   O442    1.267   .     A
C414   O443    1.283   .     A
C414   O441    1.282   .     A
C415   C936    1.400   1_554 S
C415   H948    1.084   1_554 S
C417   H437    1.082   .     S
C418   H428    1.111   .     S
C418   H429    1.114   .     S
C418   H886    1.109   .     S
C418   O957    1.412   .     S
C419   H438    1.076   .     S
C419   C925    1.395   1_554 S
C419   C933    1.417   1_554 S
C420   C421    1.422   .     A
C420   C932    1.417   .     S
C420   C935    1.427   .     S
C421   C425    1.410   .     A
C422   C933    1.427   1_554 S
C422   C936    1.424   1_554 S
C423   C424    1.391   .     A
C423   C928    1.400   .     S
C423   C935    1.424   .     S
C424   H434    1.084   .     S
C424   C425    1.382   .     A
C425   H427    1.081   .     S
H430   C988    1.109   1_554 S
H431   C464    1.086   .     S
H433   C67     1.086   1_565 S
H435   C928    1.084   .     S
O439   Zn456   1.933   .     S
O439   Zn453   1.960   .     S
O439   Zn455   1.923   .     S
O439   Zn454   1.952   .     S
O440   Zn454   1.929   .     S
O441   Zn456   1.943   .     S
O442   Zn455   1.943   .     S
O443   Zn453   1.930   .     S
O444   C925    1.392   1_554 S
O444   C931    1.412   1_554 S
O445   Zn453   1.928   .     S
O446   Zn456   1.926   .     S
O447   Zn454   1.925   .     S
O448   Zn455   1.938   .     S
O449   Zn456   1.934   .     S
O450   Zn453   1.920   .     S
O451   Zn454   1.933   .     S
O452   Zn455   1.931   .     S
C458   O506    1.272   .     A
C458   O504    1.273   .     A
C458   C464    1.438   .     S
C459   C473    1.394   .     A
C459   H493    1.077   .     S
C459   C479    1.412   .     A
C460   C472    1.386   .     A
C460   C473    1.397   .     A
C460   H483    1.084   .     S
C461   O505    1.278   .     A
C461   O507    1.278   .     A
C461   C463    1.458   .     S
C462   C478    1.415   .     A
C462   C474    1.402   .     A
C462   C471    1.475   .     S
C463   Br343   1.929   1_655 S
C463   C350    1.339   1_655 S
C465   C468    1.452   .     S
C465   C124    1.332   1_565 S
C465   H147    1.088   1_565 S
C466   C467    1.436   .     S
C467   O502    1.280   .     A
C467   O508    1.280   .     A
C468   O509    1.269   .     A
C468   O503    1.268   .     A
C469   C474    1.405   .     A
C469   C989    1.395   .     S
C469   O1014   1.392   .     S
C470   C473    1.452   .     S
C470   O497    1.278   .     A
C470   O499    1.267   .     A
C471   O500    1.283   .     A
C471   O498    1.282   .     A
C472   C993    1.400   1_554 S
C472   H1005   1.084   1_554 S
C474   H494    1.082   .     S
C475   H485    1.111   .     S
C475   H486    1.114   .     S
C475   H943    1.109   .     S
C475   O1014   1.412   .     S
C476   H495    1.076   .     S
C476   C982    1.395   1_554 S
C476   C990    1.417   1_554 S
C477   C478    1.422   .     A
C477   C989    1.417   .     S
C477   C992    1.427   .     S
C478   C482    1.410   .     A
C479   C990    1.427   1_554 S
C479   C993    1.424   1_554 S
C480   C481    1.391   .     A
C480   C985    1.400   .     S
C480   C992    1.424   .     S
C481   H491    1.084   .     S
C481   C482    1.382   .     A
C482   H484    1.081   .     S
H487   C874    1.109   1_654 S
H488   C350    1.086   1_655 S
H490   C124    1.086   1_565 S
H492   C985    1.084   .     S
O496   Zn513   1.933   .     S
O496   Zn510   1.960   .     S
O496   Zn512   1.923   .     S
O496   Zn511   1.952   .     S
O497   Zn511   1.929   .     S
O498   Zn513   1.943   .     S
O499   Zn512   1.943   .     S
O500   Zn510   1.930   .     S
O501   C982    1.392   1_554 S
O501   C988    1.412   1_554 S
O502   Zn510   1.928   .     S
O503   Zn513   1.926   .     S
O504   Zn511   1.925   .     S
O505   Zn512   1.938   .     S
O506   Zn513   1.934   .     S
O507   Zn510   1.920   .     S
O508   Zn511   1.933   .     S
O509   Zn512   1.931   .     S
Br514  C634    1.929   1_455 S
C515   O563    1.272   .     A
C515   O561    1.273   .     A
C515   C521    1.438   .     S
C516   C530    1.394   .     A
C516   H550    1.077   .     S
C516   C536    1.412   .     A
C517   C529    1.386   .     A
C517   C530    1.397   .     A
C517   H540    1.084   .     S
C518   O562    1.278   .     A
C518   O564    1.278   .     A
C518   C520    1.458   .     S
C519   C535    1.415   .     A
C519   C531    1.402   .     A
C519   C528    1.475   .     S
C520   Br571   1.929   .     S
C520   C578    1.339   .     S
C521   C634    1.339   1_455 S
C521   H659    1.086   1_455 S
C522   C525    1.452   .     S
C522   C694    1.332   .     S
C522   H717    1.088   .     S
C523   C524    1.436   .     S
C523   C864    1.332   1_545 S
C523   H889    1.086   1_545 S
C524   O559    1.280   .     A
C524   O565    1.280   .     A
C525   O566    1.269   .     A
C525   O560    1.268   .     A
C526   C531    1.405   .     A
C526   C20     1.395   1_556 S
C526   O45     1.392   1_556 S
C527   C530    1.452   .     S
C527   O554    1.278   .     A
C527   O556    1.267   .     A
C528   O557    1.283   .     A
C528   O555    1.282   .     A
C531   H551    1.082   .     S
C532   H542    1.111   .     S
C532   H543    1.114   .     S
C532   H145    1.109   1_456 S
C532   O45     1.412   1_556 S
C533   H552    1.076   .     S
C534   C535    1.422   .     A
C534   C20     1.417   1_556 S
C534   C23     1.427   1_556 S
C535   C539    1.410   .     A
C537   C538    1.391   .     A
C537   C16     1.400   1_556 S
C537   C23     1.424   1_556 S
C538   H548    1.084   .     S
C538   C539    1.382   .     A
C539   H541    1.081   .     S
H545   C578    1.086   .     S
H546   C864    1.088   1_545 S
H547   C694    1.086   .     S
H549   C16     1.084   1_556 S
O553   Zn570   1.933   .     S
O553   Zn567   1.960   .     S
O553   Zn569   1.923   .     S
O553   Zn568   1.952   .     S
O554   Zn568   1.929   .     S
O555   Zn570   1.943   .     S
O556   Zn569   1.943   .     S
O557   Zn567   1.930   .     S
O559   Zn567   1.928   .     S
O560   Zn570   1.926   .     S
O561   Zn568   1.925   .     S
O562   Zn569   1.938   .     S
O563   Zn570   1.934   .     S
O564   Zn567   1.920   .     S
O565   Zn568   1.933   .     S
O566   Zn569   1.931   .     S
C572   O620    1.272   .     A
C572   O618    1.273   .     A
C572   C578    1.438   .     S
C573   C587    1.394   .     A
C573   H607    1.077   .     S
C573   C593    1.412   .     A
C574   C586    1.386   .     A
C574   C587    1.397   .     A
C574   H597    1.084   .     S
C575   O619    1.278   .     A
C575   O621    1.278   .     A
C575   C577    1.458   .     S
C576   C592    1.415   .     A
C576   C588    1.402   .     A
C576   C585    1.475   .     S
C577   Br628   1.929   .     S
C577   C635    1.339   .     S
C579   C582    1.452   .     S
C579   C751    1.332   .     S
C579   H774    1.088   .     S
C580   C581    1.436   .     S
C580   C921    1.332   1_545 S
C580   H946    1.086   1_545 S
C581   O616    1.280   .     A
C581   O622    1.280   .     A
C582   O623    1.269   .     A
C582   O617    1.268   .     A
C583   C588    1.405   .     A
C583   C77     1.395   1_556 S
C583   O102    1.392   1_556 S
C584   C587    1.452   .     S
C584   O611    1.278   .     A
C584   O613    1.267   .     A
C585   O614    1.283   .     A
C585   O612    1.282   .     A
C588   H608    1.082   .     S
C589   H599    1.111   .     S
C589   H600    1.114   .     S
C589   H31     1.109   1_556 S
C589   O102    1.412   1_556 S
C590   H609    1.076   .     S
C591   C592    1.422   .     A
C591   C77     1.417   1_556 S
C591   C80     1.427   1_556 S
C592   C596    1.410   .     A
C594   C595    1.391   .     A
C594   C73     1.400   1_556 S
C594   C80     1.424   1_556 S
C595   H605    1.084   .     S
C595   C596    1.382   .     A
C596   H598    1.081   .     S
H602   C635    1.086   .     S
H603   C921    1.088   1_545 S
H604   C751    1.086   .     S
H606   C73     1.084   1_556 S
O610   Zn627   1.933   .     S
O610   Zn624   1.960   .     S
O610   Zn626   1.923   .     S
O610   Zn625   1.952   .     S
O611   Zn625   1.929   .     S
O612   Zn627   1.943   .     S
O613   Zn626   1.943   .     S
O614   Zn624   1.930   .     S
O616   Zn624   1.928   .     S
O617   Zn627   1.926   .     S
O618   Zn625   1.925   .     S
O619   Zn626   1.938   .     S
O620   Zn627   1.934   .     S
O621   Zn624   1.920   .     S
O622   Zn625   1.933   .     S
O623   Zn626   1.931   .     S
C629   O677    1.272   .     A
C629   O675    1.273   .     A
C629   C635    1.438   .     S
C630   C644    1.394   .     A
C630   H664    1.077   .     S
C630   C650    1.412   .     A
C631   C643    1.386   .     A
C631   C644    1.397   .     A
C631   H654    1.084   .     S
C632   O676    1.278   .     A
C632   O678    1.278   .     A
C632   C634    1.458   .     S
C633   C649    1.415   .     A
C633   C645    1.402   .     A
C633   C642    1.475   .     S
C634   Br514   1.929   1_655 S
C634   C521    1.339   1_655 S
C636   C639    1.452   .     S
C636   C808    1.332   .     S
C636   H831    1.088   .     S
C637   C638    1.436   .     S
C637   C978    1.332   1_545 S
C637   H1003   1.086   1_545 S
C638   O673    1.280   .     A
C638   O679    1.280   .     A
C639   O680    1.269   .     A
C639   O674    1.268   .     A
C640   C645    1.405   .     A
C640   C134    1.395   1_556 S
C640   O159    1.392   1_556 S
C641   C644    1.452   .     S
C641   O668    1.278   .     A
C641   O670    1.267   .     A
C642   O671    1.283   .     A
C642   O669    1.282   .     A
C645   H665    1.082   .     S
C646   H656    1.111   .     S
C646   H657    1.114   .     S
C646   H88     1.109   1_556 S
C646   O159    1.412   1_556 S
C647   H666    1.076   .     S
C648   C649    1.422   .     A
C648   C134    1.417   1_556 S
C648   C137    1.427   1_556 S
C649   C653    1.410   .     A
C651   C652    1.391   .     A
C651   C130    1.400   1_556 S
C651   C137    1.424   1_556 S
C652   H662    1.084   .     S
C652   C653    1.382   .     A
C653   H655    1.081   .     S
H658   C19     1.109   1_655 S
H659   C521    1.086   1_655 S
H660   C978    1.088   1_545 S
H661   C808    1.086   .     S
H663   C130    1.084   1_556 S
O667   Zn684   1.933   .     S
O667   Zn681   1.960   .     S
O667   Zn683   1.923   .     S
O667   Zn682   1.952   .     S
O668   Zn682   1.929   .     S
O669   Zn684   1.943   .     S
O670   Zn683   1.943   .     S
O671   Zn681   1.930   .     S
O673   Zn681   1.928   .     S
O674   Zn684   1.926   .     S
O675   Zn682   1.925   .     S
O676   Zn683   1.938   .     S
O677   Zn684   1.934   .     S
O678   Zn681   1.920   .     S
O679   Zn682   1.933   .     S
O680   Zn683   1.931   .     S
Br685  C805    1.929   1_455 S
C686   O734    1.272   .     A
C686   O732    1.273   .     A
C686   C692    1.438   .     S
C687   C701    1.394   .     A
C687   H721    1.077   .     S
C687   C707    1.412   .     A
C688   C700    1.386   .     A
C688   C701    1.397   .     A
C688   H711    1.084   .     S
C689   O733    1.278   .     A
C689   O735    1.278   .     A
C689   C691    1.458   .     S
C690   C706    1.415   .     A
C690   C702    1.402   .     A
C690   C699    1.475   .     S
C691   Br742   1.929   .     S
C691   C749    1.339   .     S
C692   C805    1.339   1_455 S
C692   H830    1.086   1_455 S
C693   C696    1.452   .     S
C693   C865    1.332   .     S
C693   H888    1.088   .     S
C694   C695    1.436   .     S
C695   O730    1.280   .     A
C695   O736    1.280   .     A
C696   O737    1.269   .     A
C696   O731    1.268   .     A
C697   C702    1.405   .     A
C697   C191    1.395   1_556 S
C697   O216    1.392   1_556 S
C698   C701    1.452   .     S
C698   O725    1.278   .     A
C698   O727    1.267   .     A
C699   O728    1.283   .     A
C699   O726    1.282   .     A
C702   H722    1.082   .     S
C703   H713    1.111   .     S
C703   H714    1.114   .     S
C703   H316    1.109   1_456 S
C703   O216    1.412   1_556 S
C704   H723    1.076   .     S
C705   C706    1.422   .     A
C705   C191    1.417   1_556 S
C705   C194    1.427   1_556 S
C706   C710    1.410   .     A
C708   C709    1.391   .     A
C708   C187    1.400   1_556 S
C708   C194    1.424   1_556 S
C709   H719    1.084   .     S
C709   C710    1.382   .     A
C710   H712    1.081   .     S
H716   C749    1.086   .     S
H718   C865    1.086   .     S
H720   C187    1.084   1_556 S
O724   Zn741   1.933   .     S
O724   Zn738   1.960   .     S
O724   Zn740   1.923   .     S
O724   Zn739   1.952   .     S
O725   Zn739   1.929   .     S
O726   Zn741   1.943   .     S
O727   Zn740   1.943   .     S
O728   Zn738   1.930   .     S
O730   Zn738   1.928   .     S
O731   Zn741   1.926   .     S
O732   Zn739   1.925   .     S
O733   Zn740   1.938   .     S
O734   Zn741   1.934   .     S
O735   Zn738   1.920   .     S
O736   Zn739   1.933   .     S
O737   Zn740   1.931   .     S
C743   O791    1.272   .     A
C743   O789    1.273   .     A
C743   C749    1.438   .     S
C744   C758    1.394   .     A
C744   H778    1.077   .     S
C744   C764    1.412   .     A
C745   C757    1.386   .     A
C745   C758    1.397   .     A
C745   H768    1.084   .     S
C746   O790    1.278   .     A
C746   O792    1.278   .     A
C746   C748    1.458   .     S
C747   C763    1.415   .     A
C747   C759    1.402   .     A
C747   C756    1.475   .     S
C748   Br799   1.929   .     S
C748   C806    1.339   .     S
C750   C753    1.452   .     S
C750   C922    1.332   .     S
C750   H945    1.088   .     S
C751   C752    1.436   .     S
C752   O787    1.280   .     A
C752   O793    1.280   .     A
C753   O794    1.269   .     A
C753   O788    1.268   .     A
C754   C759    1.405   .     A
C754   C248    1.395   1_556 S
C754   O273    1.392   1_556 S
C755   C758    1.452   .     S
C755   O782    1.278   .     A
C755   O784    1.267   .     A
C756   O785    1.283   .     A
C756   O783    1.282   .     A
C759   H779    1.082   .     S
C760   H770    1.111   .     S
C760   H771    1.114   .     S
C760   H202    1.109   1_556 S
C760   O273    1.412   1_556 S
C761   H780    1.076   .     S
C762   C763    1.422   .     A
C762   C248    1.417   1_556 S
C762   C251    1.427   1_556 S
C763   C767    1.410   .     A
C765   C766    1.391   .     A
C765   C244    1.400   1_556 S
C765   C251    1.424   1_556 S
C766   H776    1.084   .     S
C766   C767    1.382   .     A
C767   H769    1.081   .     S
H773   C806    1.086   .     S
H775   C922    1.086   .     S
H777   C244    1.084   1_556 S
O781   Zn798   1.933   .     S
O781   Zn795   1.960   .     S
O781   Zn797   1.923   .     S
O781   Zn796   1.952   .     S
O782   Zn796   1.929   .     S
O783   Zn798   1.943   .     S
O784   Zn797   1.943   .     S
O785   Zn795   1.930   .     S
O787   Zn795   1.928   .     S
O788   Zn798   1.926   .     S
O789   Zn796   1.925   .     S
O790   Zn797   1.938   .     S
O791   Zn798   1.934   .     S
O792   Zn795   1.920   .     S
O793   Zn796   1.933   .     S
O794   Zn797   1.931   .     S
C800   O848    1.272   .     A
C800   O846    1.273   .     A
C800   C806    1.438   .     S
C801   C815    1.394   .     A
C801   H835    1.077   .     S
C801   C821    1.412   .     A
C802   C814    1.386   .     A
C802   C815    1.397   .     A
C802   H825    1.084   .     S
C803   O847    1.278   .     A
C803   O849    1.278   .     A
C803   C805    1.458   .     S
C804   C820    1.415   .     A
C804   C816    1.402   .     A
C804   C813    1.475   .     S
C805   Br685   1.929   1_655 S
C805   C692    1.339   1_655 S
C807   C810    1.452   .     S
C807   C979    1.332   .     S
C807   H1002   1.088   .     S
C808   C809    1.436   .     S
C809   O844    1.280   .     A
C809   O850    1.280   .     A
C810   O851    1.269   .     A
C810   O845    1.268   .     A
C811   C816    1.405   .     A
C811   C305    1.395   1_556 S
C811   O330    1.392   1_556 S
C812   C815    1.452   .     S
C812   O839    1.278   .     A
C812   O841    1.267   .     A
C813   O842    1.283   .     A
C813   O840    1.282   .     A
C816   H836    1.082   .     S
C817   H827    1.111   .     S
C817   H828    1.114   .     S
C817   H259    1.109   1_556 S
C817   O330    1.412   1_556 S
C818   H837    1.076   .     S
C819   C820    1.422   .     A
C819   C305    1.417   1_556 S
C819   C308    1.427   1_556 S
C820   C824    1.410   .     A
C822   C823    1.391   .     A
C822   C301    1.400   1_556 S
C822   C308    1.424   1_556 S
C823   H833    1.084   .     S
C823   C824    1.382   .     A
C824   H826    1.081   .     S
H829   C190    1.109   1_655 S
H830   C692    1.086   1_655 S
H832   C979    1.086   .     S
H834   C301    1.084   1_556 S
O838   Zn855   1.933   .     S
O838   Zn852   1.960   .     S
O838   Zn854   1.923   .     S
O838   Zn853   1.952   .     S
O839   Zn853   1.929   .     S
O840   Zn855   1.943   .     S
O841   Zn854   1.943   .     S
O842   Zn852   1.930   .     S
O844   Zn852   1.928   .     S
O845   Zn855   1.926   .     S
O846   Zn853   1.925   .     S
O847   Zn854   1.938   .     S
O848   Zn855   1.934   .     S
O849   Zn852   1.920   .     S
O850   Zn853   1.933   .     S
O851   Zn854   1.931   .     S
Br856  C976    1.929   1_455 S
C857   O905    1.272   .     A
C857   O903    1.273   .     A
C857   C863    1.438   .     S
C858   C872    1.394   .     A
C858   H892    1.077   .     S
C858   C878    1.412   .     A
C859   C871    1.386   .     A
C859   C872    1.397   .     A
C859   H882    1.084   .     S
C860   O904    1.278   .     A
C860   O906    1.278   .     A
C860   C862    1.458   .     S
C861   C877    1.415   .     A
C861   C873    1.402   .     A
C861   C870    1.475   .     S
C862   Br913   1.929   .     S
C862   C920    1.339   .     S
C863   C976    1.339   1_455 S
C863   H1001   1.086   1_455 S
C864   C867    1.452   .     S
C864   C523    1.332   1_565 S
C864   H546    1.088   1_565 S
C865   C866    1.436   .     S
C866   O901    1.280   .     A
C866   O907    1.280   .     A
C867   O908    1.269   .     A
C867   O902    1.268   .     A
C868   C873    1.405   .     A
C868   C362    1.395   1_556 S
C868   O387    1.392   1_556 S
C869   C872    1.452   .     S
C869   O896    1.278   .     A
C869   O898    1.267   .     A
C870   O899    1.283   .     A
C870   O897    1.282   .     A
C873   H893    1.082   .     S
C874   H884    1.111   .     S
C874   H885    1.114   .     S
C874   H487    1.109   1_456 S
C874   O387    1.412   1_556 S
C875   H894    1.076   .     S
C876   C877    1.422   .     A
C876   C362    1.417   1_556 S
C876   C365    1.427   1_556 S
C877   C881    1.410   .     A
C879   C880    1.391   .     A
C879   C358    1.400   1_556 S
C879   C365    1.424   1_556 S
C880   H890    1.084   .     S
C880   C881    1.382   .     A
C881   H883    1.081   .     S
H887   C920    1.086   .     S
H889   C523    1.086   1_565 S
H891   C358    1.084   1_556 S
O895   Zn912   1.933   .     S
O895   Zn909   1.960   .     S
O895   Zn911   1.923   .     S
O895   Zn910   1.952   .     S
O896   Zn910   1.929   .     S
O897   Zn912   1.943   .     S
O898   Zn911   1.943   .     S
O899   Zn909   1.930   .     S
O901   Zn909   1.928   .     S
O902   Zn912   1.926   .     S
O903   Zn910   1.925   .     S
O904   Zn911   1.938   .     S
O905   Zn912   1.934   .     S
O906   Zn909   1.920   .     S
O907   Zn910   1.933   .     S
O908   Zn911   1.931   .     S
C914   O962    1.272   .     A
C914   O960    1.273   .     A
C914   C920    1.438   .     S
C915   C929    1.394   .     A
C915   H949    1.077   .     S
C915   C935    1.412   .     A
C916   C928    1.386   .     A
C916   C929    1.397   .     A
C916   H939    1.084   .     S
C917   O961    1.278   .     A
C917   O963    1.278   .     A
C917   C919    1.458   .     S
C918   C934    1.415   .     A
C918   C930    1.402   .     A
C918   C927    1.475   .     S
C919   Br970   1.929   .     S
C919   C977    1.339   .     S
C921   C924    1.452   .     S
C921   C580    1.332   1_565 S
C921   H603    1.088   1_565 S
C922   C923    1.436   .     S
C923   O958    1.280   .     A
C923   O964    1.280   .     A
C924   O965    1.269   .     A
C924   O959    1.268   .     A
C925   C930    1.405   .     A
C925   C419    1.395   1_556 S
C925   O444    1.392   1_556 S
C926   C929    1.452   .     S
C926   O953    1.278   .     A
C926   O955    1.267   .     A
C927   O956    1.283   .     A
C927   O954    1.282   .     A
C930   H950    1.082   .     S
C931   H941    1.111   .     S
C931   H942    1.114   .     S
C931   H373    1.109   1_556 S
C931   O444    1.412   1_556 S
C932   H951    1.076   .     S
C933   C934    1.422   .     A
C933   C419    1.417   1_556 S
C933   C422    1.427   1_556 S
C934   C938    1.410   .     A
C936   C937    1.391   .     A
C936   C415    1.400   1_556 S
C936   C422    1.424   1_556 S
C937   H947    1.084   .     S
C937   C938    1.382   .     A
C938   H940    1.081   .     S
H944   C977    1.086   .     S
H946   C580    1.086   1_565 S
H948   C415    1.084   1_556 S
O952   Zn969   1.933   .     S
O952   Zn966   1.960   .     S
O952   Zn968   1.923   .     S
O952   Zn967   1.952   .     S
O953   Zn967   1.929   .     S
O954   Zn969   1.943   .     S
O955   Zn968   1.943   .     S
O956   Zn966   1.930   .     S
O958   Zn966   1.928   .     S
O959   Zn969   1.926   .     S
O960   Zn967   1.925   .     S
O961   Zn968   1.938   .     S
O962   Zn969   1.934   .     S
O963   Zn966   1.920   .     S
O964   Zn967   1.933   .     S
O965   Zn968   1.931   .     S
C971   O1019   1.272   .     A
C971   O1017   1.273   .     A
C971   C977    1.438   .     S
C972   C986    1.394   .     A
C972   H1006   1.077   .     S
C972   C992    1.412   .     A
C973   C985    1.386   .     A
C973   C986    1.397   .     A
C973   H996    1.084   .     S
C974   O1018   1.278   .     A
C974   O1020   1.278   .     A
C974   C976    1.458   .     S
C975   C991    1.415   .     A
C975   C987    1.402   .     A
C975   C984    1.475   .     S
C976   Br856   1.929   1_655 S
C976   C863    1.339   1_655 S
C978   C981    1.452   .     S
C978   C637    1.332   1_565 S
C978   H660    1.088   1_565 S
C979   C980    1.436   .     S
C980   O1015   1.280   .     A
C980   O1021   1.280   .     A
C981   O1022   1.269   .     A
C981   O1016   1.268   .     A
C982   C987    1.405   .     A
C982   C476    1.395   1_556 S
C982   O501    1.392   1_556 S
C983   C986    1.452   .     S
C983   O1010   1.278   .     A
C983   O1012   1.267   .     A
C984   O1013   1.283   .     A
C984   O1011   1.282   .     A
C987   H1007   1.082   .     S
C988   H998    1.111   .     S
C988   H999    1.114   .     S
C988   H430    1.109   1_556 S
C988   O501    1.412   1_556 S
C989   H1008   1.076   .     S
C990   C991    1.422   .     A
C990   C476    1.417   1_556 S
C990   C479    1.427   1_556 S
C991   C995    1.410   .     A
C993   C994    1.391   .     A
C993   C472    1.400   1_556 S
C993   C479    1.424   1_556 S
C994   H1004   1.084   .     S
C994   C995    1.382   .     A
C995   H997    1.081   .     S
H1000  C361    1.109   1_655 S
H1001  C863    1.086   1_655 S
H1003  C637    1.086   1_565 S
H1005  C472    1.084   1_556 S
O1009  Zn1026  1.933   .     S
O1009  Zn1023  1.960   .     S
O1009  Zn1025  1.923   .     S
O1009  Zn1024  1.952   .     S
O1010  Zn1024  1.929   .     S
O1011  Zn1026  1.943   .     S
O1012  Zn1025  1.943   .     S
O1013  Zn1023  1.930   .     S
O1015  Zn1023  1.928   .     S
O1016  Zn1026  1.926   .     S
O1017  Zn1024  1.925   .     S
O1018  Zn1025  1.938   .     S
O1019  Zn1026  1.934   .     S
O1020  Zn1023  1.920   .     S
O1021  Zn1024  1.933   .     S
O1022  Zn1025  1.931   .     S
