data_str_m1_o10_o18_pcu_sym.242
_audit_creation_date              2020-01-03
_audit_creation_method            'Materials Studio'
_symmetry_space_group_name_H-M    'P1'
_symmetry_Int_Tables_number       1
_symmetry_cell_setting            triclinic
loop_
_symmetry_equiv_pos_as_xyz
  x,y,z
_cell_length_a                    32.8093
_cell_length_b                    32.3927
_cell_length_c                    35.7760
_cell_angle_alpha                 97.9495
_cell_angle_beta                  72.5038
_cell_angle_gamma                 98.3579
loop_
_atom_site_label
_atom_site_type_symbol
_atom_site_fract_x
_atom_site_fract_y
_atom_site_fract_z
_atom_site_U_iso_or_equiv
_atom_site_adp_type
_atom_site_occupancy
C1     C     0.05270   0.16019   0.25916   0.00000  Uiso   1.00
C2     C     0.19141   0.12727   0.46128   0.00000  Uiso   1.00
C3     C     0.20773   0.10376   0.48187   0.00000  Uiso   1.00
C4     C     0.28124   0.17277   0.24063   0.00000  Uiso   1.00
C5     C     0.20092   0.11328   0.02231   0.00000  Uiso   1.00
C6     C     0.17923   0.14835   0.04209   0.00000  Uiso   1.00
C7     C     0.21725   0.08908   0.04268   0.00000  Uiso   1.00
C8     C     0.21269   0.09928   0.08273   0.00000  Uiso   1.00
C9     C     0.18448   0.16461   0.07970   0.00000  Uiso   1.00
C10    C     0.32747   0.17106   0.23470   0.00000  Uiso   1.00
C11    C     0.00748   0.15982   0.26428   0.00000  Uiso   1.00
C12    C     0.12016   0.23306   0.41812   0.00000  Uiso   1.00
C13    C     0.18108   0.32235   0.23827   0.00000  Uiso   1.00
C14    C     0.15160   0.01217   0.26230   0.00000  Uiso   1.00
C15    C     0.15589   0.05624   0.25901   0.00000  Uiso   1.00
C16    C     0.17690   0.27773   0.24137   0.00000  Uiso   1.00
C17    C     0.18764   0.14611   0.14403   0.00000  Uiso   1.00
C18    C     0.14493   0.18721   0.35617   0.00000  Uiso   1.00
C19    C     0.13521   0.19508   0.39921   0.00000  Uiso   1.00
C20    C     0.19648   0.13730   0.10133   0.00000  Uiso   1.00
C21    C     0.11032   0.24143   0.45900   0.00000  Uiso   1.00
C22    C     0.02786   0.17987   0.19523   0.00000  Uiso   1.00
C23    C     0.14103   0.16494   0.42150   0.00000  Uiso   1.00
C24    C     0.01199   0.18978   0.16175   0.00000  Uiso   1.00
C25    C     0.18609   0.21185   0.09330   0.00000  Uiso   1.00
C26    C     0.21747   0.23814   0.06217   0.00000  Uiso   1.00
C27    C     0.14176   0.17773   0.46081   0.00000  Uiso   1.00
C28    C     0.12072   0.21330   0.48079   0.00000  Uiso   1.00
C29    C     0.16234   0.15647   0.48115   0.00000  Uiso   1.00
C30    C     0.15568   0.16668   0.02227   0.00000  Uiso   1.00
C31    C     0.12416   0.19328   0.04240   0.00000  Uiso   1.00
C32    C     0.10932   0.21848   0.02206   0.00000  Uiso   1.00
H33    H     0.08806   0.24117   0.03908   0.00000  Uiso   1.00
H34    H     0.33206   0.22049   0.16899   0.00000  Uiso   1.00
H35    H     0.03956   0.19212   0.13471   0.00000  Uiso   1.00
H36    H     0.05154   0.20648   0.20076   0.00000  Uiso   1.00
H37    H     0.04538   0.15178   0.18367   0.00000  Uiso   1.00
H38    H     0.32071   0.14931   0.36938   0.00000  Uiso   1.00
H39    H     0.24961   0.22651   0.05286   0.00000  Uiso   1.00
H40    H     0.20589   0.23730   0.03597   0.00000  Uiso   1.00
H41    H     0.22087   0.27136   0.07476   0.00000  Uiso   1.00
H42    H     0.15431   0.22359   0.10309   0.00000  Uiso   1.00
H43    H     0.19772   0.21969   0.11955   0.00000  Uiso   1.00
H44    H     0.23239   0.06147   0.02749   0.00000  Uiso   1.00
H45    H     0.19749   0.02147   0.15142   0.00000  Uiso   1.00
H46    H     0.11789   0.33054   0.43593   0.00000  Uiso   1.00
H47    H     0.19488   0.11112   0.36920   0.00000  Uiso   1.00
H48    H     0.20834   0.00312   0.21633   0.00000  Uiso   1.00
H49    H     0.12391   0.33218   0.28427   0.00000  Uiso   1.00
H50    H     0.22735   0.07925   0.46580   0.00000  Uiso   1.00
H51    H     0.11480   0.25563   0.40091   0.00000  Uiso   1.00
H52    H     0.11051   0.19463   0.07387   0.00000  Uiso   1.00
H53    H     0.20188   0.12221   0.42976   0.00000  Uiso   1.00
H54    H     0.32113   0.16434   0.15516   0.00000  Uiso   1.00
O55    O     0.16667   0.16667   0.25000   0.00000  Uiso   1.00
O56    O     0.15693   0.12393   0.16625   0.00000  Uiso   1.00
O57    O     0.12687   0.20646   0.33749   0.00000  Uiso   1.00
O58    O     0.21088   0.17493   0.15877   0.00000  Uiso   1.00
O59    O     0.17198   0.16135   0.33749   0.00000  Uiso   1.00
O60    O     0.28174   0.18936   0.32959   0.00000  Uiso   1.00
O61    O     0.28031   0.11277   0.31500   0.00000  Uiso   1.00
O62    O     0.00737   0.15296   0.34281   0.00000  Uiso   1.00
O63    O     0.25555   0.03327   0.07994   0.00000  Uiso   1.00
O64    O     0.25659   0.08992   0.13286   0.00000  Uiso   1.00
O65    O     0.18601   0.03997   0.13809   0.00000  Uiso   1.00
O66    O     0.17849   0.08101   0.27821   0.00000  Uiso   1.00
O67    O     0.04288   0.27848   0.00612   0.00000  Uiso   1.00
O68    O     0.11424   0.31251   0.00699   0.00000  Uiso   1.00
O69    O     0.08751   0.31915   0.44691   0.00000  Uiso   1.00
O70    O     0.11095   0.08672   0.44227   0.00000  Uiso   1.00
O71    O     0.09462   0.10642   0.38544   0.00000  Uiso   1.00
O72    O     0.17139   0.08817   0.37610   0.00000  Uiso   1.00
O73    O     0.14581   0.26136   0.26767   0.00000  Uiso   1.00
O74    O     0.07452   0.13251   0.23607   0.00000  Uiso   1.00
O75    O     0.26785   0.19179   0.21805   0.00000  Uiso   1.00
O76    O     0.06990   0.18960   0.27820   0.00000  Uiso   1.00
O77    O     0.25440   0.15277   0.26767   0.00000  Uiso   1.00
O78    O     0.13800   0.06903   0.23607   0.00000  Uiso   1.00
O79    O     0.20437   0.25527   0.21806   0.00000  Uiso   1.00
S80    S     0.30881   0.15364   0.31385   0.00000  Uiso   1.00
S81    S     0.22967   0.06505   0.10837   0.00000  Uiso   1.00
S82    S     0.08820   0.28875   0.48118   0.00000  Uiso   1.00
S83    S     0.12853   0.11051   0.40655   0.00000  Uiso   1.00
Zn84   Zn    0.19244   0.14090   0.28278   0.00000  Uiso   1.00
Zn85   Zn    0.13459   0.12378   0.22258   0.00000  Uiso   1.00
Zn86   Zn    0.21166   0.19664   0.21188   0.00000  Uiso   1.00
Zn87   Zn    0.12798   0.20535   0.28277   0.00000  Uiso   1.00
C88    C     0.38603   0.16019   0.25916   0.00000  Uiso   1.00
C89    C     0.52474   0.12727   0.46128   0.00000  Uiso   1.00
C90    C     0.54106   0.10376   0.48187   0.00000  Uiso   1.00
C91    C     0.61457   0.17277   0.24063   0.00000  Uiso   1.00
C92    C     0.53425   0.11328   0.02231   0.00000  Uiso   1.00
C93    C     0.51256   0.14835   0.04209   0.00000  Uiso   1.00
C94    C     0.55058   0.08908   0.04268   0.00000  Uiso   1.00
C95    C     0.54603   0.09928   0.08273   0.00000  Uiso   1.00
C96    C     0.51782   0.16461   0.07970   0.00000  Uiso   1.00
C97    C     0.66080   0.17106   0.23470   0.00000  Uiso   1.00
C98    C     0.34082   0.15982   0.26428   0.00000  Uiso   1.00
C99    C     0.45349   0.23306   0.41812   0.00000  Uiso   1.00
C100   C     0.51441   0.32235   0.23827   0.00000  Uiso   1.00
C101   C     0.48494   0.01217   0.26230   0.00000  Uiso   1.00
C102   C     0.48922   0.05624   0.25901   0.00000  Uiso   1.00
C103   C     0.51024   0.27773   0.24137   0.00000  Uiso   1.00
C104   C     0.52097   0.14611   0.14403   0.00000  Uiso   1.00
C105   C     0.47826   0.18721   0.35617   0.00000  Uiso   1.00
C106   C     0.46855   0.19508   0.39921   0.00000  Uiso   1.00
C107   C     0.52981   0.13730   0.10133   0.00000  Uiso   1.00
C108   C     0.44365   0.24143   0.45900   0.00000  Uiso   1.00
C109   C     0.36119   0.17987   0.19523   0.00000  Uiso   1.00
C110   C     0.47437   0.16494   0.42150   0.00000  Uiso   1.00
C111   C     0.34533   0.18978   0.16175   0.00000  Uiso   1.00
C112   C     0.51943   0.21185   0.09330   0.00000  Uiso   1.00
C113   C     0.55081   0.23814   0.06217   0.00000  Uiso   1.00
C114   C     0.47510   0.17773   0.46081   0.00000  Uiso   1.00
C115   C     0.45405   0.21330   0.48079   0.00000  Uiso   1.00
C116   C     0.49568   0.15647   0.48115   0.00000  Uiso   1.00
C117   C     0.48901   0.16668   0.02227   0.00000  Uiso   1.00
C118   C     0.45750   0.19328   0.04240   0.00000  Uiso   1.00
C119   C     0.44265   0.21848   0.02206   0.00000  Uiso   1.00
H120   H     0.42139   0.24117   0.03908   0.00000  Uiso   1.00
H121   H     0.66539   0.22049   0.16899   0.00000  Uiso   1.00
H122   H     0.37289   0.19212   0.13471   0.00000  Uiso   1.00
H123   H     0.38488   0.20648   0.20076   0.00000  Uiso   1.00
H124   H     0.37871   0.15178   0.18367   0.00000  Uiso   1.00
H125   H     0.65405   0.14931   0.36938   0.00000  Uiso   1.00
H126   H     0.58295   0.22651   0.05286   0.00000  Uiso   1.00
H127   H     0.53923   0.23730   0.03597   0.00000  Uiso   1.00
H128   H     0.55420   0.27136   0.07476   0.00000  Uiso   1.00
H129   H     0.48764   0.22359   0.10309   0.00000  Uiso   1.00
H130   H     0.53105   0.21969   0.11955   0.00000  Uiso   1.00
H131   H     0.56573   0.06147   0.02749   0.00000  Uiso   1.00
H132   H     0.53082   0.02147   0.15142   0.00000  Uiso   1.00
H133   H     0.45122   0.33054   0.43593   0.00000  Uiso   1.00
H134   H     0.52821   0.11112   0.36920   0.00000  Uiso   1.00
H135   H     0.54167   0.00312   0.21633   0.00000  Uiso   1.00
H136   H     0.45725   0.33218   0.28427   0.00000  Uiso   1.00
H137   H     0.56069   0.07925   0.46580   0.00000  Uiso   1.00
H138   H     0.44814   0.25563   0.40091   0.00000  Uiso   1.00
H139   H     0.44385   0.19463   0.07387   0.00000  Uiso   1.00
H140   H     0.53522   0.12221   0.42976   0.00000  Uiso   1.00
H141   H     0.65446   0.16434   0.15516   0.00000  Uiso   1.00
O142   O     0.50000   0.16667   0.25000   0.00000  Uiso   1.00
O143   O     0.49027   0.12393   0.16625   0.00000  Uiso   1.00
O144   O     0.46020   0.20646   0.33749   0.00000  Uiso   1.00
O145   O     0.54421   0.17493   0.15877   0.00000  Uiso   1.00
O146   O     0.50532   0.16135   0.33749   0.00000  Uiso   1.00
O147   O     0.61508   0.18936   0.32959   0.00000  Uiso   1.00
O148   O     0.61364   0.11277   0.31500   0.00000  Uiso   1.00
O149   O     0.34070   0.15296   0.34281   0.00000  Uiso   1.00
O150   O     0.58888   0.03327   0.07994   0.00000  Uiso   1.00
O151   O     0.58993   0.08992   0.13286   0.00000  Uiso   1.00
O152   O     0.51934   0.03997   0.13809   0.00000  Uiso   1.00
O153   O     0.51182   0.08101   0.27821   0.00000  Uiso   1.00
O154   O     0.37622   0.27848   0.00612   0.00000  Uiso   1.00
O155   O     0.44757   0.31251   0.00699   0.00000  Uiso   1.00
O156   O     0.42084   0.31915   0.44691   0.00000  Uiso   1.00
O157   O     0.44428   0.08672   0.44227   0.00000  Uiso   1.00
O158   O     0.42795   0.10642   0.38544   0.00000  Uiso   1.00
O159   O     0.50472   0.08817   0.37610   0.00000  Uiso   1.00
O160   O     0.47914   0.26136   0.26767   0.00000  Uiso   1.00
O161   O     0.40785   0.13251   0.23607   0.00000  Uiso   1.00
O162   O     0.60119   0.19179   0.21805   0.00000  Uiso   1.00
O163   O     0.40323   0.18960   0.27820   0.00000  Uiso   1.00
O164   O     0.58773   0.15277   0.26767   0.00000  Uiso   1.00
O165   O     0.47133   0.06903   0.23607   0.00000  Uiso   1.00
O166   O     0.53771   0.25527   0.21806   0.00000  Uiso   1.00
S167   S     0.64215   0.15364   0.31385   0.00000  Uiso   1.00
S168   S     0.56300   0.06505   0.10837   0.00000  Uiso   1.00
S169   S     0.42153   0.28875   0.48118   0.00000  Uiso   1.00
S170   S     0.46186   0.11051   0.40655   0.00000  Uiso   1.00
Zn171  Zn    0.52577   0.14090   0.28278   0.00000  Uiso   1.00
Zn172  Zn    0.46792   0.12378   0.22258   0.00000  Uiso   1.00
Zn173  Zn    0.54500   0.19664   0.21188   0.00000  Uiso   1.00
Zn174  Zn    0.46131   0.20535   0.28277   0.00000  Uiso   1.00
C175   C     0.71936   0.16019   0.25916   0.00000  Uiso   1.00
C176   C     0.85808   0.12727   0.46128   0.00000  Uiso   1.00
C177   C     0.87439   0.10376   0.48187   0.00000  Uiso   1.00
C178   C     0.94790   0.17277   0.24063   0.00000  Uiso   1.00
C179   C     0.86758   0.11328   0.02231   0.00000  Uiso   1.00
C180   C     0.84590   0.14835   0.04209   0.00000  Uiso   1.00
C181   C     0.88392   0.08908   0.04268   0.00000  Uiso   1.00
C182   C     0.87936   0.09928   0.08273   0.00000  Uiso   1.00
C183   C     0.85115   0.16461   0.07970   0.00000  Uiso   1.00
C184   C     0.99414   0.17106   0.23470   0.00000  Uiso   1.00
C185   C     0.67415   0.15982   0.26428   0.00000  Uiso   1.00
C186   C     0.78682   0.23306   0.41812   0.00000  Uiso   1.00
C187   C     0.84774   0.32235   0.23827   0.00000  Uiso   1.00
C188   C     0.81827   0.01217   0.26230   0.00000  Uiso   1.00
C189   C     0.82256   0.05624   0.25901   0.00000  Uiso   1.00
C190   C     0.84357   0.27773   0.24137   0.00000  Uiso   1.00
C191   C     0.85431   0.14611   0.14403   0.00000  Uiso   1.00
C192   C     0.81159   0.18721   0.35617   0.00000  Uiso   1.00
C193   C     0.80188   0.19508   0.39921   0.00000  Uiso   1.00
C194   C     0.86314   0.13730   0.10133   0.00000  Uiso   1.00
C195   C     0.77698   0.24143   0.45900   0.00000  Uiso   1.00
C196   C     0.69453   0.17987   0.19523   0.00000  Uiso   1.00
C197   C     0.80770   0.16494   0.42150   0.00000  Uiso   1.00
C198   C     0.67866   0.18978   0.16175   0.00000  Uiso   1.00
C199   C     0.85276   0.21185   0.09330   0.00000  Uiso   1.00
C200   C     0.88414   0.23814   0.06217   0.00000  Uiso   1.00
C201   C     0.80843   0.17773   0.46081   0.00000  Uiso   1.00
C202   C     0.78739   0.21330   0.48079   0.00000  Uiso   1.00
C203   C     0.82901   0.15647   0.48115   0.00000  Uiso   1.00
C204   C     0.82235   0.16668   0.02227   0.00000  Uiso   1.00
C205   C     0.79083   0.19328   0.04240   0.00000  Uiso   1.00
C206   C     0.77598   0.21848   0.02206   0.00000  Uiso   1.00
H207   H     0.75472   0.24117   0.03908   0.00000  Uiso   1.00
H208   H     0.99873   0.22049   0.16899   0.00000  Uiso   1.00
H209   H     0.70623   0.19212   0.13471   0.00000  Uiso   1.00
H210   H     0.71821   0.20648   0.20076   0.00000  Uiso   1.00
H211   H     0.71204   0.15178   0.18367   0.00000  Uiso   1.00
H212   H     0.98738   0.14931   0.36938   0.00000  Uiso   1.00
H213   H     0.91628   0.22651   0.05286   0.00000  Uiso   1.00
H214   H     0.87256   0.23730   0.03597   0.00000  Uiso   1.00
H215   H     0.88754   0.27136   0.07476   0.00000  Uiso   1.00
H216   H     0.82097   0.22359   0.10309   0.00000  Uiso   1.00
H217   H     0.86439   0.21969   0.11955   0.00000  Uiso   1.00
H218   H     0.89906   0.06147   0.02749   0.00000  Uiso   1.00
H219   H     0.86416   0.02147   0.15142   0.00000  Uiso   1.00
H220   H     0.78455   0.33054   0.43593   0.00000  Uiso   1.00
H221   H     0.86154   0.11112   0.36920   0.00000  Uiso   1.00
H222   H     0.87501   0.00312   0.21633   0.00000  Uiso   1.00
H223   H     0.79058   0.33218   0.28427   0.00000  Uiso   1.00
H224   H     0.89402   0.07925   0.46580   0.00000  Uiso   1.00
H225   H     0.78147   0.25563   0.40091   0.00000  Uiso   1.00
H226   H     0.77718   0.19463   0.07387   0.00000  Uiso   1.00
H227   H     0.86855   0.12221   0.42976   0.00000  Uiso   1.00
H228   H     0.98779   0.16434   0.15516   0.00000  Uiso   1.00
O229   O     0.83333   0.16667   0.25000   0.00000  Uiso   1.00
O230   O     0.82360   0.12393   0.16625   0.00000  Uiso   1.00
O231   O     0.79354   0.20646   0.33749   0.00000  Uiso   1.00
O232   O     0.87755   0.17493   0.15877   0.00000  Uiso   1.00
O233   O     0.83865   0.16135   0.33749   0.00000  Uiso   1.00
O234   O     0.94841   0.18936   0.32959   0.00000  Uiso   1.00
O235   O     0.94697   0.11277   0.31500   0.00000  Uiso   1.00
O236   O     0.67403   0.15296   0.34281   0.00000  Uiso   1.00
O237   O     0.92222   0.03327   0.07994   0.00000  Uiso   1.00
O238   O     0.92326   0.08992   0.13286   0.00000  Uiso   1.00
O239   O     0.85268   0.03997   0.13809   0.00000  Uiso   1.00
O240   O     0.84515   0.08101   0.27821   0.00000  Uiso   1.00
O241   O     0.70955   0.27848   0.00612   0.00000  Uiso   1.00
O242   O     0.78090   0.31251   0.00699   0.00000  Uiso   1.00
O243   O     0.75417   0.31915   0.44691   0.00000  Uiso   1.00
O244   O     0.77762   0.08672   0.44227   0.00000  Uiso   1.00
O245   O     0.76129   0.10642   0.38544   0.00000  Uiso   1.00
O246   O     0.83805   0.08817   0.37610   0.00000  Uiso   1.00
O247   O     0.81247   0.26136   0.26767   0.00000  Uiso   1.00
O248   O     0.74119   0.13251   0.23607   0.00000  Uiso   1.00
O249   O     0.93452   0.19179   0.21805   0.00000  Uiso   1.00
O250   O     0.73656   0.18960   0.27820   0.00000  Uiso   1.00
O251   O     0.92106   0.15277   0.26767   0.00000  Uiso   1.00
O252   O     0.80467   0.06903   0.23607   0.00000  Uiso   1.00
O253   O     0.87104   0.25527   0.21806   0.00000  Uiso   1.00
S254   S     0.97548   0.15364   0.31385   0.00000  Uiso   1.00
S255   S     0.89633   0.06505   0.10837   0.00000  Uiso   1.00
S256   S     0.75487   0.28875   0.48118   0.00000  Uiso   1.00
S257   S     0.79520   0.11051   0.40655   0.00000  Uiso   1.00
Zn258  Zn    0.85910   0.14090   0.28278   0.00000  Uiso   1.00
Zn259  Zn    0.80125   0.12378   0.22258   0.00000  Uiso   1.00
Zn260  Zn    0.87833   0.19664   0.21188   0.00000  Uiso   1.00
Zn261  Zn    0.79465   0.20535   0.28277   0.00000  Uiso   1.00
C262   C     0.05270   0.49352   0.25916   0.00000  Uiso   1.00
C263   C     0.19141   0.46060   0.46128   0.00000  Uiso   1.00
C264   C     0.20773   0.43709   0.48187   0.00000  Uiso   1.00
C265   C     0.28124   0.50610   0.24063   0.00000  Uiso   1.00
C266   C     0.20092   0.44661   0.02231   0.00000  Uiso   1.00
C267   C     0.17923   0.48168   0.04209   0.00000  Uiso   1.00
C268   C     0.21725   0.42242   0.04268   0.00000  Uiso   1.00
C269   C     0.21269   0.43261   0.08273   0.00000  Uiso   1.00
C270   C     0.18448   0.49795   0.07970   0.00000  Uiso   1.00
C271   C     0.32747   0.50439   0.23470   0.00000  Uiso   1.00
C272   C     0.00748   0.49316   0.26428   0.00000  Uiso   1.00
C273   C     0.12016   0.56639   0.41812   0.00000  Uiso   1.00
C274   C     0.18108   0.65568   0.23827   0.00000  Uiso   1.00
C275   C     0.15160   0.34551   0.26230   0.00000  Uiso   1.00
C276   C     0.15589   0.38958   0.25901   0.00000  Uiso   1.00
C277   C     0.17690   0.61106   0.24137   0.00000  Uiso   1.00
C278   C     0.18764   0.47944   0.14403   0.00000  Uiso   1.00
C279   C     0.14493   0.52055   0.35617   0.00000  Uiso   1.00
C280   C     0.13521   0.52841   0.39921   0.00000  Uiso   1.00
C281   C     0.19648   0.47063   0.10133   0.00000  Uiso   1.00
C282   C     0.11032   0.57476   0.45900   0.00000  Uiso   1.00
C283   C     0.02786   0.51320   0.19523   0.00000  Uiso   1.00
C284   C     0.14103   0.49828   0.42150   0.00000  Uiso   1.00
C285   C     0.01199   0.52312   0.16175   0.00000  Uiso   1.00
C286   C     0.18609   0.54519   0.09330   0.00000  Uiso   1.00
C287   C     0.21747   0.57148   0.06217   0.00000  Uiso   1.00
C288   C     0.14176   0.51107   0.46081   0.00000  Uiso   1.00
C289   C     0.12072   0.54663   0.48079   0.00000  Uiso   1.00
C290   C     0.16234   0.48980   0.48115   0.00000  Uiso   1.00
C291   C     0.15568   0.50001   0.02227   0.00000  Uiso   1.00
C292   C     0.12416   0.52661   0.04240   0.00000  Uiso   1.00
C293   C     0.10932   0.55181   0.02206   0.00000  Uiso   1.00
H294   H     0.08806   0.57450   0.03908   0.00000  Uiso   1.00
H295   H     0.33206   0.55382   0.16899   0.00000  Uiso   1.00
H296   H     0.03956   0.52546   0.13471   0.00000  Uiso   1.00
H297   H     0.05154   0.53981   0.20076   0.00000  Uiso   1.00
H298   H     0.04538   0.48511   0.18367   0.00000  Uiso   1.00
H299   H     0.32071   0.48264   0.36938   0.00000  Uiso   1.00
H300   H     0.24961   0.55984   0.05286   0.00000  Uiso   1.00
H301   H     0.20589   0.57063   0.03597   0.00000  Uiso   1.00
H302   H     0.22087   0.60469   0.07476   0.00000  Uiso   1.00
H303   H     0.15431   0.55692   0.10309   0.00000  Uiso   1.00
H304   H     0.19772   0.55303   0.11955   0.00000  Uiso   1.00
H305   H     0.23239   0.39481   0.02749   0.00000  Uiso   1.00
H306   H     0.19749   0.35481   0.15142   0.00000  Uiso   1.00
H307   H     0.11789   0.66387   0.43593   0.00000  Uiso   1.00
H308   H     0.19488   0.44445   0.36920   0.00000  Uiso   1.00
H309   H     0.20834   0.33645   0.21633   0.00000  Uiso   1.00
H310   H     0.12391   0.66551   0.28427   0.00000  Uiso   1.00
H311   H     0.22735   0.41258   0.46580   0.00000  Uiso   1.00
H312   H     0.11480   0.58897   0.40091   0.00000  Uiso   1.00
H313   H     0.11051   0.52796   0.07387   0.00000  Uiso   1.00
H314   H     0.20188   0.45554   0.42976   0.00000  Uiso   1.00
H315   H     0.32113   0.49767   0.15516   0.00000  Uiso   1.00
O316   O     0.16667   0.50000   0.25000   0.00000  Uiso   1.00
O317   O     0.15693   0.45726   0.16625   0.00000  Uiso   1.00
O318   O     0.12687   0.53979   0.33749   0.00000  Uiso   1.00
O319   O     0.21088   0.50826   0.15877   0.00000  Uiso   1.00
O320   O     0.17198   0.49468   0.33749   0.00000  Uiso   1.00
O321   O     0.28174   0.52269   0.32959   0.00000  Uiso   1.00
O322   O     0.28031   0.44611   0.31500   0.00000  Uiso   1.00
O323   O     0.00737   0.48629   0.34281   0.00000  Uiso   1.00
O324   O     0.25555   0.36660   0.07994   0.00000  Uiso   1.00
O325   O     0.25659   0.42325   0.13286   0.00000  Uiso   1.00
O326   O     0.18601   0.37330   0.13809   0.00000  Uiso   1.00
O327   O     0.17849   0.41434   0.27821   0.00000  Uiso   1.00
O328   O     0.04288   0.61181   0.00612   0.00000  Uiso   1.00
O329   O     0.11424   0.64584   0.00699   0.00000  Uiso   1.00
O330   O     0.08751   0.65249   0.44691   0.00000  Uiso   1.00
O331   O     0.11095   0.42005   0.44227   0.00000  Uiso   1.00
O332   O     0.09462   0.43976   0.38544   0.00000  Uiso   1.00
O333   O     0.17139   0.42150   0.37610   0.00000  Uiso   1.00
O334   O     0.14581   0.59469   0.26767   0.00000  Uiso   1.00
O335   O     0.07452   0.46584   0.23607   0.00000  Uiso   1.00
O336   O     0.26785   0.52512   0.21805   0.00000  Uiso   1.00
O337   O     0.06990   0.52293   0.27820   0.00000  Uiso   1.00
O338   O     0.25440   0.48610   0.26767   0.00000  Uiso   1.00
O339   O     0.13800   0.40236   0.23607   0.00000  Uiso   1.00
O340   O     0.20437   0.58860   0.21806   0.00000  Uiso   1.00
S341   S     0.30881   0.48698   0.31385   0.00000  Uiso   1.00
S342   S     0.22967   0.39838   0.10837   0.00000  Uiso   1.00
S343   S     0.08820   0.62208   0.48118   0.00000  Uiso   1.00
S344   S     0.12853   0.44384   0.40655   0.00000  Uiso   1.00
Zn345  Zn    0.19244   0.47423   0.28278   0.00000  Uiso   1.00
Zn346  Zn    0.13459   0.45711   0.22258   0.00000  Uiso   1.00
Zn347  Zn    0.21166   0.52997   0.21188   0.00000  Uiso   1.00
Zn348  Zn    0.12798   0.53868   0.28277   0.00000  Uiso   1.00
C349   C     0.38603   0.49352   0.25916   0.00000  Uiso   1.00
C350   C     0.52474   0.46060   0.46128   0.00000  Uiso   1.00
C351   C     0.54106   0.43709   0.48187   0.00000  Uiso   1.00
C352   C     0.61457   0.50610   0.24063   0.00000  Uiso   1.00
C353   C     0.53425   0.44661   0.02231   0.00000  Uiso   1.00
C354   C     0.51256   0.48168   0.04209   0.00000  Uiso   1.00
C355   C     0.55058   0.42242   0.04268   0.00000  Uiso   1.00
C356   C     0.54603   0.43261   0.08273   0.00000  Uiso   1.00
C357   C     0.51782   0.49795   0.07970   0.00000  Uiso   1.00
C358   C     0.66080   0.50439   0.23470   0.00000  Uiso   1.00
C359   C     0.34082   0.49316   0.26428   0.00000  Uiso   1.00
C360   C     0.45349   0.56639   0.41812   0.00000  Uiso   1.00
C361   C     0.51441   0.65568   0.23827   0.00000  Uiso   1.00
C362   C     0.48494   0.34551   0.26230   0.00000  Uiso   1.00
C363   C     0.48922   0.38958   0.25901   0.00000  Uiso   1.00
C364   C     0.51024   0.61106   0.24137   0.00000  Uiso   1.00
C365   C     0.52097   0.47944   0.14403   0.00000  Uiso   1.00
C366   C     0.47826   0.52055   0.35617   0.00000  Uiso   1.00
C367   C     0.46855   0.52841   0.39921   0.00000  Uiso   1.00
C368   C     0.52981   0.47063   0.10133   0.00000  Uiso   1.00
C369   C     0.44365   0.57476   0.45900   0.00000  Uiso   1.00
C370   C     0.36119   0.51320   0.19523   0.00000  Uiso   1.00
C371   C     0.47437   0.49828   0.42150   0.00000  Uiso   1.00
C372   C     0.34533   0.52312   0.16175   0.00000  Uiso   1.00
C373   C     0.51943   0.54519   0.09330   0.00000  Uiso   1.00
C374   C     0.55081   0.57148   0.06217   0.00000  Uiso   1.00
C375   C     0.47510   0.51107   0.46081   0.00000  Uiso   1.00
C376   C     0.45405   0.54663   0.48079   0.00000  Uiso   1.00
C377   C     0.49568   0.48980   0.48115   0.00000  Uiso   1.00
C378   C     0.48901   0.50001   0.02227   0.00000  Uiso   1.00
C379   C     0.45750   0.52661   0.04240   0.00000  Uiso   1.00
C380   C     0.44265   0.55181   0.02206   0.00000  Uiso   1.00
H381   H     0.42139   0.57450   0.03908   0.00000  Uiso   1.00
H382   H     0.66539   0.55382   0.16899   0.00000  Uiso   1.00
H383   H     0.37289   0.52546   0.13471   0.00000  Uiso   1.00
H384   H     0.38488   0.53981   0.20076   0.00000  Uiso   1.00
H385   H     0.37871   0.48511   0.18367   0.00000  Uiso   1.00
H386   H     0.65405   0.48264   0.36938   0.00000  Uiso   1.00
H387   H     0.58295   0.55984   0.05286   0.00000  Uiso   1.00
H388   H     0.53923   0.57063   0.03597   0.00000  Uiso   1.00
H389   H     0.55420   0.60469   0.07476   0.00000  Uiso   1.00
H390   H     0.48764   0.55692   0.10309   0.00000  Uiso   1.00
H391   H     0.53105   0.55303   0.11955   0.00000  Uiso   1.00
H392   H     0.56573   0.39481   0.02749   0.00000  Uiso   1.00
H393   H     0.53082   0.35481   0.15142   0.00000  Uiso   1.00
H394   H     0.45122   0.66387   0.43593   0.00000  Uiso   1.00
H395   H     0.52821   0.44445   0.36920   0.00000  Uiso   1.00
H396   H     0.54167   0.33645   0.21633   0.00000  Uiso   1.00
H397   H     0.45725   0.66551   0.28427   0.00000  Uiso   1.00
H398   H     0.56069   0.41258   0.46580   0.00000  Uiso   1.00
H399   H     0.44814   0.58897   0.40091   0.00000  Uiso   1.00
H400   H     0.44385   0.52796   0.07387   0.00000  Uiso   1.00
H401   H     0.53522   0.45554   0.42976   0.00000  Uiso   1.00
H402   H     0.65446   0.49767   0.15516   0.00000  Uiso   1.00
O403   O     0.50000   0.50000   0.25000   0.00000  Uiso   1.00
O404   O     0.49027   0.45726   0.16625   0.00000  Uiso   1.00
O405   O     0.46020   0.53979   0.33749   0.00000  Uiso   1.00
O406   O     0.54421   0.50826   0.15877   0.00000  Uiso   1.00
O407   O     0.50532   0.49468   0.33749   0.00000  Uiso   1.00
O408   O     0.61508   0.52269   0.32959   0.00000  Uiso   1.00
O409   O     0.61364   0.44611   0.31500   0.00000  Uiso   1.00
O410   O     0.34070   0.48629   0.34281   0.00000  Uiso   1.00
O411   O     0.58888   0.36660   0.07994   0.00000  Uiso   1.00
O412   O     0.58993   0.42325   0.13286   0.00000  Uiso   1.00
O413   O     0.51934   0.37330   0.13809   0.00000  Uiso   1.00
O414   O     0.51182   0.41434   0.27821   0.00000  Uiso   1.00
O415   O     0.37622   0.61181   0.00612   0.00000  Uiso   1.00
O416   O     0.44757   0.64584   0.00699   0.00000  Uiso   1.00
O417   O     0.42084   0.65249   0.44691   0.00000  Uiso   1.00
O418   O     0.44428   0.42005   0.44227   0.00000  Uiso   1.00
O419   O     0.42795   0.43976   0.38544   0.00000  Uiso   1.00
O420   O     0.50472   0.42150   0.37610   0.00000  Uiso   1.00
O421   O     0.47914   0.59469   0.26767   0.00000  Uiso   1.00
O422   O     0.40785   0.46584   0.23607   0.00000  Uiso   1.00
O423   O     0.60119   0.52512   0.21805   0.00000  Uiso   1.00
O424   O     0.40323   0.52293   0.27820   0.00000  Uiso   1.00
O425   O     0.58773   0.48610   0.26767   0.00000  Uiso   1.00
O426   O     0.47133   0.40236   0.23607   0.00000  Uiso   1.00
O427   O     0.53771   0.58860   0.21806   0.00000  Uiso   1.00
S428   S     0.64215   0.48698   0.31385   0.00000  Uiso   1.00
S429   S     0.56300   0.39838   0.10837   0.00000  Uiso   1.00
S430   S     0.42153   0.62208   0.48118   0.00000  Uiso   1.00
S431   S     0.46186   0.44384   0.40655   0.00000  Uiso   1.00
Zn432  Zn    0.52577   0.47423   0.28278   0.00000  Uiso   1.00
Zn433  Zn    0.46792   0.45711   0.22258   0.00000  Uiso   1.00
Zn434  Zn    0.54500   0.52997   0.21188   0.00000  Uiso   1.00
Zn435  Zn    0.46131   0.53868   0.28277   0.00000  Uiso   1.00
C436   C     0.71936   0.49352   0.25916   0.00000  Uiso   1.00
C437   C     0.85808   0.46060   0.46128   0.00000  Uiso   1.00
C438   C     0.87439   0.43709   0.48187   0.00000  Uiso   1.00
C439   C     0.94790   0.50610   0.24063   0.00000  Uiso   1.00
C440   C     0.86758   0.44661   0.02231   0.00000  Uiso   1.00
C441   C     0.84590   0.48168   0.04209   0.00000  Uiso   1.00
C442   C     0.88392   0.42242   0.04268   0.00000  Uiso   1.00
C443   C     0.87936   0.43261   0.08273   0.00000  Uiso   1.00
C444   C     0.85115   0.49795   0.07970   0.00000  Uiso   1.00
C445   C     0.99414   0.50439   0.23470   0.00000  Uiso   1.00
C446   C     0.67415   0.49316   0.26428   0.00000  Uiso   1.00
C447   C     0.78682   0.56639   0.41812   0.00000  Uiso   1.00
C448   C     0.84774   0.65568   0.23827   0.00000  Uiso   1.00
C449   C     0.81827   0.34551   0.26230   0.00000  Uiso   1.00
C450   C     0.82256   0.38958   0.25901   0.00000  Uiso   1.00
C451   C     0.84357   0.61106   0.24137   0.00000  Uiso   1.00
C452   C     0.85431   0.47944   0.14403   0.00000  Uiso   1.00
C453   C     0.81159   0.52055   0.35617   0.00000  Uiso   1.00
C454   C     0.80188   0.52841   0.39921   0.00000  Uiso   1.00
C455   C     0.86314   0.47063   0.10133   0.00000  Uiso   1.00
C456   C     0.77698   0.57476   0.45900   0.00000  Uiso   1.00
C457   C     0.69453   0.51320   0.19523   0.00000  Uiso   1.00
C458   C     0.80770   0.49828   0.42150   0.00000  Uiso   1.00
C459   C     0.67866   0.52312   0.16175   0.00000  Uiso   1.00
C460   C     0.85276   0.54519   0.09330   0.00000  Uiso   1.00
C461   C     0.88414   0.57148   0.06217   0.00000  Uiso   1.00
C462   C     0.80843   0.51107   0.46081   0.00000  Uiso   1.00
C463   C     0.78739   0.54663   0.48079   0.00000  Uiso   1.00
C464   C     0.82901   0.48980   0.48115   0.00000  Uiso   1.00
C465   C     0.82235   0.50001   0.02227   0.00000  Uiso   1.00
C466   C     0.79083   0.52661   0.04240   0.00000  Uiso   1.00
C467   C     0.77598   0.55181   0.02206   0.00000  Uiso   1.00
H468   H     0.75472   0.57450   0.03908   0.00000  Uiso   1.00
H469   H     0.99873   0.55382   0.16899   0.00000  Uiso   1.00
H470   H     0.70623   0.52546   0.13471   0.00000  Uiso   1.00
H471   H     0.71821   0.53981   0.20076   0.00000  Uiso   1.00
H472   H     0.71204   0.48511   0.18367   0.00000  Uiso   1.00
H473   H     0.98738   0.48264   0.36938   0.00000  Uiso   1.00
H474   H     0.91628   0.55984   0.05286   0.00000  Uiso   1.00
H475   H     0.87256   0.57063   0.03597   0.00000  Uiso   1.00
H476   H     0.88754   0.60469   0.07476   0.00000  Uiso   1.00
H477   H     0.82097   0.55692   0.10309   0.00000  Uiso   1.00
H478   H     0.86439   0.55303   0.11955   0.00000  Uiso   1.00
H479   H     0.89906   0.39481   0.02749   0.00000  Uiso   1.00
H480   H     0.86416   0.35481   0.15142   0.00000  Uiso   1.00
H481   H     0.78455   0.66387   0.43593   0.00000  Uiso   1.00
H482   H     0.86154   0.44445   0.36920   0.00000  Uiso   1.00
H483   H     0.87501   0.33645   0.21633   0.00000  Uiso   1.00
H484   H     0.79058   0.66551   0.28427   0.00000  Uiso   1.00
H485   H     0.89402   0.41258   0.46580   0.00000  Uiso   1.00
H486   H     0.78147   0.58897   0.40091   0.00000  Uiso   1.00
H487   H     0.77718   0.52796   0.07387   0.00000  Uiso   1.00
H488   H     0.86855   0.45554   0.42976   0.00000  Uiso   1.00
H489   H     0.98779   0.49767   0.15516   0.00000  Uiso   1.00
O490   O     0.83333   0.50000   0.25000   0.00000  Uiso   1.00
O491   O     0.82360   0.45726   0.16625   0.00000  Uiso   1.00
O492   O     0.79354   0.53979   0.33749   0.00000  Uiso   1.00
O493   O     0.87755   0.50826   0.15877   0.00000  Uiso   1.00
O494   O     0.83865   0.49468   0.33749   0.00000  Uiso   1.00
O495   O     0.94841   0.52269   0.32959   0.00000  Uiso   1.00
O496   O     0.94697   0.44611   0.31500   0.00000  Uiso   1.00
O497   O     0.67403   0.48629   0.34281   0.00000  Uiso   1.00
O498   O     0.92222   0.36660   0.07994   0.00000  Uiso   1.00
O499   O     0.92326   0.42325   0.13286   0.00000  Uiso   1.00
O500   O     0.85268   0.37330   0.13809   0.00000  Uiso   1.00
O501   O     0.84515   0.41434   0.27821   0.00000  Uiso   1.00
O502   O     0.70955   0.61181   0.00612   0.00000  Uiso   1.00
O503   O     0.78090   0.64584   0.00699   0.00000  Uiso   1.00
O504   O     0.75417   0.65249   0.44691   0.00000  Uiso   1.00
O505   O     0.77762   0.42005   0.44227   0.00000  Uiso   1.00
O506   O     0.76129   0.43976   0.38544   0.00000  Uiso   1.00
O507   O     0.83805   0.42150   0.37610   0.00000  Uiso   1.00
O508   O     0.81247   0.59469   0.26767   0.00000  Uiso   1.00
O509   O     0.74119   0.46584   0.23607   0.00000  Uiso   1.00
O510   O     0.93452   0.52512   0.21805   0.00000  Uiso   1.00
O511   O     0.73656   0.52293   0.27820   0.00000  Uiso   1.00
O512   O     0.92106   0.48610   0.26767   0.00000  Uiso   1.00
O513   O     0.80467   0.40236   0.23607   0.00000  Uiso   1.00
O514   O     0.87104   0.58860   0.21806   0.00000  Uiso   1.00
S515   S     0.97548   0.48698   0.31385   0.00000  Uiso   1.00
S516   S     0.89633   0.39838   0.10837   0.00000  Uiso   1.00
S517   S     0.75487   0.62208   0.48118   0.00000  Uiso   1.00
S518   S     0.79520   0.44384   0.40655   0.00000  Uiso   1.00
Zn519  Zn    0.85910   0.47423   0.28278   0.00000  Uiso   1.00
Zn520  Zn    0.80125   0.45711   0.22258   0.00000  Uiso   1.00
Zn521  Zn    0.87833   0.52997   0.21188   0.00000  Uiso   1.00
Zn522  Zn    0.79465   0.53868   0.28277   0.00000  Uiso   1.00
C523   C     0.05270   0.82685   0.25916   0.00000  Uiso   1.00
C524   C     0.19141   0.79393   0.46128   0.00000  Uiso   1.00
C525   C     0.20773   0.77043   0.48187   0.00000  Uiso   1.00
C526   C     0.28124   0.83943   0.24063   0.00000  Uiso   1.00
C527   C     0.20092   0.77994   0.02231   0.00000  Uiso   1.00
C528   C     0.17923   0.81502   0.04209   0.00000  Uiso   1.00
C529   C     0.21725   0.75575   0.04268   0.00000  Uiso   1.00
C530   C     0.21269   0.76594   0.08273   0.00000  Uiso   1.00
C531   C     0.18448   0.83128   0.07970   0.00000  Uiso   1.00
C532   C     0.32747   0.83773   0.23470   0.00000  Uiso   1.00
C533   C     0.00748   0.82649   0.26428   0.00000  Uiso   1.00
C534   C     0.12016   0.89972   0.41812   0.00000  Uiso   1.00
C535   C     0.18108   0.98901   0.23827   0.00000  Uiso   1.00
C536   C     0.15160   0.67884   0.26230   0.00000  Uiso   1.00
C537   C     0.15589   0.72291   0.25901   0.00000  Uiso   1.00
C538   C     0.17690   0.94440   0.24137   0.00000  Uiso   1.00
C539   C     0.18764   0.81278   0.14403   0.00000  Uiso   1.00
C540   C     0.14493   0.85388   0.35617   0.00000  Uiso   1.00
C541   C     0.13521   0.86175   0.39921   0.00000  Uiso   1.00
C542   C     0.19648   0.80396   0.10133   0.00000  Uiso   1.00
C543   C     0.11032   0.90810   0.45900   0.00000  Uiso   1.00
C544   C     0.02786   0.84653   0.19523   0.00000  Uiso   1.00
C545   C     0.14103   0.83161   0.42150   0.00000  Uiso   1.00
C546   C     0.01199   0.85645   0.16175   0.00000  Uiso   1.00
C547   C     0.18609   0.87852   0.09330   0.00000  Uiso   1.00
C548   C     0.21747   0.90481   0.06217   0.00000  Uiso   1.00
C549   C     0.14176   0.84440   0.46081   0.00000  Uiso   1.00
C550   C     0.12072   0.87996   0.48079   0.00000  Uiso   1.00
C551   C     0.16234   0.82313   0.48115   0.00000  Uiso   1.00
C552   C     0.15568   0.83334   0.02227   0.00000  Uiso   1.00
C553   C     0.12416   0.85994   0.04240   0.00000  Uiso   1.00
C554   C     0.10932   0.88514   0.02206   0.00000  Uiso   1.00
H555   H     0.08806   0.90783   0.03908   0.00000  Uiso   1.00
H556   H     0.33206   0.88715   0.16899   0.00000  Uiso   1.00
H557   H     0.03956   0.85879   0.13471   0.00000  Uiso   1.00
H558   H     0.05154   0.87314   0.20076   0.00000  Uiso   1.00
H559   H     0.04538   0.81844   0.18367   0.00000  Uiso   1.00
H560   H     0.32071   0.81597   0.36938   0.00000  Uiso   1.00
H561   H     0.24961   0.89318   0.05286   0.00000  Uiso   1.00
H562   H     0.20589   0.90396   0.03597   0.00000  Uiso   1.00
H563   H     0.22087   0.93802   0.07476   0.00000  Uiso   1.00
H564   H     0.15431   0.89026   0.10309   0.00000  Uiso   1.00
H565   H     0.19772   0.88636   0.11955   0.00000  Uiso   1.00
H566   H     0.23239   0.72814   0.02749   0.00000  Uiso   1.00
H567   H     0.19749   0.68814   0.15142   0.00000  Uiso   1.00
H568   H     0.11789   0.99720   0.43593   0.00000  Uiso   1.00
H569   H     0.19488   0.77778   0.36920   0.00000  Uiso   1.00
H570   H     0.20834   0.66979   0.21633   0.00000  Uiso   1.00
H571   H     0.12391   0.99884   0.28427   0.00000  Uiso   1.00
H572   H     0.22735   0.74592   0.46580   0.00000  Uiso   1.00
H573   H     0.11480   0.92230   0.40091   0.00000  Uiso   1.00
H574   H     0.11051   0.86129   0.07387   0.00000  Uiso   1.00
H575   H     0.20188   0.78888   0.42976   0.00000  Uiso   1.00
H576   H     0.32113   0.83100   0.15516   0.00000  Uiso   1.00
O577   O     0.16667   0.83333   0.25000   0.00000  Uiso   1.00
O578   O     0.15693   0.79060   0.16625   0.00000  Uiso   1.00
O579   O     0.12687   0.87313   0.33749   0.00000  Uiso   1.00
O580   O     0.21088   0.84159   0.15877   0.00000  Uiso   1.00
O581   O     0.17198   0.82802   0.33749   0.00000  Uiso   1.00
O582   O     0.28174   0.85603   0.32959   0.00000  Uiso   1.00
O583   O     0.28031   0.77944   0.31500   0.00000  Uiso   1.00
O584   O     0.00737   0.81962   0.34281   0.00000  Uiso   1.00
O585   O     0.25555   0.69993   0.07994   0.00000  Uiso   1.00
O586   O     0.25659   0.75658   0.13286   0.00000  Uiso   1.00
O587   O     0.18601   0.70663   0.13809   0.00000  Uiso   1.00
O588   O     0.17849   0.74768   0.27821   0.00000  Uiso   1.00
O589   O     0.04288   0.94515   0.00612   0.00000  Uiso   1.00
O590   O     0.11424   0.97918   0.00699   0.00000  Uiso   1.00
O591   O     0.08751   0.98582   0.44691   0.00000  Uiso   1.00
O592   O     0.11095   0.75339   0.44227   0.00000  Uiso   1.00
O593   O     0.09462   0.77309   0.38544   0.00000  Uiso   1.00
O594   O     0.17139   0.75483   0.37610   0.00000  Uiso   1.00
O595   O     0.14581   0.92803   0.26767   0.00000  Uiso   1.00
O596   O     0.07452   0.79917   0.23607   0.00000  Uiso   1.00
O597   O     0.26785   0.85845   0.21805   0.00000  Uiso   1.00
O598   O     0.06990   0.85627   0.27820   0.00000  Uiso   1.00
O599   O     0.25440   0.81944   0.26767   0.00000  Uiso   1.00
O600   O     0.13800   0.73570   0.23607   0.00000  Uiso   1.00
O601   O     0.20437   0.92193   0.21806   0.00000  Uiso   1.00
S602   S     0.30881   0.82031   0.31385   0.00000  Uiso   1.00
S603   S     0.22967   0.73172   0.10837   0.00000  Uiso   1.00
S604   S     0.08820   0.95542   0.48118   0.00000  Uiso   1.00
S605   S     0.12853   0.77717   0.40655   0.00000  Uiso   1.00
Zn606  Zn    0.19244   0.80756   0.28278   0.00000  Uiso   1.00
Zn607  Zn    0.13459   0.79044   0.22258   0.00000  Uiso   1.00
Zn608  Zn    0.21166   0.86331   0.21188   0.00000  Uiso   1.00
Zn609  Zn    0.12798   0.87202   0.28277   0.00000  Uiso   1.00
C610   C     0.38603   0.82685   0.25916   0.00000  Uiso   1.00
C611   C     0.52474   0.79393   0.46128   0.00000  Uiso   1.00
C612   C     0.54106   0.77043   0.48187   0.00000  Uiso   1.00
C613   C     0.61457   0.83943   0.24063   0.00000  Uiso   1.00
C614   C     0.53425   0.77994   0.02231   0.00000  Uiso   1.00
C615   C     0.51256   0.81502   0.04209   0.00000  Uiso   1.00
C616   C     0.55058   0.75575   0.04268   0.00000  Uiso   1.00
C617   C     0.54603   0.76594   0.08273   0.00000  Uiso   1.00
C618   C     0.51782   0.83128   0.07970   0.00000  Uiso   1.00
C619   C     0.66080   0.83773   0.23470   0.00000  Uiso   1.00
C620   C     0.34082   0.82649   0.26428   0.00000  Uiso   1.00
C621   C     0.45349   0.89972   0.41812   0.00000  Uiso   1.00
C622   C     0.51441   0.98901   0.23827   0.00000  Uiso   1.00
C623   C     0.48494   0.67884   0.26230   0.00000  Uiso   1.00
C624   C     0.48922   0.72291   0.25901   0.00000  Uiso   1.00
C625   C     0.51024   0.94440   0.24137   0.00000  Uiso   1.00
C626   C     0.52097   0.81278   0.14403   0.00000  Uiso   1.00
C627   C     0.47826   0.85388   0.35617   0.00000  Uiso   1.00
C628   C     0.46855   0.86175   0.39921   0.00000  Uiso   1.00
C629   C     0.52981   0.80396   0.10133   0.00000  Uiso   1.00
C630   C     0.44365   0.90810   0.45900   0.00000  Uiso   1.00
C631   C     0.36119   0.84653   0.19523   0.00000  Uiso   1.00
C632   C     0.47437   0.83161   0.42150   0.00000  Uiso   1.00
C633   C     0.34533   0.85645   0.16175   0.00000  Uiso   1.00
C634   C     0.51943   0.87852   0.09330   0.00000  Uiso   1.00
C635   C     0.55081   0.90481   0.06217   0.00000  Uiso   1.00
C636   C     0.47510   0.84440   0.46081   0.00000  Uiso   1.00
C637   C     0.45405   0.87996   0.48079   0.00000  Uiso   1.00
C638   C     0.49568   0.82313   0.48115   0.00000  Uiso   1.00
C639   C     0.48901   0.83334   0.02227   0.00000  Uiso   1.00
C640   C     0.45750   0.85994   0.04240   0.00000  Uiso   1.00
C641   C     0.44265   0.88514   0.02206   0.00000  Uiso   1.00
H642   H     0.42139   0.90783   0.03908   0.00000  Uiso   1.00
H643   H     0.66539   0.88715   0.16899   0.00000  Uiso   1.00
H644   H     0.37289   0.85879   0.13471   0.00000  Uiso   1.00
H645   H     0.38488   0.87314   0.20076   0.00000  Uiso   1.00
H646   H     0.37871   0.81844   0.18367   0.00000  Uiso   1.00
H647   H     0.65405   0.81597   0.36938   0.00000  Uiso   1.00
H648   H     0.58295   0.89318   0.05286   0.00000  Uiso   1.00
H649   H     0.53923   0.90396   0.03597   0.00000  Uiso   1.00
H650   H     0.55420   0.93802   0.07476   0.00000  Uiso   1.00
H651   H     0.48764   0.89026   0.10309   0.00000  Uiso   1.00
H652   H     0.53105   0.88636   0.11955   0.00000  Uiso   1.00
H653   H     0.56573   0.72814   0.02749   0.00000  Uiso   1.00
H654   H     0.53082   0.68814   0.15142   0.00000  Uiso   1.00
H655   H     0.45122   0.99720   0.43593   0.00000  Uiso   1.00
H656   H     0.52821   0.77778   0.36920   0.00000  Uiso   1.00
H657   H     0.54167   0.66979   0.21633   0.00000  Uiso   1.00
H658   H     0.45725   0.99884   0.28427   0.00000  Uiso   1.00
H659   H     0.56069   0.74592   0.46580   0.00000  Uiso   1.00
H660   H     0.44814   0.92230   0.40091   0.00000  Uiso   1.00
H661   H     0.44385   0.86129   0.07387   0.00000  Uiso   1.00
H662   H     0.53522   0.78888   0.42976   0.00000  Uiso   1.00
H663   H     0.65446   0.83100   0.15516   0.00000  Uiso   1.00
O664   O     0.50000   0.83333   0.25000   0.00000  Uiso   1.00
O665   O     0.49027   0.79060   0.16625   0.00000  Uiso   1.00
O666   O     0.46020   0.87313   0.33749   0.00000  Uiso   1.00
O667   O     0.54421   0.84159   0.15877   0.00000  Uiso   1.00
O668   O     0.50532   0.82802   0.33749   0.00000  Uiso   1.00
O669   O     0.61508   0.85603   0.32959   0.00000  Uiso   1.00
O670   O     0.61364   0.77944   0.31500   0.00000  Uiso   1.00
O671   O     0.34070   0.81962   0.34281   0.00000  Uiso   1.00
O672   O     0.58888   0.69993   0.07994   0.00000  Uiso   1.00
O673   O     0.58993   0.75658   0.13286   0.00000  Uiso   1.00
O674   O     0.51934   0.70663   0.13809   0.00000  Uiso   1.00
O675   O     0.51182   0.74768   0.27821   0.00000  Uiso   1.00
O676   O     0.37622   0.94515   0.00612   0.00000  Uiso   1.00
O677   O     0.44757   0.97918   0.00699   0.00000  Uiso   1.00
O678   O     0.42084   0.98582   0.44691   0.00000  Uiso   1.00
O679   O     0.44428   0.75339   0.44227   0.00000  Uiso   1.00
O680   O     0.42795   0.77309   0.38544   0.00000  Uiso   1.00
O681   O     0.50472   0.75483   0.37610   0.00000  Uiso   1.00
O682   O     0.47914   0.92803   0.26767   0.00000  Uiso   1.00
O683   O     0.40785   0.79917   0.23607   0.00000  Uiso   1.00
O684   O     0.60119   0.85845   0.21805   0.00000  Uiso   1.00
O685   O     0.40323   0.85627   0.27820   0.00000  Uiso   1.00
O686   O     0.58773   0.81944   0.26767   0.00000  Uiso   1.00
O687   O     0.47133   0.73570   0.23607   0.00000  Uiso   1.00
O688   O     0.53771   0.92193   0.21806   0.00000  Uiso   1.00
S689   S     0.64215   0.82031   0.31385   0.00000  Uiso   1.00
S690   S     0.56300   0.73172   0.10837   0.00000  Uiso   1.00
S691   S     0.42153   0.95542   0.48118   0.00000  Uiso   1.00
S692   S     0.46186   0.77717   0.40655   0.00000  Uiso   1.00
Zn693  Zn    0.52577   0.80756   0.28278   0.00000  Uiso   1.00
Zn694  Zn    0.46792   0.79044   0.22258   0.00000  Uiso   1.00
Zn695  Zn    0.54500   0.86331   0.21188   0.00000  Uiso   1.00
Zn696  Zn    0.46131   0.87202   0.28277   0.00000  Uiso   1.00
C697   C     0.71936   0.82685   0.25916   0.00000  Uiso   1.00
C698   C     0.85808   0.79393   0.46128   0.00000  Uiso   1.00
C699   C     0.87439   0.77043   0.48187   0.00000  Uiso   1.00
C700   C     0.94790   0.83943   0.24063   0.00000  Uiso   1.00
C701   C     0.86758   0.77994   0.02231   0.00000  Uiso   1.00
C702   C     0.84590   0.81502   0.04209   0.00000  Uiso   1.00
C703   C     0.88392   0.75575   0.04268   0.00000  Uiso   1.00
C704   C     0.87936   0.76594   0.08273   0.00000  Uiso   1.00
C705   C     0.85115   0.83128   0.07970   0.00000  Uiso   1.00
C706   C     0.99414   0.83773   0.23470   0.00000  Uiso   1.00
C707   C     0.67415   0.82649   0.26428   0.00000  Uiso   1.00
C708   C     0.78682   0.89972   0.41812   0.00000  Uiso   1.00
C709   C     0.84774   0.98901   0.23827   0.00000  Uiso   1.00
C710   C     0.81827   0.67884   0.26230   0.00000  Uiso   1.00
C711   C     0.82256   0.72291   0.25901   0.00000  Uiso   1.00
C712   C     0.84357   0.94440   0.24137   0.00000  Uiso   1.00
C713   C     0.85431   0.81278   0.14403   0.00000  Uiso   1.00
C714   C     0.81159   0.85388   0.35617   0.00000  Uiso   1.00
C715   C     0.80188   0.86175   0.39921   0.00000  Uiso   1.00
C716   C     0.86314   0.80396   0.10133   0.00000  Uiso   1.00
C717   C     0.77698   0.90810   0.45900   0.00000  Uiso   1.00
C718   C     0.69453   0.84653   0.19523   0.00000  Uiso   1.00
C719   C     0.80770   0.83161   0.42150   0.00000  Uiso   1.00
C720   C     0.67866   0.85645   0.16175   0.00000  Uiso   1.00
C721   C     0.85276   0.87852   0.09330   0.00000  Uiso   1.00
C722   C     0.88414   0.90481   0.06217   0.00000  Uiso   1.00
C723   C     0.80843   0.84440   0.46081   0.00000  Uiso   1.00
C724   C     0.78739   0.87996   0.48079   0.00000  Uiso   1.00
C725   C     0.82901   0.82313   0.48115   0.00000  Uiso   1.00
C726   C     0.82235   0.83334   0.02227   0.00000  Uiso   1.00
C727   C     0.79083   0.85994   0.04240   0.00000  Uiso   1.00
C728   C     0.77598   0.88514   0.02206   0.00000  Uiso   1.00
H729   H     0.75472   0.90783   0.03908   0.00000  Uiso   1.00
H730   H     0.99873   0.88715   0.16899   0.00000  Uiso   1.00
H731   H     0.70623   0.85879   0.13471   0.00000  Uiso   1.00
H732   H     0.71821   0.87314   0.20076   0.00000  Uiso   1.00
H733   H     0.71204   0.81844   0.18367   0.00000  Uiso   1.00
H734   H     0.98738   0.81597   0.36938   0.00000  Uiso   1.00
H735   H     0.91628   0.89318   0.05286   0.00000  Uiso   1.00
H736   H     0.87256   0.90396   0.03597   0.00000  Uiso   1.00
H737   H     0.88754   0.93802   0.07476   0.00000  Uiso   1.00
H738   H     0.82097   0.89026   0.10309   0.00000  Uiso   1.00
H739   H     0.86439   0.88636   0.11955   0.00000  Uiso   1.00
H740   H     0.89906   0.72814   0.02749   0.00000  Uiso   1.00
H741   H     0.86416   0.68814   0.15142   0.00000  Uiso   1.00
H742   H     0.78455   0.99720   0.43593   0.00000  Uiso   1.00
H743   H     0.86154   0.77778   0.36920   0.00000  Uiso   1.00
H744   H     0.87501   0.66979   0.21633   0.00000  Uiso   1.00
H745   H     0.79058   0.99884   0.28427   0.00000  Uiso   1.00
H746   H     0.89402   0.74592   0.46580   0.00000  Uiso   1.00
H747   H     0.78147   0.92230   0.40091   0.00000  Uiso   1.00
H748   H     0.77718   0.86129   0.07387   0.00000  Uiso   1.00
H749   H     0.86855   0.78888   0.42976   0.00000  Uiso   1.00
H750   H     0.98779   0.83100   0.15516   0.00000  Uiso   1.00
O751   O     0.83333   0.83333   0.25000   0.00000  Uiso   1.00
O752   O     0.82360   0.79060   0.16625   0.00000  Uiso   1.00
O753   O     0.79354   0.87313   0.33749   0.00000  Uiso   1.00
O754   O     0.87755   0.84159   0.15877   0.00000  Uiso   1.00
O755   O     0.83865   0.82802   0.33749   0.00000  Uiso   1.00
O756   O     0.94841   0.85603   0.32959   0.00000  Uiso   1.00
O757   O     0.94697   0.77944   0.31500   0.00000  Uiso   1.00
O758   O     0.67403   0.81962   0.34281   0.00000  Uiso   1.00
O759   O     0.92222   0.69993   0.07994   0.00000  Uiso   1.00
O760   O     0.92326   0.75658   0.13286   0.00000  Uiso   1.00
O761   O     0.85268   0.70663   0.13809   0.00000  Uiso   1.00
O762   O     0.84515   0.74768   0.27821   0.00000  Uiso   1.00
O763   O     0.70955   0.94515   0.00612   0.00000  Uiso   1.00
O764   O     0.78090   0.97918   0.00699   0.00000  Uiso   1.00
O765   O     0.75417   0.98582   0.44691   0.00000  Uiso   1.00
O766   O     0.77762   0.75339   0.44227   0.00000  Uiso   1.00
O767   O     0.76129   0.77309   0.38544   0.00000  Uiso   1.00
O768   O     0.83805   0.75483   0.37610   0.00000  Uiso   1.00
O769   O     0.81247   0.92803   0.26767   0.00000  Uiso   1.00
O770   O     0.74119   0.79917   0.23607   0.00000  Uiso   1.00
O771   O     0.93452   0.85845   0.21805   0.00000  Uiso   1.00
O772   O     0.73656   0.85627   0.27820   0.00000  Uiso   1.00
O773   O     0.92106   0.81944   0.26767   0.00000  Uiso   1.00
O774   O     0.80467   0.73570   0.23607   0.00000  Uiso   1.00
O775   O     0.87104   0.92193   0.21806   0.00000  Uiso   1.00
S776   S     0.97548   0.82031   0.31385   0.00000  Uiso   1.00
S777   S     0.89633   0.73172   0.10837   0.00000  Uiso   1.00
S778   S     0.75487   0.95542   0.48118   0.00000  Uiso   1.00
S779   S     0.79520   0.77717   0.40655   0.00000  Uiso   1.00
Zn780  Zn    0.85910   0.80756   0.28278   0.00000  Uiso   1.00
Zn781  Zn    0.80125   0.79044   0.22258   0.00000  Uiso   1.00
Zn782  Zn    0.87833   0.86331   0.21188   0.00000  Uiso   1.00
Zn783  Zn    0.79465   0.87202   0.28277   0.00000  Uiso   1.00
C784   C     0.05270   0.16019   0.75916   0.00000  Uiso   1.00
C785   C     0.19141   0.12727   0.96128   0.00000  Uiso   1.00
C786   C     0.20773   0.10376   0.98187   0.00000  Uiso   1.00
C787   C     0.28124   0.17277   0.74063   0.00000  Uiso   1.00
C788   C     0.20092   0.11328   0.52231   0.00000  Uiso   1.00
C789   C     0.17923   0.14835   0.54209   0.00000  Uiso   1.00
C790   C     0.21725   0.08908   0.54268   0.00000  Uiso   1.00
C791   C     0.21269   0.09928   0.58273   0.00000  Uiso   1.00
C792   C     0.18448   0.16461   0.57970   0.00000  Uiso   1.00
C793   C     0.32747   0.17106   0.73470   0.00000  Uiso   1.00
C794   C     0.00748   0.15982   0.76428   0.00000  Uiso   1.00
C795   C     0.12016   0.23306   0.91812   0.00000  Uiso   1.00
C796   C     0.18108   0.32235   0.73827   0.00000  Uiso   1.00
C797   C     0.15160   0.01217   0.76230   0.00000  Uiso   1.00
C798   C     0.15589   0.05624   0.75901   0.00000  Uiso   1.00
C799   C     0.17690   0.27773   0.74137   0.00000  Uiso   1.00
C800   C     0.18764   0.14611   0.64403   0.00000  Uiso   1.00
C801   C     0.14493   0.18721   0.85617   0.00000  Uiso   1.00
C802   C     0.13521   0.19508   0.89921   0.00000  Uiso   1.00
C803   C     0.19648   0.13730   0.60133   0.00000  Uiso   1.00
C804   C     0.11032   0.24143   0.95900   0.00000  Uiso   1.00
C805   C     0.02786   0.17987   0.69523   0.00000  Uiso   1.00
C806   C     0.14103   0.16494   0.92150   0.00000  Uiso   1.00
C807   C     0.01199   0.18978   0.66175   0.00000  Uiso   1.00
C808   C     0.18609   0.21185   0.59330   0.00000  Uiso   1.00
C809   C     0.21747   0.23814   0.56217   0.00000  Uiso   1.00
C810   C     0.14176   0.17773   0.96081   0.00000  Uiso   1.00
C811   C     0.12072   0.21330   0.98079   0.00000  Uiso   1.00
C812   C     0.16234   0.15647   0.98115   0.00000  Uiso   1.00
C813   C     0.15568   0.16668   0.52227   0.00000  Uiso   1.00
C814   C     0.12416   0.19328   0.54240   0.00000  Uiso   1.00
C815   C     0.10932   0.21848   0.52206   0.00000  Uiso   1.00
H816   H     0.08806   0.24117   0.53908   0.00000  Uiso   1.00
H817   H     0.33206   0.22049   0.66899   0.00000  Uiso   1.00
H818   H     0.03956   0.19212   0.63471   0.00000  Uiso   1.00
H819   H     0.05154   0.20648   0.70076   0.00000  Uiso   1.00
H820   H     0.04538   0.15178   0.68367   0.00000  Uiso   1.00
H821   H     0.32071   0.14931   0.86938   0.00000  Uiso   1.00
H822   H     0.24961   0.22651   0.55286   0.00000  Uiso   1.00
H823   H     0.20589   0.23730   0.53597   0.00000  Uiso   1.00
H824   H     0.22087   0.27136   0.57476   0.00000  Uiso   1.00
H825   H     0.15431   0.22359   0.60309   0.00000  Uiso   1.00
H826   H     0.19772   0.21969   0.61955   0.00000  Uiso   1.00
H827   H     0.23239   0.06147   0.52749   0.00000  Uiso   1.00
H828   H     0.19749   0.02147   0.65142   0.00000  Uiso   1.00
H829   H     0.11789   0.33054   0.93593   0.00000  Uiso   1.00
H830   H     0.19488   0.11112   0.86920   0.00000  Uiso   1.00
H831   H     0.20834   0.00312   0.71633   0.00000  Uiso   1.00
H832   H     0.12391   0.33218   0.78427   0.00000  Uiso   1.00
H833   H     0.22735   0.07925   0.96580   0.00000  Uiso   1.00
H834   H     0.11480   0.25563   0.90091   0.00000  Uiso   1.00
H835   H     0.11051   0.19463   0.57387   0.00000  Uiso   1.00
H836   H     0.20188   0.12221   0.92976   0.00000  Uiso   1.00
H837   H     0.32113   0.16434   0.65516   0.00000  Uiso   1.00
O838   O     0.16667   0.16667   0.75000   0.00000  Uiso   1.00
O839   O     0.15693   0.12393   0.66625   0.00000  Uiso   1.00
O840   O     0.12687   0.20646   0.83749   0.00000  Uiso   1.00
O841   O     0.21088   0.17493   0.65877   0.00000  Uiso   1.00
O842   O     0.17198   0.16135   0.83749   0.00000  Uiso   1.00
O843   O     0.28174   0.18936   0.82959   0.00000  Uiso   1.00
O844   O     0.28031   0.11277   0.81500   0.00000  Uiso   1.00
O845   O     0.00737   0.15296   0.84281   0.00000  Uiso   1.00
O846   O     0.25555   0.03327   0.57994   0.00000  Uiso   1.00
O847   O     0.25659   0.08992   0.63286   0.00000  Uiso   1.00
O848   O     0.18601   0.03997   0.63809   0.00000  Uiso   1.00
O849   O     0.17849   0.08101   0.77821   0.00000  Uiso   1.00
O850   O     0.04288   0.27848   0.50612   0.00000  Uiso   1.00
O851   O     0.11424   0.31251   0.50699   0.00000  Uiso   1.00
O852   O     0.08751   0.31915   0.94691   0.00000  Uiso   1.00
O853   O     0.11095   0.08672   0.94227   0.00000  Uiso   1.00
O854   O     0.09462   0.10642   0.88544   0.00000  Uiso   1.00
O855   O     0.17139   0.08817   0.87610   0.00000  Uiso   1.00
O856   O     0.14581   0.26136   0.76767   0.00000  Uiso   1.00
O857   O     0.07452   0.13251   0.73607   0.00000  Uiso   1.00
O858   O     0.26785   0.19179   0.71805   0.00000  Uiso   1.00
O859   O     0.06990   0.18960   0.77820   0.00000  Uiso   1.00
O860   O     0.25440   0.15277   0.76767   0.00000  Uiso   1.00
O861   O     0.13800   0.06903   0.73607   0.00000  Uiso   1.00
O862   O     0.20437   0.25527   0.71806   0.00000  Uiso   1.00
S863   S     0.30881   0.15364   0.81385   0.00000  Uiso   1.00
S864   S     0.22967   0.06505   0.60837   0.00000  Uiso   1.00
S865   S     0.08820   0.28875   0.98118   0.00000  Uiso   1.00
S866   S     0.12853   0.11051   0.90655   0.00000  Uiso   1.00
Zn867  Zn    0.19244   0.14090   0.78278   0.00000  Uiso   1.00
Zn868  Zn    0.13459   0.12378   0.72258   0.00000  Uiso   1.00
Zn869  Zn    0.21166   0.19664   0.71188   0.00000  Uiso   1.00
Zn870  Zn    0.12798   0.20535   0.78277   0.00000  Uiso   1.00
C871   C     0.38603   0.16019   0.75916   0.00000  Uiso   1.00
C872   C     0.52474   0.12727   0.96128   0.00000  Uiso   1.00
C873   C     0.54106   0.10376   0.98187   0.00000  Uiso   1.00
C874   C     0.61457   0.17277   0.74063   0.00000  Uiso   1.00
C875   C     0.53425   0.11328   0.52231   0.00000  Uiso   1.00
C876   C     0.51256   0.14835   0.54209   0.00000  Uiso   1.00
C877   C     0.55058   0.08908   0.54268   0.00000  Uiso   1.00
C878   C     0.54603   0.09928   0.58273   0.00000  Uiso   1.00
C879   C     0.51782   0.16461   0.57970   0.00000  Uiso   1.00
C880   C     0.66080   0.17106   0.73470   0.00000  Uiso   1.00
C881   C     0.34082   0.15982   0.76428   0.00000  Uiso   1.00
C882   C     0.45349   0.23306   0.91812   0.00000  Uiso   1.00
C883   C     0.51441   0.32235   0.73827   0.00000  Uiso   1.00
C884   C     0.48494   0.01217   0.76230   0.00000  Uiso   1.00
C885   C     0.48922   0.05624   0.75901   0.00000  Uiso   1.00
C886   C     0.51024   0.27773   0.74137   0.00000  Uiso   1.00
C887   C     0.52097   0.14611   0.64403   0.00000  Uiso   1.00
C888   C     0.47826   0.18721   0.85617   0.00000  Uiso   1.00
C889   C     0.46855   0.19508   0.89921   0.00000  Uiso   1.00
C890   C     0.52981   0.13730   0.60133   0.00000  Uiso   1.00
C891   C     0.44365   0.24143   0.95900   0.00000  Uiso   1.00
C892   C     0.36119   0.17987   0.69523   0.00000  Uiso   1.00
C893   C     0.47437   0.16494   0.92150   0.00000  Uiso   1.00
C894   C     0.34533   0.18978   0.66175   0.00000  Uiso   1.00
C895   C     0.51943   0.21185   0.59330   0.00000  Uiso   1.00
C896   C     0.55081   0.23814   0.56217   0.00000  Uiso   1.00
C897   C     0.47510   0.17773   0.96081   0.00000  Uiso   1.00
C898   C     0.45405   0.21330   0.98079   0.00000  Uiso   1.00
C899   C     0.49568   0.15647   0.98115   0.00000  Uiso   1.00
C900   C     0.48901   0.16668   0.52227   0.00000  Uiso   1.00
C901   C     0.45750   0.19328   0.54240   0.00000  Uiso   1.00
C902   C     0.44265   0.21848   0.52206   0.00000  Uiso   1.00
H903   H     0.42139   0.24117   0.53908   0.00000  Uiso   1.00
H904   H     0.66539   0.22049   0.66899   0.00000  Uiso   1.00
H905   H     0.37289   0.19212   0.63471   0.00000  Uiso   1.00
H906   H     0.38488   0.20648   0.70076   0.00000  Uiso   1.00
H907   H     0.37871   0.15178   0.68367   0.00000  Uiso   1.00
H908   H     0.65405   0.14931   0.86938   0.00000  Uiso   1.00
H909   H     0.58295   0.22651   0.55286   0.00000  Uiso   1.00
H910   H     0.53923   0.23730   0.53597   0.00000  Uiso   1.00
H911   H     0.55420   0.27136   0.57476   0.00000  Uiso   1.00
H912   H     0.48764   0.22359   0.60309   0.00000  Uiso   1.00
H913   H     0.53105   0.21969   0.61955   0.00000  Uiso   1.00
H914   H     0.56573   0.06147   0.52749   0.00000  Uiso   1.00
H915   H     0.53082   0.02147   0.65142   0.00000  Uiso   1.00
H916   H     0.45122   0.33054   0.93593   0.00000  Uiso   1.00
H917   H     0.52821   0.11112   0.86920   0.00000  Uiso   1.00
H918   H     0.54167   0.00312   0.71633   0.00000  Uiso   1.00
H919   H     0.45725   0.33218   0.78427   0.00000  Uiso   1.00
H920   H     0.56069   0.07925   0.96580   0.00000  Uiso   1.00
H921   H     0.44814   0.25563   0.90091   0.00000  Uiso   1.00
H922   H     0.44385   0.19463   0.57387   0.00000  Uiso   1.00
H923   H     0.53522   0.12221   0.92976   0.00000  Uiso   1.00
H924   H     0.65446   0.16434   0.65516   0.00000  Uiso   1.00
O925   O     0.50000   0.16667   0.75000   0.00000  Uiso   1.00
O926   O     0.49027   0.12393   0.66625   0.00000  Uiso   1.00
O927   O     0.46020   0.20646   0.83749   0.00000  Uiso   1.00
O928   O     0.54421   0.17493   0.65877   0.00000  Uiso   1.00
O929   O     0.50532   0.16135   0.83749   0.00000  Uiso   1.00
O930   O     0.61508   0.18936   0.82959   0.00000  Uiso   1.00
O931   O     0.61364   0.11277   0.81500   0.00000  Uiso   1.00
O932   O     0.34070   0.15296   0.84281   0.00000  Uiso   1.00
O933   O     0.58888   0.03327   0.57994   0.00000  Uiso   1.00
O934   O     0.58993   0.08992   0.63286   0.00000  Uiso   1.00
O935   O     0.51934   0.03997   0.63809   0.00000  Uiso   1.00
O936   O     0.51182   0.08101   0.77821   0.00000  Uiso   1.00
O937   O     0.37622   0.27848   0.50612   0.00000  Uiso   1.00
O938   O     0.44757   0.31251   0.50699   0.00000  Uiso   1.00
O939   O     0.42084   0.31915   0.94691   0.00000  Uiso   1.00
O940   O     0.44428   0.08672   0.94227   0.00000  Uiso   1.00
O941   O     0.42795   0.10642   0.88544   0.00000  Uiso   1.00
O942   O     0.50472   0.08817   0.87610   0.00000  Uiso   1.00
O943   O     0.47914   0.26136   0.76767   0.00000  Uiso   1.00
O944   O     0.40785   0.13251   0.73607   0.00000  Uiso   1.00
O945   O     0.60119   0.19179   0.71805   0.00000  Uiso   1.00
O946   O     0.40323   0.18960   0.77820   0.00000  Uiso   1.00
O947   O     0.58773   0.15277   0.76767   0.00000  Uiso   1.00
O948   O     0.47133   0.06903   0.73607   0.00000  Uiso   1.00
O949   O     0.53771   0.25527   0.71806   0.00000  Uiso   1.00
S950   S     0.64215   0.15364   0.81385   0.00000  Uiso   1.00
S951   S     0.56300   0.06505   0.60837   0.00000  Uiso   1.00
S952   S     0.42153   0.28875   0.98118   0.00000  Uiso   1.00
S953   S     0.46186   0.11051   0.90655   0.00000  Uiso   1.00
Zn954  Zn    0.52577   0.14090   0.78278   0.00000  Uiso   1.00
Zn955  Zn    0.46792   0.12378   0.72258   0.00000  Uiso   1.00
Zn956  Zn    0.54500   0.19664   0.71188   0.00000  Uiso   1.00
Zn957  Zn    0.46131   0.20535   0.78277   0.00000  Uiso   1.00
C958   C     0.71936   0.16019   0.75916   0.00000  Uiso   1.00
C959   C     0.85808   0.12727   0.96128   0.00000  Uiso   1.00
C960   C     0.87439   0.10376   0.98187   0.00000  Uiso   1.00
C961   C     0.94790   0.17277   0.74063   0.00000  Uiso   1.00
C962   C     0.86758   0.11328   0.52231   0.00000  Uiso   1.00
C963   C     0.84590   0.14835   0.54209   0.00000  Uiso   1.00
C964   C     0.88392   0.08908   0.54268   0.00000  Uiso   1.00
C965   C     0.87936   0.09928   0.58273   0.00000  Uiso   1.00
C966   C     0.85115   0.16461   0.57970   0.00000  Uiso   1.00
C967   C     0.99414   0.17106   0.73470   0.00000  Uiso   1.00
C968   C     0.67415   0.15982   0.76428   0.00000  Uiso   1.00
C969   C     0.78682   0.23306   0.91812   0.00000  Uiso   1.00
C970   C     0.84774   0.32235   0.73827   0.00000  Uiso   1.00
C971   C     0.81827   0.01217   0.76230   0.00000  Uiso   1.00
C972   C     0.82256   0.05624   0.75901   0.00000  Uiso   1.00
C973   C     0.84357   0.27773   0.74137   0.00000  Uiso   1.00
C974   C     0.85431   0.14611   0.64403   0.00000  Uiso   1.00
C975   C     0.81159   0.18721   0.85617   0.00000  Uiso   1.00
C976   C     0.80188   0.19508   0.89921   0.00000  Uiso   1.00
C977   C     0.86314   0.13730   0.60133   0.00000  Uiso   1.00
C978   C     0.77698   0.24143   0.95900   0.00000  Uiso   1.00
C979   C     0.69453   0.17987   0.69523   0.00000  Uiso   1.00
C980   C     0.80770   0.16494   0.92150   0.00000  Uiso   1.00
C981   C     0.67866   0.18978   0.66175   0.00000  Uiso   1.00
C982   C     0.85276   0.21185   0.59330   0.00000  Uiso   1.00
C983   C     0.88414   0.23814   0.56217   0.00000  Uiso   1.00
C984   C     0.80843   0.17773   0.96081   0.00000  Uiso   1.00
C985   C     0.78739   0.21330   0.98079   0.00000  Uiso   1.00
C986   C     0.82901   0.15647   0.98115   0.00000  Uiso   1.00
C987   C     0.82235   0.16668   0.52227   0.00000  Uiso   1.00
C988   C     0.79083   0.19328   0.54240   0.00000  Uiso   1.00
C989   C     0.77598   0.21848   0.52206   0.00000  Uiso   1.00
H990   H     0.75472   0.24117   0.53908   0.00000  Uiso   1.00
H991   H     0.99873   0.22049   0.66899   0.00000  Uiso   1.00
H992   H     0.70623   0.19212   0.63471   0.00000  Uiso   1.00
H993   H     0.71821   0.20648   0.70076   0.00000  Uiso   1.00
H994   H     0.71204   0.15178   0.68367   0.00000  Uiso   1.00
H995   H     0.98738   0.14931   0.86938   0.00000  Uiso   1.00
H996   H     0.91628   0.22651   0.55286   0.00000  Uiso   1.00
H997   H     0.87256   0.23730   0.53597   0.00000  Uiso   1.00
H998   H     0.88754   0.27136   0.57476   0.00000  Uiso   1.00
H999   H     0.82097   0.22359   0.60309   0.00000  Uiso   1.00
H1000  H     0.86439   0.21969   0.61955   0.00000  Uiso   1.00
H1001  H     0.89906   0.06147   0.52749   0.00000  Uiso   1.00
H1002  H     0.86416   0.02147   0.65142   0.00000  Uiso   1.00
H1003  H     0.78455   0.33054   0.93593   0.00000  Uiso   1.00
H1004  H     0.86154   0.11112   0.86920   0.00000  Uiso   1.00
H1005  H     0.87501   0.00312   0.71633   0.00000  Uiso   1.00
H1006  H     0.79058   0.33218   0.78427   0.00000  Uiso   1.00
H1007  H     0.89402   0.07925   0.96580   0.00000  Uiso   1.00
H1008  H     0.78147   0.25563   0.90091   0.00000  Uiso   1.00
H1009  H     0.77718   0.19463   0.57387   0.00000  Uiso   1.00
H1010  H     0.86855   0.12221   0.92976   0.00000  Uiso   1.00
H1011  H     0.98779   0.16434   0.65516   0.00000  Uiso   1.00
O1012  O     0.83333   0.16667   0.75000   0.00000  Uiso   1.00
O1013  O     0.82360   0.12393   0.66625   0.00000  Uiso   1.00
O1014  O     0.79354   0.20646   0.83749   0.00000  Uiso   1.00
O1015  O     0.87755   0.17493   0.65877   0.00000  Uiso   1.00
O1016  O     0.83865   0.16135   0.83749   0.00000  Uiso   1.00
O1017  O     0.94841   0.18936   0.82959   0.00000  Uiso   1.00
O1018  O     0.94697   0.11277   0.81500   0.00000  Uiso   1.00
O1019  O     0.67403   0.15296   0.84281   0.00000  Uiso   1.00
O1020  O     0.92222   0.03327   0.57994   0.00000  Uiso   1.00
O1021  O     0.92326   0.08992   0.63286   0.00000  Uiso   1.00
O1022  O     0.85268   0.03997   0.63809   0.00000  Uiso   1.00
O1023  O     0.84515   0.08101   0.77821   0.00000  Uiso   1.00
O1024  O     0.70955   0.27848   0.50612   0.00000  Uiso   1.00
O1025  O     0.78090   0.31251   0.50699   0.00000  Uiso   1.00
O1026  O     0.75417   0.31915   0.94691   0.00000  Uiso   1.00
O1027  O     0.77762   0.08672   0.94227   0.00000  Uiso   1.00
O1028  O     0.76129   0.10642   0.88544   0.00000  Uiso   1.00
O1029  O     0.83805   0.08817   0.87610   0.00000  Uiso   1.00
O1030  O     0.81247   0.26136   0.76767   0.00000  Uiso   1.00
O1031  O     0.74119   0.13251   0.73607   0.00000  Uiso   1.00
O1032  O     0.93452   0.19179   0.71805   0.00000  Uiso   1.00
O1033  O     0.73656   0.18960   0.77820   0.00000  Uiso   1.00
O1034  O     0.92106   0.15277   0.76767   0.00000  Uiso   1.00
O1035  O     0.80467   0.06903   0.73607   0.00000  Uiso   1.00
O1036  O     0.87104   0.25527   0.71806   0.00000  Uiso   1.00
S1037  S     0.97548   0.15364   0.81385   0.00000  Uiso   1.00
S1038  S     0.89633   0.06505   0.60837   0.00000  Uiso   1.00
S1039  S     0.75487   0.28875   0.98118   0.00000  Uiso   1.00
S1040  S     0.79520   0.11051   0.90655   0.00000  Uiso   1.00
Zn1041 Zn    0.85910   0.14090   0.78278   0.00000  Uiso   1.00
Zn1042 Zn    0.80125   0.12378   0.72258   0.00000  Uiso   1.00
Zn1043 Zn    0.87833   0.19664   0.71188   0.00000  Uiso   1.00
Zn1044 Zn    0.79465   0.20535   0.78277   0.00000  Uiso   1.00
C1045  C     0.05270   0.49352   0.75916   0.00000  Uiso   1.00
C1046  C     0.19141   0.46060   0.96128   0.00000  Uiso   1.00
C1047  C     0.20773   0.43709   0.98187   0.00000  Uiso   1.00
C1048  C     0.28124   0.50610   0.74063   0.00000  Uiso   1.00
C1049  C     0.20092   0.44661   0.52231   0.00000  Uiso   1.00
C1050  C     0.17923   0.48168   0.54209   0.00000  Uiso   1.00
C1051  C     0.21725   0.42242   0.54268   0.00000  Uiso   1.00
C1052  C     0.21269   0.43261   0.58273   0.00000  Uiso   1.00
C1053  C     0.18448   0.49795   0.57970   0.00000  Uiso   1.00
C1054  C     0.32747   0.50439   0.73470   0.00000  Uiso   1.00
C1055  C     0.00748   0.49316   0.76428   0.00000  Uiso   1.00
C1056  C     0.12016   0.56639   0.91812   0.00000  Uiso   1.00
C1057  C     0.18108   0.65568   0.73827   0.00000  Uiso   1.00
C1058  C     0.15160   0.34551   0.76230   0.00000  Uiso   1.00
C1059  C     0.15589   0.38958   0.75901   0.00000  Uiso   1.00
C1060  C     0.17690   0.61106   0.74137   0.00000  Uiso   1.00
C1061  C     0.18764   0.47944   0.64403   0.00000  Uiso   1.00
C1062  C     0.14493   0.52055   0.85617   0.00000  Uiso   1.00
C1063  C     0.13521   0.52841   0.89921   0.00000  Uiso   1.00
C1064  C     0.19648   0.47063   0.60133   0.00000  Uiso   1.00
C1065  C     0.11032   0.57476   0.95900   0.00000  Uiso   1.00
C1066  C     0.02786   0.51320   0.69523   0.00000  Uiso   1.00
C1067  C     0.14103   0.49828   0.92150   0.00000  Uiso   1.00
C1068  C     0.01199   0.52312   0.66175   0.00000  Uiso   1.00
C1069  C     0.18609   0.54519   0.59330   0.00000  Uiso   1.00
C1070  C     0.21747   0.57148   0.56217   0.00000  Uiso   1.00
C1071  C     0.14176   0.51107   0.96081   0.00000  Uiso   1.00
C1072  C     0.12072   0.54663   0.98079   0.00000  Uiso   1.00
C1073  C     0.16234   0.48980   0.98115   0.00000  Uiso   1.00
C1074  C     0.15568   0.50001   0.52227   0.00000  Uiso   1.00
C1075  C     0.12416   0.52661   0.54240   0.00000  Uiso   1.00
C1076  C     0.10932   0.55181   0.52206   0.00000  Uiso   1.00
H1077  H     0.08806   0.57450   0.53908   0.00000  Uiso   1.00
H1078  H     0.33206   0.55382   0.66899   0.00000  Uiso   1.00
H1079  H     0.03956   0.52546   0.63471   0.00000  Uiso   1.00
H1080  H     0.05154   0.53981   0.70076   0.00000  Uiso   1.00
H1081  H     0.04538   0.48511   0.68367   0.00000  Uiso   1.00
H1082  H     0.32071   0.48264   0.86938   0.00000  Uiso   1.00
H1083  H     0.24961   0.55984   0.55286   0.00000  Uiso   1.00
H1084  H     0.20589   0.57063   0.53597   0.00000  Uiso   1.00
H1085  H     0.22087   0.60469   0.57476   0.00000  Uiso   1.00
H1086  H     0.15431   0.55692   0.60309   0.00000  Uiso   1.00
H1087  H     0.19772   0.55303   0.61955   0.00000  Uiso   1.00
H1088  H     0.23239   0.39481   0.52749   0.00000  Uiso   1.00
H1089  H     0.19749   0.35481   0.65142   0.00000  Uiso   1.00
H1090  H     0.11789   0.66387   0.93593   0.00000  Uiso   1.00
H1091  H     0.19488   0.44445   0.86920   0.00000  Uiso   1.00
H1092  H     0.20834   0.33645   0.71633   0.00000  Uiso   1.00
H1093  H     0.12391   0.66551   0.78427   0.00000  Uiso   1.00
H1094  H     0.22735   0.41258   0.96580   0.00000  Uiso   1.00
H1095  H     0.11480   0.58897   0.90091   0.00000  Uiso   1.00
H1096  H     0.11051   0.52796   0.57387   0.00000  Uiso   1.00
H1097  H     0.20188   0.45554   0.92976   0.00000  Uiso   1.00
H1098  H     0.32113   0.49767   0.65516   0.00000  Uiso   1.00
O1099  O     0.16667   0.50000   0.75000   0.00000  Uiso   1.00
O1100  O     0.15693   0.45726   0.66625   0.00000  Uiso   1.00
O1101  O     0.12687   0.53979   0.83749   0.00000  Uiso   1.00
O1102  O     0.21088   0.50826   0.65877   0.00000  Uiso   1.00
O1103  O     0.17198   0.49468   0.83749   0.00000  Uiso   1.00
O1104  O     0.28174   0.52269   0.82959   0.00000  Uiso   1.00
O1105  O     0.28031   0.44611   0.81500   0.00000  Uiso   1.00
O1106  O     0.00737   0.48629   0.84281   0.00000  Uiso   1.00
O1107  O     0.25555   0.36660   0.57994   0.00000  Uiso   1.00
O1108  O     0.25659   0.42325   0.63286   0.00000  Uiso   1.00
O1109  O     0.18601   0.37330   0.63809   0.00000  Uiso   1.00
O1110  O     0.17849   0.41434   0.77821   0.00000  Uiso   1.00
O1111  O     0.04288   0.61181   0.50612   0.00000  Uiso   1.00
O1112  O     0.11424   0.64584   0.50699   0.00000  Uiso   1.00
O1113  O     0.08751   0.65249   0.94691   0.00000  Uiso   1.00
O1114  O     0.11095   0.42005   0.94227   0.00000  Uiso   1.00
O1115  O     0.09462   0.43976   0.88544   0.00000  Uiso   1.00
O1116  O     0.17139   0.42150   0.87610   0.00000  Uiso   1.00
O1117  O     0.14581   0.59469   0.76767   0.00000  Uiso   1.00
O1118  O     0.07452   0.46584   0.73607   0.00000  Uiso   1.00
O1119  O     0.26785   0.52512   0.71805   0.00000  Uiso   1.00
O1120  O     0.06990   0.52293   0.77820   0.00000  Uiso   1.00
O1121  O     0.25440   0.48610   0.76767   0.00000  Uiso   1.00
O1122  O     0.13800   0.40236   0.73607   0.00000  Uiso   1.00
O1123  O     0.20437   0.58860   0.71806   0.00000  Uiso   1.00
S1124  S     0.30881   0.48698   0.81385   0.00000  Uiso   1.00
S1125  S     0.22967   0.39838   0.60837   0.00000  Uiso   1.00
S1126  S     0.08820   0.62208   0.98118   0.00000  Uiso   1.00
S1127  S     0.12853   0.44384   0.90655   0.00000  Uiso   1.00
Zn1128 Zn    0.19244   0.47423   0.78278   0.00000  Uiso   1.00
Zn1129 Zn    0.13459   0.45711   0.72258   0.00000  Uiso   1.00
Zn1130 Zn    0.21166   0.52997   0.71188   0.00000  Uiso   1.00
Zn1131 Zn    0.12798   0.53868   0.78277   0.00000  Uiso   1.00
C1132  C     0.38603   0.49352   0.75916   0.00000  Uiso   1.00
C1133  C     0.52474   0.46060   0.96128   0.00000  Uiso   1.00
C1134  C     0.54106   0.43709   0.98187   0.00000  Uiso   1.00
C1135  C     0.61457   0.50610   0.74063   0.00000  Uiso   1.00
C1136  C     0.53425   0.44661   0.52231   0.00000  Uiso   1.00
C1137  C     0.51256   0.48168   0.54209   0.00000  Uiso   1.00
C1138  C     0.55058   0.42242   0.54268   0.00000  Uiso   1.00
C1139  C     0.54603   0.43261   0.58273   0.00000  Uiso   1.00
C1140  C     0.51782   0.49795   0.57970   0.00000  Uiso   1.00
C1141  C     0.66080   0.50439   0.73470   0.00000  Uiso   1.00
C1142  C     0.34082   0.49316   0.76428   0.00000  Uiso   1.00
C1143  C     0.45349   0.56639   0.91812   0.00000  Uiso   1.00
C1144  C     0.51441   0.65568   0.73827   0.00000  Uiso   1.00
C1145  C     0.48494   0.34551   0.76230   0.00000  Uiso   1.00
C1146  C     0.48922   0.38958   0.75901   0.00000  Uiso   1.00
C1147  C     0.51024   0.61106   0.74137   0.00000  Uiso   1.00
C1148  C     0.52097   0.47944   0.64403   0.00000  Uiso   1.00
C1149  C     0.47826   0.52055   0.85617   0.00000  Uiso   1.00
C1150  C     0.46855   0.52841   0.89921   0.00000  Uiso   1.00
C1151  C     0.52981   0.47063   0.60133   0.00000  Uiso   1.00
C1152  C     0.44365   0.57476   0.95900   0.00000  Uiso   1.00
C1153  C     0.36119   0.51320   0.69523   0.00000  Uiso   1.00
C1154  C     0.47437   0.49828   0.92150   0.00000  Uiso   1.00
C1155  C     0.34533   0.52312   0.66175   0.00000  Uiso   1.00
C1156  C     0.51943   0.54519   0.59330   0.00000  Uiso   1.00
C1157  C     0.55081   0.57148   0.56217   0.00000  Uiso   1.00
C1158  C     0.47510   0.51107   0.96081   0.00000  Uiso   1.00
C1159  C     0.45405   0.54663   0.98079   0.00000  Uiso   1.00
C1160  C     0.49568   0.48980   0.98115   0.00000  Uiso   1.00
C1161  C     0.48901   0.50001   0.52227   0.00000  Uiso   1.00
C1162  C     0.45750   0.52661   0.54240   0.00000  Uiso   1.00
C1163  C     0.44265   0.55181   0.52206   0.00000  Uiso   1.00
H1164  H     0.42139   0.57450   0.53908   0.00000  Uiso   1.00
H1165  H     0.66539   0.55382   0.66899   0.00000  Uiso   1.00
H1166  H     0.37289   0.52546   0.63471   0.00000  Uiso   1.00
H1167  H     0.38488   0.53981   0.70076   0.00000  Uiso   1.00
H1168  H     0.37871   0.48511   0.68367   0.00000  Uiso   1.00
H1169  H     0.65405   0.48264   0.86938   0.00000  Uiso   1.00
H1170  H     0.58295   0.55984   0.55286   0.00000  Uiso   1.00
H1171  H     0.53923   0.57063   0.53597   0.00000  Uiso   1.00
H1172  H     0.55420   0.60469   0.57476   0.00000  Uiso   1.00
H1173  H     0.48764   0.55692   0.60309   0.00000  Uiso   1.00
H1174  H     0.53105   0.55303   0.61955   0.00000  Uiso   1.00
H1175  H     0.56573   0.39481   0.52749   0.00000  Uiso   1.00
H1176  H     0.53082   0.35481   0.65142   0.00000  Uiso   1.00
H1177  H     0.45122   0.66387   0.93593   0.00000  Uiso   1.00
H1178  H     0.52821   0.44445   0.86920   0.00000  Uiso   1.00
H1179  H     0.54167   0.33645   0.71633   0.00000  Uiso   1.00
H1180  H     0.45725   0.66551   0.78427   0.00000  Uiso   1.00
H1181  H     0.56069   0.41258   0.96580   0.00000  Uiso   1.00
H1182  H     0.44814   0.58897   0.90091   0.00000  Uiso   1.00
H1183  H     0.44385   0.52796   0.57387   0.00000  Uiso   1.00
H1184  H     0.53522   0.45554   0.92976   0.00000  Uiso   1.00
H1185  H     0.65446   0.49767   0.65516   0.00000  Uiso   1.00
O1186  O     0.50000   0.50000   0.75000   0.00000  Uiso   1.00
O1187  O     0.49027   0.45726   0.66625   0.00000  Uiso   1.00
O1188  O     0.46020   0.53979   0.83749   0.00000  Uiso   1.00
O1189  O     0.54421   0.50826   0.65877   0.00000  Uiso   1.00
O1190  O     0.50532   0.49468   0.83749   0.00000  Uiso   1.00
O1191  O     0.61508   0.52269   0.82959   0.00000  Uiso   1.00
O1192  O     0.61364   0.44611   0.81500   0.00000  Uiso   1.00
O1193  O     0.34070   0.48629   0.84281   0.00000  Uiso   1.00
O1194  O     0.58888   0.36660   0.57994   0.00000  Uiso   1.00
O1195  O     0.58993   0.42325   0.63286   0.00000  Uiso   1.00
O1196  O     0.51934   0.37330   0.63809   0.00000  Uiso   1.00
O1197  O     0.51182   0.41434   0.77821   0.00000  Uiso   1.00
O1198  O     0.37622   0.61181   0.50612   0.00000  Uiso   1.00
O1199  O     0.44757   0.64584   0.50699   0.00000  Uiso   1.00
O1200  O     0.42084   0.65249   0.94691   0.00000  Uiso   1.00
O1201  O     0.44428   0.42005   0.94227   0.00000  Uiso   1.00
O1202  O     0.42795   0.43976   0.88544   0.00000  Uiso   1.00
O1203  O     0.50472   0.42150   0.87610   0.00000  Uiso   1.00
O1204  O     0.47914   0.59469   0.76767   0.00000  Uiso   1.00
O1205  O     0.40785   0.46584   0.73607   0.00000  Uiso   1.00
O1206  O     0.60119   0.52512   0.71805   0.00000  Uiso   1.00
O1207  O     0.40323   0.52293   0.77820   0.00000  Uiso   1.00
O1208  O     0.58773   0.48610   0.76767   0.00000  Uiso   1.00
O1209  O     0.47133   0.40236   0.73607   0.00000  Uiso   1.00
O1210  O     0.53771   0.58860   0.71806   0.00000  Uiso   1.00
S1211  S     0.64215   0.48698   0.81385   0.00000  Uiso   1.00
S1212  S     0.56300   0.39838   0.60837   0.00000  Uiso   1.00
S1213  S     0.42153   0.62208   0.98118   0.00000  Uiso   1.00
S1214  S     0.46186   0.44384   0.90655   0.00000  Uiso   1.00
Zn1215 Zn    0.52577   0.47423   0.78278   0.00000  Uiso   1.00
Zn1216 Zn    0.46792   0.45711   0.72258   0.00000  Uiso   1.00
Zn1217 Zn    0.54500   0.52997   0.71188   0.00000  Uiso   1.00
Zn1218 Zn    0.46131   0.53868   0.78277   0.00000  Uiso   1.00
C1219  C     0.71936   0.49352   0.75916   0.00000  Uiso   1.00
C1220  C     0.85808   0.46060   0.96128   0.00000  Uiso   1.00
C1221  C     0.87439   0.43709   0.98187   0.00000  Uiso   1.00
C1222  C     0.94790   0.50610   0.74063   0.00000  Uiso   1.00
C1223  C     0.86758   0.44661   0.52231   0.00000  Uiso   1.00
C1224  C     0.84590   0.48168   0.54209   0.00000  Uiso   1.00
C1225  C     0.88392   0.42242   0.54268   0.00000  Uiso   1.00
C1226  C     0.87936   0.43261   0.58273   0.00000  Uiso   1.00
C1227  C     0.85115   0.49795   0.57970   0.00000  Uiso   1.00
C1228  C     0.99414   0.50439   0.73470   0.00000  Uiso   1.00
C1229  C     0.67415   0.49316   0.76428   0.00000  Uiso   1.00
C1230  C     0.78682   0.56639   0.91812   0.00000  Uiso   1.00
C1231  C     0.84774   0.65568   0.73827   0.00000  Uiso   1.00
C1232  C     0.81827   0.34551   0.76230   0.00000  Uiso   1.00
C1233  C     0.82256   0.38958   0.75901   0.00000  Uiso   1.00
C1234  C     0.84357   0.61106   0.74137   0.00000  Uiso   1.00
C1235  C     0.85431   0.47944   0.64403   0.00000  Uiso   1.00
C1236  C     0.81159   0.52055   0.85617   0.00000  Uiso   1.00
C1237  C     0.80188   0.52841   0.89921   0.00000  Uiso   1.00
C1238  C     0.86314   0.47063   0.60133   0.00000  Uiso   1.00
C1239  C     0.77698   0.57476   0.95900   0.00000  Uiso   1.00
C1240  C     0.69453   0.51320   0.69523   0.00000  Uiso   1.00
C1241  C     0.80770   0.49828   0.92150   0.00000  Uiso   1.00
C1242  C     0.67866   0.52312   0.66175   0.00000  Uiso   1.00
C1243  C     0.85276   0.54519   0.59330   0.00000  Uiso   1.00
C1244  C     0.88414   0.57148   0.56217   0.00000  Uiso   1.00
C1245  C     0.80843   0.51107   0.96081   0.00000  Uiso   1.00
C1246  C     0.78739   0.54663   0.98079   0.00000  Uiso   1.00
C1247  C     0.82901   0.48980   0.98115   0.00000  Uiso   1.00
C1248  C     0.82235   0.50001   0.52227   0.00000  Uiso   1.00
C1249  C     0.79083   0.52661   0.54240   0.00000  Uiso   1.00
C1250  C     0.77598   0.55181   0.52206   0.00000  Uiso   1.00
H1251  H     0.75472   0.57450   0.53908   0.00000  Uiso   1.00
H1252  H     0.99873   0.55382   0.66899   0.00000  Uiso   1.00
H1253  H     0.70623   0.52546   0.63471   0.00000  Uiso   1.00
H1254  H     0.71821   0.53981   0.70076   0.00000  Uiso   1.00
H1255  H     0.71204   0.48511   0.68367   0.00000  Uiso   1.00
H1256  H     0.98738   0.48264   0.86938   0.00000  Uiso   1.00
H1257  H     0.91628   0.55984   0.55286   0.00000  Uiso   1.00
H1258  H     0.87256   0.57063   0.53597   0.00000  Uiso   1.00
H1259  H     0.88754   0.60469   0.57476   0.00000  Uiso   1.00
H1260  H     0.82097   0.55692   0.60309   0.00000  Uiso   1.00
H1261  H     0.86439   0.55303   0.61955   0.00000  Uiso   1.00
H1262  H     0.89906   0.39481   0.52749   0.00000  Uiso   1.00
H1263  H     0.86416   0.35481   0.65142   0.00000  Uiso   1.00
H1264  H     0.78455   0.66387   0.93593   0.00000  Uiso   1.00
H1265  H     0.86154   0.44445   0.86920   0.00000  Uiso   1.00
H1266  H     0.87501   0.33645   0.71633   0.00000  Uiso   1.00
H1267  H     0.79058   0.66551   0.78427   0.00000  Uiso   1.00
H1268  H     0.89402   0.41258   0.96580   0.00000  Uiso   1.00
H1269  H     0.78147   0.58897   0.90091   0.00000  Uiso   1.00
H1270  H     0.77718   0.52796   0.57387   0.00000  Uiso   1.00
H1271  H     0.86855   0.45554   0.92976   0.00000  Uiso   1.00
H1272  H     0.98779   0.49767   0.65516   0.00000  Uiso   1.00
O1273  O     0.83333   0.50000   0.75000   0.00000  Uiso   1.00
O1274  O     0.82360   0.45726   0.66625   0.00000  Uiso   1.00
O1275  O     0.79354   0.53979   0.83749   0.00000  Uiso   1.00
O1276  O     0.87755   0.50826   0.65877   0.00000  Uiso   1.00
O1277  O     0.83865   0.49468   0.83749   0.00000  Uiso   1.00
O1278  O     0.94841   0.52269   0.82959   0.00000  Uiso   1.00
O1279  O     0.94697   0.44611   0.81500   0.00000  Uiso   1.00
O1280  O     0.67403   0.48629   0.84281   0.00000  Uiso   1.00
O1281  O     0.92222   0.36660   0.57994   0.00000  Uiso   1.00
O1282  O     0.92326   0.42325   0.63286   0.00000  Uiso   1.00
O1283  O     0.85268   0.37330   0.63809   0.00000  Uiso   1.00
O1284  O     0.84515   0.41434   0.77821   0.00000  Uiso   1.00
O1285  O     0.70955   0.61181   0.50612   0.00000  Uiso   1.00
O1286  O     0.78090   0.64584   0.50699   0.00000  Uiso   1.00
O1287  O     0.75417   0.65249   0.94691   0.00000  Uiso   1.00
O1288  O     0.77762   0.42005   0.94227   0.00000  Uiso   1.00
O1289  O     0.76129   0.43976   0.88544   0.00000  Uiso   1.00
O1290  O     0.83805   0.42150   0.87610   0.00000  Uiso   1.00
O1291  O     0.81247   0.59469   0.76767   0.00000  Uiso   1.00
O1292  O     0.74119   0.46584   0.73607   0.00000  Uiso   1.00
O1293  O     0.93452   0.52512   0.71805   0.00000  Uiso   1.00
O1294  O     0.73656   0.52293   0.77820   0.00000  Uiso   1.00
O1295  O     0.92106   0.48610   0.76767   0.00000  Uiso   1.00
O1296  O     0.80467   0.40236   0.73607   0.00000  Uiso   1.00
O1297  O     0.87104   0.58860   0.71806   0.00000  Uiso   1.00
S1298  S     0.97548   0.48698   0.81385   0.00000  Uiso   1.00
S1299  S     0.89633   0.39838   0.60837   0.00000  Uiso   1.00
S1300  S     0.75487   0.62208   0.98118   0.00000  Uiso   1.00
S1301  S     0.79520   0.44384   0.90655   0.00000  Uiso   1.00
Zn1302 Zn    0.85910   0.47423   0.78278   0.00000  Uiso   1.00
Zn1303 Zn    0.80125   0.45711   0.72258   0.00000  Uiso   1.00
Zn1304 Zn    0.87833   0.52997   0.71188   0.00000  Uiso   1.00
Zn1305 Zn    0.79465   0.53868   0.78277   0.00000  Uiso   1.00
C1306  C     0.05270   0.82685   0.75916   0.00000  Uiso   1.00
C1307  C     0.19141   0.79393   0.96128   0.00000  Uiso   1.00
C1308  C     0.20773   0.77043   0.98187   0.00000  Uiso   1.00
C1309  C     0.28124   0.83943   0.74063   0.00000  Uiso   1.00
C1310  C     0.20092   0.77994   0.52231   0.00000  Uiso   1.00
C1311  C     0.17923   0.81502   0.54209   0.00000  Uiso   1.00
C1312  C     0.21725   0.75575   0.54268   0.00000  Uiso   1.00
C1313  C     0.21269   0.76594   0.58273   0.00000  Uiso   1.00
C1314  C     0.18448   0.83128   0.57970   0.00000  Uiso   1.00
C1315  C     0.32747   0.83773   0.73470   0.00000  Uiso   1.00
C1316  C     0.00748   0.82649   0.76428   0.00000  Uiso   1.00
C1317  C     0.12016   0.89972   0.91812   0.00000  Uiso   1.00
C1318  C     0.18108   0.98901   0.73827   0.00000  Uiso   1.00
C1319  C     0.15160   0.67884   0.76230   0.00000  Uiso   1.00
C1320  C     0.15589   0.72291   0.75901   0.00000  Uiso   1.00
C1321  C     0.17690   0.94440   0.74137   0.00000  Uiso   1.00
C1322  C     0.18764   0.81278   0.64403   0.00000  Uiso   1.00
C1323  C     0.14493   0.85388   0.85617   0.00000  Uiso   1.00
C1324  C     0.13521   0.86175   0.89921   0.00000  Uiso   1.00
C1325  C     0.19648   0.80396   0.60133   0.00000  Uiso   1.00
C1326  C     0.11032   0.90810   0.95900   0.00000  Uiso   1.00
C1327  C     0.02786   0.84653   0.69523   0.00000  Uiso   1.00
C1328  C     0.14103   0.83161   0.92150   0.00000  Uiso   1.00
C1329  C     0.01199   0.85645   0.66175   0.00000  Uiso   1.00
C1330  C     0.18609   0.87852   0.59330   0.00000  Uiso   1.00
C1331  C     0.21747   0.90481   0.56217   0.00000  Uiso   1.00
C1332  C     0.14176   0.84440   0.96081   0.00000  Uiso   1.00
C1333  C     0.12072   0.87996   0.98079   0.00000  Uiso   1.00
C1334  C     0.16234   0.82313   0.98115   0.00000  Uiso   1.00
C1335  C     0.15568   0.83334   0.52227   0.00000  Uiso   1.00
C1336  C     0.12416   0.85994   0.54240   0.00000  Uiso   1.00
C1337  C     0.10932   0.88514   0.52206   0.00000  Uiso   1.00
H1338  H     0.08806   0.90783   0.53908   0.00000  Uiso   1.00
H1339  H     0.33206   0.88715   0.66899   0.00000  Uiso   1.00
H1340  H     0.03956   0.85879   0.63471   0.00000  Uiso   1.00
H1341  H     0.05154   0.87314   0.70076   0.00000  Uiso   1.00
H1342  H     0.04538   0.81844   0.68367   0.00000  Uiso   1.00
H1343  H     0.32071   0.81597   0.86938   0.00000  Uiso   1.00
H1344  H     0.24961   0.89318   0.55286   0.00000  Uiso   1.00
H1345  H     0.20589   0.90396   0.53597   0.00000  Uiso   1.00
H1346  H     0.22087   0.93802   0.57476   0.00000  Uiso   1.00
H1347  H     0.15431   0.89026   0.60309   0.00000  Uiso   1.00
H1348  H     0.19772   0.88636   0.61955   0.00000  Uiso   1.00
H1349  H     0.23239   0.72814   0.52749   0.00000  Uiso   1.00
H1350  H     0.19749   0.68814   0.65142   0.00000  Uiso   1.00
H1351  H     0.11789   0.99720   0.93593   0.00000  Uiso   1.00
H1352  H     0.19488   0.77778   0.86920   0.00000  Uiso   1.00
H1353  H     0.20834   0.66979   0.71633   0.00000  Uiso   1.00
H1354  H     0.12391   0.99884   0.78427   0.00000  Uiso   1.00
H1355  H     0.22735   0.74592   0.96580   0.00000  Uiso   1.00
H1356  H     0.11480   0.92230   0.90091   0.00000  Uiso   1.00
H1357  H     0.11051   0.86129   0.57387   0.00000  Uiso   1.00
H1358  H     0.20188   0.78888   0.92976   0.00000  Uiso   1.00
H1359  H     0.32113   0.83100   0.65516   0.00000  Uiso   1.00
O1360  O     0.16667   0.83333   0.75000   0.00000  Uiso   1.00
O1361  O     0.15693   0.79060   0.66625   0.00000  Uiso   1.00
O1362  O     0.12687   0.87313   0.83749   0.00000  Uiso   1.00
O1363  O     0.21088   0.84159   0.65877   0.00000  Uiso   1.00
O1364  O     0.17198   0.82802   0.83749   0.00000  Uiso   1.00
O1365  O     0.28174   0.85603   0.82959   0.00000  Uiso   1.00
O1366  O     0.28031   0.77944   0.81500   0.00000  Uiso   1.00
O1367  O     0.00737   0.81962   0.84281   0.00000  Uiso   1.00
O1368  O     0.25555   0.69993   0.57994   0.00000  Uiso   1.00
O1369  O     0.25659   0.75658   0.63286   0.00000  Uiso   1.00
O1370  O     0.18601   0.70663   0.63809   0.00000  Uiso   1.00
O1371  O     0.17849   0.74768   0.77821   0.00000  Uiso   1.00
O1372  O     0.04288   0.94515   0.50612   0.00000  Uiso   1.00
O1373  O     0.11424   0.97918   0.50699   0.00000  Uiso   1.00
O1374  O     0.08751   0.98582   0.94691   0.00000  Uiso   1.00
O1375  O     0.11095   0.75339   0.94227   0.00000  Uiso   1.00
O1376  O     0.09462   0.77309   0.88544   0.00000  Uiso   1.00
O1377  O     0.17139   0.75483   0.87610   0.00000  Uiso   1.00
O1378  O     0.14581   0.92803   0.76767   0.00000  Uiso   1.00
O1379  O     0.07452   0.79917   0.73607   0.00000  Uiso   1.00
O1380  O     0.26785   0.85845   0.71805   0.00000  Uiso   1.00
O1381  O     0.06990   0.85627   0.77820   0.00000  Uiso   1.00
O1382  O     0.25440   0.81944   0.76767   0.00000  Uiso   1.00
O1383  O     0.13800   0.73570   0.73607   0.00000  Uiso   1.00
O1384  O     0.20437   0.92193   0.71806   0.00000  Uiso   1.00
S1385  S     0.30881   0.82031   0.81385   0.00000  Uiso   1.00
S1386  S     0.22967   0.73172   0.60837   0.00000  Uiso   1.00
S1387  S     0.08820   0.95542   0.98118   0.00000  Uiso   1.00
S1388  S     0.12853   0.77717   0.90655   0.00000  Uiso   1.00
Zn1389 Zn    0.19244   0.80756   0.78278   0.00000  Uiso   1.00
Zn1390 Zn    0.13459   0.79044   0.72258   0.00000  Uiso   1.00
Zn1391 Zn    0.21166   0.86331   0.71188   0.00000  Uiso   1.00
Zn1392 Zn    0.12798   0.87202   0.78277   0.00000  Uiso   1.00
C1393  C     0.38603   0.82685   0.75916   0.00000  Uiso   1.00
C1394  C     0.52474   0.79393   0.96128   0.00000  Uiso   1.00
C1395  C     0.54106   0.77043   0.98187   0.00000  Uiso   1.00
C1396  C     0.61457   0.83943   0.74063   0.00000  Uiso   1.00
C1397  C     0.53425   0.77994   0.52231   0.00000  Uiso   1.00
C1398  C     0.51256   0.81502   0.54209   0.00000  Uiso   1.00
C1399  C     0.55058   0.75575   0.54268   0.00000  Uiso   1.00
C1400  C     0.54603   0.76594   0.58273   0.00000  Uiso   1.00
C1401  C     0.51782   0.83128   0.57970   0.00000  Uiso   1.00
C1402  C     0.66080   0.83773   0.73470   0.00000  Uiso   1.00
C1403  C     0.34082   0.82649   0.76428   0.00000  Uiso   1.00
C1404  C     0.45349   0.89972   0.91812   0.00000  Uiso   1.00
C1405  C     0.51441   0.98901   0.73827   0.00000  Uiso   1.00
C1406  C     0.48494   0.67884   0.76230   0.00000  Uiso   1.00
C1407  C     0.48922   0.72291   0.75901   0.00000  Uiso   1.00
C1408  C     0.51024   0.94440   0.74137   0.00000  Uiso   1.00
C1409  C     0.52097   0.81278   0.64403   0.00000  Uiso   1.00
C1410  C     0.47826   0.85388   0.85617   0.00000  Uiso   1.00
C1411  C     0.46855   0.86175   0.89921   0.00000  Uiso   1.00
C1412  C     0.52981   0.80396   0.60133   0.00000  Uiso   1.00
C1413  C     0.44365   0.90810   0.95900   0.00000  Uiso   1.00
C1414  C     0.36119   0.84653   0.69523   0.00000  Uiso   1.00
C1415  C     0.47437   0.83161   0.92150   0.00000  Uiso   1.00
C1416  C     0.34533   0.85645   0.66175   0.00000  Uiso   1.00
C1417  C     0.51943   0.87852   0.59330   0.00000  Uiso   1.00
C1418  C     0.55081   0.90481   0.56217   0.00000  Uiso   1.00
C1419  C     0.47510   0.84440   0.96081   0.00000  Uiso   1.00
C1420  C     0.45405   0.87996   0.98079   0.00000  Uiso   1.00
C1421  C     0.49568   0.82313   0.98115   0.00000  Uiso   1.00
C1422  C     0.48901   0.83334   0.52227   0.00000  Uiso   1.00
C1423  C     0.45750   0.85994   0.54240   0.00000  Uiso   1.00
C1424  C     0.44265   0.88514   0.52206   0.00000  Uiso   1.00
H1425  H     0.42139   0.90783   0.53908   0.00000  Uiso   1.00
H1426  H     0.66539   0.88715   0.66899   0.00000  Uiso   1.00
H1427  H     0.37289   0.85879   0.63471   0.00000  Uiso   1.00
H1428  H     0.38488   0.87314   0.70076   0.00000  Uiso   1.00
H1429  H     0.37871   0.81844   0.68367   0.00000  Uiso   1.00
H1430  H     0.65405   0.81597   0.86938   0.00000  Uiso   1.00
H1431  H     0.58295   0.89318   0.55286   0.00000  Uiso   1.00
H1432  H     0.53923   0.90396   0.53597   0.00000  Uiso   1.00
H1433  H     0.55420   0.93802   0.57476   0.00000  Uiso   1.00
H1434  H     0.48764   0.89026   0.60309   0.00000  Uiso   1.00
H1435  H     0.53105   0.88636   0.61955   0.00000  Uiso   1.00
H1436  H     0.56573   0.72814   0.52749   0.00000  Uiso   1.00
H1437  H     0.53082   0.68814   0.65142   0.00000  Uiso   1.00
H1438  H     0.45122   0.99720   0.93593   0.00000  Uiso   1.00
H1439  H     0.52821   0.77778   0.86920   0.00000  Uiso   1.00
H1440  H     0.54167   0.66979   0.71633   0.00000  Uiso   1.00
H1441  H     0.45725   0.99884   0.78427   0.00000  Uiso   1.00
H1442  H     0.56069   0.74592   0.96580   0.00000  Uiso   1.00
H1443  H     0.44814   0.92230   0.90091   0.00000  Uiso   1.00
H1444  H     0.44385   0.86129   0.57387   0.00000  Uiso   1.00
H1445  H     0.53522   0.78888   0.92976   0.00000  Uiso   1.00
H1446  H     0.65446   0.83100   0.65516   0.00000  Uiso   1.00
O1447  O     0.50000   0.83333   0.75000   0.00000  Uiso   1.00
O1448  O     0.49027   0.79060   0.66625   0.00000  Uiso   1.00
O1449  O     0.46020   0.87313   0.83749   0.00000  Uiso   1.00
O1450  O     0.54421   0.84159   0.65877   0.00000  Uiso   1.00
O1451  O     0.50532   0.82802   0.83749   0.00000  Uiso   1.00
O1452  O     0.61508   0.85603   0.82959   0.00000  Uiso   1.00
O1453  O     0.61364   0.77944   0.81500   0.00000  Uiso   1.00
O1454  O     0.34070   0.81962   0.84281   0.00000  Uiso   1.00
O1455  O     0.58888   0.69993   0.57994   0.00000  Uiso   1.00
O1456  O     0.58993   0.75658   0.63286   0.00000  Uiso   1.00
O1457  O     0.51934   0.70663   0.63809   0.00000  Uiso   1.00
O1458  O     0.51182   0.74768   0.77821   0.00000  Uiso   1.00
O1459  O     0.37622   0.94515   0.50612   0.00000  Uiso   1.00
O1460  O     0.44757   0.97918   0.50699   0.00000  Uiso   1.00
O1461  O     0.42084   0.98582   0.94691   0.00000  Uiso   1.00
O1462  O     0.44428   0.75339   0.94227   0.00000  Uiso   1.00
O1463  O     0.42795   0.77309   0.88544   0.00000  Uiso   1.00
O1464  O     0.50472   0.75483   0.87610   0.00000  Uiso   1.00
O1465  O     0.47914   0.92803   0.76767   0.00000  Uiso   1.00
O1466  O     0.40785   0.79917   0.73607   0.00000  Uiso   1.00
O1467  O     0.60119   0.85845   0.71805   0.00000  Uiso   1.00
O1468  O     0.40323   0.85627   0.77820   0.00000  Uiso   1.00
O1469  O     0.58773   0.81944   0.76767   0.00000  Uiso   1.00
O1470  O     0.47133   0.73570   0.73607   0.00000  Uiso   1.00
O1471  O     0.53771   0.92193   0.71806   0.00000  Uiso   1.00
S1472  S     0.64215   0.82031   0.81385   0.00000  Uiso   1.00
S1473  S     0.56300   0.73172   0.60837   0.00000  Uiso   1.00
S1474  S     0.42153   0.95542   0.98118   0.00000  Uiso   1.00
S1475  S     0.46186   0.77717   0.90655   0.00000  Uiso   1.00
Zn1476 Zn    0.52577   0.80756   0.78278   0.00000  Uiso   1.00
Zn1477 Zn    0.46792   0.79044   0.72258   0.00000  Uiso   1.00
Zn1478 Zn    0.54500   0.86331   0.71188   0.00000  Uiso   1.00
Zn1479 Zn    0.46131   0.87202   0.78277   0.00000  Uiso   1.00
C1480  C     0.71936   0.82685   0.75916   0.00000  Uiso   1.00
C1481  C     0.85808   0.79393   0.96128   0.00000  Uiso   1.00
C1482  C     0.87439   0.77043   0.98187   0.00000  Uiso   1.00
C1483  C     0.94790   0.83943   0.74063   0.00000  Uiso   1.00
C1484  C     0.86758   0.77994   0.52231   0.00000  Uiso   1.00
C1485  C     0.84590   0.81502   0.54209   0.00000  Uiso   1.00
C1486  C     0.88392   0.75575   0.54268   0.00000  Uiso   1.00
C1487  C     0.87936   0.76594   0.58273   0.00000  Uiso   1.00
C1488  C     0.85115   0.83128   0.57970   0.00000  Uiso   1.00
C1489  C     0.99414   0.83773   0.73470   0.00000  Uiso   1.00
C1490  C     0.67415   0.82649   0.76428   0.00000  Uiso   1.00
C1491  C     0.78682   0.89972   0.91812   0.00000  Uiso   1.00
C1492  C     0.84774   0.98901   0.73827   0.00000  Uiso   1.00
C1493  C     0.81827   0.67884   0.76230   0.00000  Uiso   1.00
C1494  C     0.82256   0.72291   0.75901   0.00000  Uiso   1.00
C1495  C     0.84357   0.94440   0.74137   0.00000  Uiso   1.00
C1496  C     0.85431   0.81278   0.64403   0.00000  Uiso   1.00
C1497  C     0.81159   0.85388   0.85617   0.00000  Uiso   1.00
C1498  C     0.80188   0.86175   0.89921   0.00000  Uiso   1.00
C1499  C     0.86314   0.80396   0.60133   0.00000  Uiso   1.00
C1500  C     0.77698   0.90810   0.95900   0.00000  Uiso   1.00
C1501  C     0.69453   0.84653   0.69523   0.00000  Uiso   1.00
C1502  C     0.80770   0.83161   0.92150   0.00000  Uiso   1.00
C1503  C     0.67866   0.85645   0.66175   0.00000  Uiso   1.00
C1504  C     0.85276   0.87852   0.59330   0.00000  Uiso   1.00
C1505  C     0.88414   0.90481   0.56217   0.00000  Uiso   1.00
C1506  C     0.80843   0.84440   0.96081   0.00000  Uiso   1.00
C1507  C     0.78739   0.87996   0.98079   0.00000  Uiso   1.00
C1508  C     0.82901   0.82313   0.98115   0.00000  Uiso   1.00
C1509  C     0.82235   0.83334   0.52227   0.00000  Uiso   1.00
C1510  C     0.79083   0.85994   0.54240   0.00000  Uiso   1.00
C1511  C     0.77598   0.88514   0.52206   0.00000  Uiso   1.00
H1512  H     0.75472   0.90783   0.53908   0.00000  Uiso   1.00
H1513  H     0.99873   0.88715   0.66899   0.00000  Uiso   1.00
H1514  H     0.70623   0.85879   0.63471   0.00000  Uiso   1.00
H1515  H     0.71821   0.87314   0.70076   0.00000  Uiso   1.00
H1516  H     0.71204   0.81844   0.68367   0.00000  Uiso   1.00
H1517  H     0.98738   0.81597   0.86938   0.00000  Uiso   1.00
H1518  H     0.91628   0.89318   0.55286   0.00000  Uiso   1.00
H1519  H     0.87256   0.90396   0.53597   0.00000  Uiso   1.00
H1520  H     0.88754   0.93802   0.57476   0.00000  Uiso   1.00
H1521  H     0.82097   0.89026   0.60309   0.00000  Uiso   1.00
H1522  H     0.86439   0.88636   0.61955   0.00000  Uiso   1.00
H1523  H     0.89906   0.72814   0.52749   0.00000  Uiso   1.00
H1524  H     0.86416   0.68814   0.65142   0.00000  Uiso   1.00
H1525  H     0.78455   0.99720   0.93593   0.00000  Uiso   1.00
H1526  H     0.86154   0.77778   0.86920   0.00000  Uiso   1.00
H1527  H     0.87501   0.66979   0.71633   0.00000  Uiso   1.00
H1528  H     0.79058   0.99884   0.78427   0.00000  Uiso   1.00
H1529  H     0.89402   0.74592   0.96580   0.00000  Uiso   1.00
H1530  H     0.78147   0.92230   0.90091   0.00000  Uiso   1.00
H1531  H     0.77718   0.86129   0.57387   0.00000  Uiso   1.00
H1532  H     0.86855   0.78888   0.92976   0.00000  Uiso   1.00
H1533  H     0.98779   0.83100   0.65516   0.00000  Uiso   1.00
O1534  O     0.83333   0.83333   0.75000   0.00000  Uiso   1.00
O1535  O     0.82360   0.79060   0.66625   0.00000  Uiso   1.00
O1536  O     0.79354   0.87313   0.83749   0.00000  Uiso   1.00
O1537  O     0.87755   0.84159   0.65877   0.00000  Uiso   1.00
O1538  O     0.83865   0.82802   0.83749   0.00000  Uiso   1.00
O1539  O     0.94841   0.85603   0.82959   0.00000  Uiso   1.00
O1540  O     0.94697   0.77944   0.81500   0.00000  Uiso   1.00
O1541  O     0.67403   0.81962   0.84281   0.00000  Uiso   1.00
O1542  O     0.92222   0.69993   0.57994   0.00000  Uiso   1.00
O1543  O     0.92326   0.75658   0.63286   0.00000  Uiso   1.00
O1544  O     0.85268   0.70663   0.63809   0.00000  Uiso   1.00
O1545  O     0.84515   0.74768   0.77821   0.00000  Uiso   1.00
O1546  O     0.70955   0.94515   0.50612   0.00000  Uiso   1.00
O1547  O     0.78090   0.97918   0.50699   0.00000  Uiso   1.00
O1548  O     0.75417   0.98582   0.94691   0.00000  Uiso   1.00
O1549  O     0.77762   0.75339   0.94227   0.00000  Uiso   1.00
O1550  O     0.76129   0.77309   0.88544   0.00000  Uiso   1.00
O1551  O     0.83805   0.75483   0.87610   0.00000  Uiso   1.00
O1552  O     0.81247   0.92803   0.76767   0.00000  Uiso   1.00
O1553  O     0.74119   0.79917   0.73607   0.00000  Uiso   1.00
O1554  O     0.93452   0.85845   0.71805   0.00000  Uiso   1.00
O1555  O     0.73656   0.85627   0.77820   0.00000  Uiso   1.00
O1556  O     0.92106   0.81944   0.76767   0.00000  Uiso   1.00
O1557  O     0.80467   0.73570   0.73607   0.00000  Uiso   1.00
O1558  O     0.87104   0.92193   0.71806   0.00000  Uiso   1.00
S1559  S     0.97548   0.82031   0.81385   0.00000  Uiso   1.00
S1560  S     0.89633   0.73172   0.60837   0.00000  Uiso   1.00
S1561  S     0.75487   0.95542   0.98118   0.00000  Uiso   1.00
S1562  S     0.79520   0.77717   0.90655   0.00000  Uiso   1.00
Zn1563 Zn    0.85910   0.80756   0.78278   0.00000  Uiso   1.00
Zn1564 Zn    0.80125   0.79044   0.72258   0.00000  Uiso   1.00
Zn1565 Zn    0.87833   0.86331   0.71188   0.00000  Uiso   1.00
Zn1566 Zn    0.79465   0.87202   0.78277   0.00000  Uiso   1.00
loop_
_geom_bond_atom_site_label_1
_geom_bond_atom_site_label_2
_geom_bond_distance
_geom_bond_site_symmetry_2
_ccdc_geom_bond_type
C1     C11     1.437   .     S
C1     O74     1.275   .     A
C1     O76     1.259   .     A
C2     C29     1.406   .     A
C2     H53     1.072   .     S
C2     C3      1.386   .     A
C3     H50     1.084   .     S
C3     C788    1.393   .     S
C4     O75     1.286   .     A
C4     C10     1.475   .     S
C4     O77     1.275   .     A
C5     C6      1.417   .     A
C5     C7      1.395   .     A
C5     C786    1.393   1_554 S
C6     C9      1.426   .     A
C6     C30     1.425   .     A
C7     C8      1.392   .     A
C7     H44     1.084   .     S
C8     C20     1.412   .     A
C8     S81     1.774   .     S
C9     C25     1.539   .     S
C9     C20     1.418   .     A
C10    C98     1.370   .     S
C10    C109    1.543   .     S
C11    C184    1.370   1_455 S
C11    S254    1.790   1_455 S
C12    C21     1.396   .     A
C12    H51     1.082   .     S
C12    C19     1.400   .     A
C13    C16     1.448   .     S
C13    C275    1.330   .     S
C13    H309    1.088   .     S
C14    C15     1.432   .     S
C14    C535    1.330   1_545 S
C14    H571    1.086   1_545 S
C15    O66     1.283   .     A
C15    O78     1.282   .     A
C16    O73     1.269   .     A
C16    O79     1.268   .     A
C17    C20     1.461   .     S
C17    O58     1.277   .     A
C17    O56     1.276   .     A
C18    C19     1.469   .     S
C18    O57     1.283   .     A
C18    O59     1.281   .     A
C19    C23     1.409   .     A
C21    C28     1.415   .     A
C21    S82     1.774   .     S
C22    C24     1.529   .     S
C22    H36     1.112   .     S
C22    H37     1.111   .     S
C22    C184    1.543   1_455 S
C23    S83     1.796   .     S
C23    C27     1.417   .     A
C24    H35     1.111   .     S
C24    H208    1.110   1_455 S
C24    H228    1.111   1_455 S
C25    H43     1.102   .     S
C25    C26     1.531   .     S
C25    H42     1.102   .     S
C26    H39     1.111   .     S
C26    H40     1.108   .     S
C26    H41     1.111   .     S
C27    C29     1.424   .     A
C27    C28     1.422   .     A
C28    C815    1.402   .     S
C29    C813    1.419   .     S
C30    C31     1.403   .     A
C30    C812    1.419   1_554 S
C31    H52     1.077   .     S
C31    C32     1.388   .     A
C32    H33     1.081   .     S
C32    C811    1.402   1_554 S
H34    C111    1.110   .     S
H38    O149    0.991   .     S
H45    O65     0.990   .     S
H46    O69     0.991   .     S
H47    O72     0.989   .     S
H48    C535    1.088   1_545 S
H49    C275    1.086   .     S
H54    C111    1.111   .     S
O55    Zn85    1.954   .     S
O55    Zn86    1.929   .     S
O55    Zn87    1.928   .     S
O55    Zn84    1.964   .     S
O56    Zn85    1.927   .     S
O57    Zn87    1.942   .     S
O58    Zn86    1.939   .     S
O59    Zn84    1.924   .     S
O60    S80     1.504   .     D
O61    S80     1.504   .     D
O62    H212    0.991   1_455 S
O62    S254    1.683   1_455 S
O63    S81     1.504   .     D
O64    S81     1.503   .     D
O65    S81     1.681   .     S
O66    Zn84    1.923   .     S
O67    S865    1.503   1_554 S
O68    S865    1.504   1_554 S
O69    S82     1.682   .     S
O70    S83     1.503   .     D
O71    S83     1.503   .     D
O72    S83     1.686   .     S
O73    Zn87    1.923   .     S
O74    Zn85    1.936   .     S
O75    Zn86    1.952   .     S
O76    Zn87    1.949   .     S
O77    Zn84    1.934   .     S
O78    Zn85    1.928   .     S
O79    Zn86    1.923   .     S
S80    C98     1.790   .     S
S80    O149    1.683   .     S
S82    O850    1.503   .     S
S82    O851    1.504   .     S
C88    C98     1.437   .     S
C88    O161    1.275   .     A
C88    O163    1.259   .     A
C89    C116    1.406   .     A
C89    H140    1.072   .     S
C89    C90     1.386   .     A
C90    H137    1.084   .     S
C90    C875    1.393   .     S
C91    O162    1.286   .     A
C91    C97     1.475   .     S
C91    O164    1.275   .     A
C92    C93     1.417   .     A
C92    C94     1.395   .     A
C92    C873    1.393   1_554 S
C93    C96     1.426   .     A
C93    C117    1.425   .     A
C94    C95     1.392   .     A
C94    H131    1.084   .     S
C95    C107    1.412   .     A
C95    S168    1.774   .     S
C96    C112    1.539   .     S
C96    C107    1.418   .     A
C97    C185    1.370   .     S
C97    C196    1.543   .     S
C99    C108    1.396   .     A
C99    H138    1.082   .     S
C99    C106    1.400   .     A
C100   C103    1.448   .     S
C100   C362    1.330   .     S
C100   H396    1.088   .     S
C101   C102    1.432   .     S
C101   C622    1.330   1_545 S
C101   H658    1.086   1_545 S
C102   O153    1.283   .     A
C102   O165    1.282   .     A
C103   O160    1.269   .     A
C103   O166    1.268   .     A
C104   C107    1.461   .     S
C104   O145    1.277   .     A
C104   O143    1.276   .     A
C105   C106    1.469   .     S
C105   O144    1.283   .     A
C105   O146    1.281   .     A
C106   C110    1.409   .     A
C108   C115    1.415   .     A
C108   S169    1.774   .     S
C109   C111    1.529   .     S
C109   H123    1.112   .     S
C109   H124    1.111   .     S
C110   S170    1.796   .     S
C110   C114    1.417   .     A
C111   H122    1.111   .     S
C112   H130    1.102   .     S
C112   C113    1.531   .     S
C112   H129    1.102   .     S
C113   H126    1.111   .     S
C113   H127    1.108   .     S
C113   H128    1.111   .     S
C114   C116    1.424   .     A
C114   C115    1.422   .     A
C115   C902    1.402   .     S
C116   C900    1.419   .     S
C117   C118    1.403   .     A
C117   C899    1.419   1_554 S
C118   H139    1.077   .     S
C118   C119    1.388   .     A
C119   H120    1.081   .     S
C119   C898    1.402   1_554 S
H121   C198    1.110   .     S
H125   O236    0.991   .     S
H132   O152    0.990   .     S
H133   O156    0.991   .     S
H134   O159    0.989   .     S
H135   C622    1.088   1_545 S
H136   C362    1.086   .     S
H141   C198    1.111   .     S
O142   Zn172   1.954   .     S
O142   Zn173   1.929   .     S
O142   Zn174   1.928   .     S
O142   Zn171   1.964   .     S
O143   Zn172   1.927   .     S
O144   Zn174   1.942   .     S
O145   Zn173   1.939   .     S
O146   Zn171   1.924   .     S
O147   S167    1.504   .     D
O148   S167    1.504   .     D
O150   S168    1.504   .     D
O151   S168    1.503   .     D
O152   S168    1.681   .     S
O153   Zn171   1.923   .     S
O154   S952    1.503   1_554 S
O155   S952    1.504   1_554 S
O156   S169    1.682   .     S
O157   S170    1.503   .     D
O158   S170    1.503   .     D
O159   S170    1.686   .     S
O160   Zn174   1.923   .     S
O161   Zn172   1.936   .     S
O162   Zn173   1.952   .     S
O163   Zn174   1.949   .     S
O164   Zn171   1.934   .     S
O165   Zn172   1.928   .     S
O166   Zn173   1.923   .     S
S167   C185    1.790   .     S
S167   O236    1.683   .     S
S169   O937    1.503   .     S
S169   O938    1.504   .     S
C175   C185    1.437   .     S
C175   O248    1.275   .     A
C175   O250    1.259   .     A
C176   C203    1.406   .     A
C176   H227    1.072   .     S
C176   C177    1.386   .     A
C177   H224    1.084   .     S
C177   C962    1.393   .     S
C178   O249    1.286   .     A
C178   C184    1.475   .     S
C178   O251    1.275   .     A
C179   C180    1.417   .     A
C179   C181    1.395   .     A
C179   C960    1.393   1_554 S
C180   C183    1.426   .     A
C180   C204    1.425   .     A
C181   C182    1.392   .     A
C181   H218    1.084   .     S
C182   C194    1.412   .     A
C182   S255    1.774   .     S
C183   C199    1.539   .     S
C183   C194    1.418   .     A
C184   C11     1.370   1_655 S
C184   C22     1.543   1_655 S
C186   C195    1.396   .     A
C186   H225    1.082   .     S
C186   C193    1.400   .     A
C187   C190    1.448   .     S
C187   C449    1.330   .     S
C187   H483    1.088   .     S
C188   C189    1.432   .     S
C188   C709    1.330   1_545 S
C188   H745    1.086   1_545 S
C189   O240    1.283   .     A
C189   O252    1.282   .     A
C190   O247    1.269   .     A
C190   O253    1.268   .     A
C191   C194    1.461   .     S
C191   O232    1.277   .     A
C191   O230    1.276   .     A
C192   C193    1.469   .     S
C192   O231    1.283   .     A
C192   O233    1.281   .     A
C193   C197    1.409   .     A
C195   C202    1.415   .     A
C195   S256    1.774   .     S
C196   C198    1.529   .     S
C196   H210    1.112   .     S
C196   H211    1.111   .     S
C197   S257    1.796   .     S
C197   C201    1.417   .     A
C198   H209    1.111   .     S
C199   H217    1.102   .     S
C199   C200    1.531   .     S
C199   H216    1.102   .     S
C200   H213    1.111   .     S
C200   H214    1.108   .     S
C200   H215    1.111   .     S
C201   C203    1.424   .     A
C201   C202    1.422   .     A
C202   C989    1.402   .     S
C203   C987    1.419   .     S
C204   C205    1.403   .     A
C204   C986    1.419   1_554 S
C205   H226    1.077   .     S
C205   C206    1.388   .     A
C206   H207    1.081   .     S
C206   C985    1.402   1_554 S
H208   C24     1.110   1_655 S
H212   O62     0.991   1_655 S
H219   O239    0.990   .     S
H220   O243    0.991   .     S
H221   O246    0.989   .     S
H222   C709    1.088   1_545 S
H223   C449    1.086   .     S
H228   C24     1.111   1_655 S
O229   Zn259   1.954   .     S
O229   Zn260   1.929   .     S
O229   Zn261   1.928   .     S
O229   Zn258   1.964   .     S
O230   Zn259   1.927   .     S
O231   Zn261   1.942   .     S
O232   Zn260   1.939   .     S
O233   Zn258   1.924   .     S
O234   S254    1.504   .     D
O235   S254    1.504   .     D
O237   S255    1.504   .     D
O238   S255    1.503   .     D
O239   S255    1.681   .     S
O240   Zn258   1.923   .     S
O241   S1039   1.503   1_554 S
O242   S1039   1.504   1_554 S
O243   S256    1.682   .     S
O244   S257    1.503   .     D
O245   S257    1.503   .     D
O246   S257    1.686   .     S
O247   Zn261   1.923   .     S
O248   Zn259   1.936   .     S
O249   Zn260   1.952   .     S
O250   Zn261   1.949   .     S
O251   Zn258   1.934   .     S
O252   Zn259   1.928   .     S
O253   Zn260   1.923   .     S
S254   C11     1.790   1_655 S
S254   O62     1.683   1_655 S
S256   O1024   1.503   .     S
S256   O1025   1.504   .     S
C262   C272    1.437   .     S
C262   O335    1.275   .     A
C262   O337    1.259   .     A
C263   C290    1.406   .     A
C263   H314    1.072   .     S
C263   C264    1.386   .     A
C264   H311    1.084   .     S
C264   C1049   1.393   .     S
C265   O336    1.286   .     A
C265   C271    1.475   .     S
C265   O338    1.275   .     A
C266   C267    1.417   .     A
C266   C268    1.395   .     A
C266   C1047   1.393   1_554 S
C267   C270    1.426   .     A
C267   C291    1.425   .     A
C268   C269    1.392   .     A
C268   H305    1.084   .     S
C269   C281    1.412   .     A
C269   S342    1.774   .     S
C270   C286    1.539   .     S
C270   C281    1.418   .     A
C271   C359    1.370   .     S
C271   C370    1.543   .     S
C272   C445    1.370   1_455 S
C272   S515    1.790   1_455 S
C273   C282    1.396   .     A
C273   H312    1.082   .     S
C273   C280    1.400   .     A
C274   C277    1.448   .     S
C274   C536    1.330   .     S
C274   H570    1.088   .     S
C275   C276    1.432   .     S
C276   O327    1.283   .     A
C276   O339    1.282   .     A
C277   O334    1.269   .     A
C277   O340    1.268   .     A
C278   C281    1.461   .     S
C278   O319    1.277   .     A
C278   O317    1.276   .     A
C279   C280    1.469   .     S
C279   O318    1.283   .     A
C279   O320    1.281   .     A
C280   C284    1.409   .     A
C282   C289    1.415   .     A
C282   S343    1.774   .     S
C283   C285    1.529   .     S
C283   H297    1.112   .     S
C283   H298    1.111   .     S
C283   C445    1.543   1_455 S
C284   S344    1.796   .     S
C284   C288    1.417   .     A
C285   H296    1.111   .     S
C285   H469    1.110   1_455 S
C285   H489    1.111   1_455 S
C286   H304    1.102   .     S
C286   C287    1.531   .     S
C286   H303    1.102   .     S
C287   H300    1.111   .     S
C287   H301    1.108   .     S
C287   H302    1.111   .     S
C288   C290    1.424   .     A
C288   C289    1.422   .     A
C289   C1076   1.402   .     S
C290   C1074   1.419   .     S
C291   C292    1.403   .     A
C291   C1073   1.419   1_554 S
C292   H313    1.077   .     S
C292   C293    1.388   .     A
C293   H294    1.081   .     S
C293   C1072   1.402   1_554 S
H295   C372    1.110   .     S
H299   O410    0.991   .     S
H306   O326    0.990   .     S
H307   O330    0.991   .     S
H308   O333    0.989   .     S
H310   C536    1.086   .     S
H315   C372    1.111   .     S
O316   Zn346   1.954   .     S
O316   Zn347   1.929   .     S
O316   Zn348   1.928   .     S
O316   Zn345   1.964   .     S
O317   Zn346   1.927   .     S
O318   Zn348   1.942   .     S
O319   Zn347   1.939   .     S
O320   Zn345   1.924   .     S
O321   S341    1.504   .     D
O322   S341    1.504   .     D
O323   H473    0.991   1_455 S
O323   S515    1.683   1_455 S
O324   S342    1.504   .     D
O325   S342    1.503   .     D
O326   S342    1.681   .     S
O327   Zn345   1.923   .     S
O328   S1126   1.503   1_554 S
O329   S1126   1.504   1_554 S
O330   S343    1.682   .     S
O331   S344    1.503   .     D
O332   S344    1.503   .     D
O333   S344    1.686   .     S
O334   Zn348   1.923   .     S
O335   Zn346   1.936   .     S
O336   Zn347   1.952   .     S
O337   Zn348   1.949   .     S
O338   Zn345   1.934   .     S
O339   Zn346   1.928   .     S
O340   Zn347   1.923   .     S
S341   C359    1.790   .     S
S341   O410    1.683   .     S
S343   O1111   1.503   .     S
S343   O1112   1.504   .     S
C349   C359    1.437   .     S
C349   O422    1.275   .     A
C349   O424    1.259   .     A
C350   C377    1.406   .     A
C350   H401    1.072   .     S
C350   C351    1.386   .     A
C351   H398    1.084   .     S
C351   C1136   1.393   .     S
C352   O423    1.286   .     A
C352   C358    1.475   .     S
C352   O425    1.275   .     A
C353   C354    1.417   .     A
C353   C355    1.395   .     A
C353   C1134   1.393   1_554 S
C354   C357    1.426   .     A
C354   C378    1.425   .     A
C355   C356    1.392   .     A
C355   H392    1.084   .     S
C356   C368    1.412   .     A
C356   S429    1.774   .     S
C357   C373    1.539   .     S
C357   C368    1.418   .     A
C358   C446    1.370   .     S
C358   C457    1.543   .     S
C360   C369    1.396   .     A
C360   H399    1.082   .     S
C360   C367    1.400   .     A
C361   C364    1.448   .     S
C361   C623    1.330   .     S
C361   H657    1.088   .     S
C362   C363    1.432   .     S
C363   O414    1.283   .     A
C363   O426    1.282   .     A
C364   O421    1.269   .     A
C364   O427    1.268   .     A
C365   C368    1.461   .     S
C365   O406    1.277   .     A
C365   O404    1.276   .     A
C366   C367    1.469   .     S
C366   O405    1.283   .     A
C366   O407    1.281   .     A
C367   C371    1.409   .     A
C369   C376    1.415   .     A
C369   S430    1.774   .     S
C370   C372    1.529   .     S
C370   H384    1.112   .     S
C370   H385    1.111   .     S
C371   S431    1.796   .     S
C371   C375    1.417   .     A
C372   H383    1.111   .     S
C373   H391    1.102   .     S
C373   C374    1.531   .     S
C373   H390    1.102   .     S
C374   H387    1.111   .     S
C374   H388    1.108   .     S
C374   H389    1.111   .     S
C375   C377    1.424   .     A
C375   C376    1.422   .     A
C376   C1163   1.402   .     S
C377   C1161   1.419   .     S
C378   C379    1.403   .     A
C378   C1160   1.419   1_554 S
C379   H400    1.077   .     S
C379   C380    1.388   .     A
C380   H381    1.081   .     S
C380   C1159   1.402   1_554 S
H382   C459    1.110   .     S
H386   O497    0.991   .     S
H393   O413    0.990   .     S
H394   O417    0.991   .     S
H395   O420    0.989   .     S
H397   C623    1.086   .     S
H402   C459    1.111   .     S
O403   Zn433   1.954   .     S
O403   Zn434   1.929   .     S
O403   Zn435   1.928   .     S
O403   Zn432   1.964   .     S
O404   Zn433   1.927   .     S
O405   Zn435   1.942   .     S
O406   Zn434   1.939   .     S
O407   Zn432   1.924   .     S
O408   S428    1.504   .     D
O409   S428    1.504   .     D
O411   S429    1.504   .     D
O412   S429    1.503   .     D
O413   S429    1.681   .     S
O414   Zn432   1.923   .     S
O415   S1213   1.503   1_554 S
O416   S1213   1.504   1_554 S
O417   S430    1.682   .     S
O418   S431    1.503   .     D
O419   S431    1.503   .     D
O420   S431    1.686   .     S
O421   Zn435   1.923   .     S
O422   Zn433   1.936   .     S
O423   Zn434   1.952   .     S
O424   Zn435   1.949   .     S
O425   Zn432   1.934   .     S
O426   Zn433   1.928   .     S
O427   Zn434   1.923   .     S
S428   C446    1.790   .     S
S428   O497    1.683   .     S
S430   O1198   1.503   .     S
S430   O1199   1.504   .     S
C436   C446    1.437   .     S
C436   O509    1.275   .     A
C436   O511    1.259   .     A
C437   C464    1.406   .     A
C437   H488    1.072   .     S
C437   C438    1.386   .     A
C438   H485    1.084   .     S
C438   C1223   1.393   .     S
C439   O510    1.286   .     A
C439   C445    1.475   .     S
C439   O512    1.275   .     A
C440   C441    1.417   .     A
C440   C442    1.395   .     A
C440   C1221   1.393   1_554 S
C441   C444    1.426   .     A
C441   C465    1.425   .     A
C442   C443    1.392   .     A
C442   H479    1.084   .     S
C443   C455    1.412   .     A
C443   S516    1.774   .     S
C444   C460    1.539   .     S
C444   C455    1.418   .     A
C445   C272    1.370   1_655 S
C445   C283    1.543   1_655 S
C447   C456    1.396   .     A
C447   H486    1.082   .     S
C447   C454    1.400   .     A
C448   C451    1.448   .     S
C448   C710    1.330   .     S
C448   H744    1.088   .     S
C449   C450    1.432   .     S
C450   O501    1.283   .     A
C450   O513    1.282   .     A
C451   O508    1.269   .     A
C451   O514    1.268   .     A
C452   C455    1.461   .     S
C452   O493    1.277   .     A
C452   O491    1.276   .     A
C453   C454    1.469   .     S
C453   O492    1.283   .     A
C453   O494    1.281   .     A
C454   C458    1.409   .     A
C456   C463    1.415   .     A
C456   S517    1.774   .     S
C457   C459    1.529   .     S
C457   H471    1.112   .     S
C457   H472    1.111   .     S
C458   S518    1.796   .     S
C458   C462    1.417   .     A
C459   H470    1.111   .     S
C460   H478    1.102   .     S
C460   C461    1.531   .     S
C460   H477    1.102   .     S
C461   H474    1.111   .     S
C461   H475    1.108   .     S
C461   H476    1.111   .     S
C462   C464    1.424   .     A
C462   C463    1.422   .     A
C463   C1250   1.402   .     S
C464   C1248   1.419   .     S
C465   C466    1.403   .     A
C465   C1247   1.419   1_554 S
C466   H487    1.077   .     S
C466   C467    1.388   .     A
C467   H468    1.081   .     S
C467   C1246   1.402   1_554 S
H469   C285    1.110   1_655 S
H473   O323    0.991   1_655 S
H480   O500    0.990   .     S
H481   O504    0.991   .     S
H482   O507    0.989   .     S
H484   C710    1.086   .     S
H489   C285    1.111   1_655 S
O490   Zn520   1.954   .     S
O490   Zn521   1.929   .     S
O490   Zn522   1.928   .     S
O490   Zn519   1.964   .     S
O491   Zn520   1.927   .     S
O492   Zn522   1.942   .     S
O493   Zn521   1.939   .     S
O494   Zn519   1.924   .     S
O495   S515    1.504   .     D
O496   S515    1.504   .     D
O498   S516    1.504   .     D
O499   S516    1.503   .     D
O500   S516    1.681   .     S
O501   Zn519   1.923   .     S
O502   S1300   1.503   1_554 S
O503   S1300   1.504   1_554 S
O504   S517    1.682   .     S
O505   S518    1.503   .     D
O506   S518    1.503   .     D
O507   S518    1.686   .     S
O508   Zn522   1.923   .     S
O509   Zn520   1.936   .     S
O510   Zn521   1.952   .     S
O511   Zn522   1.949   .     S
O512   Zn519   1.934   .     S
O513   Zn520   1.928   .     S
O514   Zn521   1.923   .     S
S515   C272    1.790   1_655 S
S515   O323    1.683   1_655 S
S517   O1285   1.503   .     S
S517   O1286   1.504   .     S
C523   C533    1.437   .     S
C523   O596    1.275   .     A
C523   O598    1.259   .     A
C524   C551    1.406   .     A
C524   H575    1.072   .     S
C524   C525    1.386   .     A
C525   H572    1.084   .     S
C525   C1310   1.393   .     S
C526   O597    1.286   .     A
C526   C532    1.475   .     S
C526   O599    1.275   .     A
C527   C528    1.417   .     A
C527   C529    1.395   .     A
C527   C1308   1.393   1_554 S
C528   C531    1.426   .     A
C528   C552    1.425   .     A
C529   C530    1.392   .     A
C529   H566    1.084   .     S
C530   C542    1.412   .     A
C530   S603    1.774   .     S
C531   C547    1.539   .     S
C531   C542    1.418   .     A
C532   C620    1.370   .     S
C532   C631    1.543   .     S
C533   C706    1.370   1_455 S
C533   S776    1.790   1_455 S
C534   C543    1.396   .     A
C534   H573    1.082   .     S
C534   C541    1.400   .     A
C535   C538    1.448   .     S
C535   C14     1.330   1_565 S
C535   H48     1.088   1_565 S
C536   C537    1.432   .     S
C537   O588    1.283   .     A
C537   O600    1.282   .     A
C538   O595    1.269   .     A
C538   O601    1.268   .     A
C539   C542    1.461   .     S
C539   O580    1.277   .     A
C539   O578    1.276   .     A
C540   C541    1.469   .     S
C540   O579    1.283   .     A
C540   O581    1.281   .     A
C541   C545    1.409   .     A
C543   C550    1.415   .     A
C543   S604    1.774   .     S
C544   C546    1.529   .     S
C544   H558    1.112   .     S
C544   H559    1.111   .     S
C544   C706    1.543   1_455 S
C545   S605    1.796   .     S
C545   C549    1.417   .     A
C546   H557    1.111   .     S
C546   H730    1.110   1_455 S
C546   H750    1.111   1_455 S
C547   H565    1.102   .     S
C547   C548    1.531   .     S
C547   H564    1.102   .     S
C548   H561    1.111   .     S
C548   H562    1.108   .     S
C548   H563    1.111   .     S
C549   C551    1.424   .     A
C549   C550    1.422   .     A
C550   C1337   1.402   .     S
C551   C1335   1.419   .     S
C552   C553    1.403   .     A
C552   C1334   1.419   1_554 S
C553   H574    1.077   .     S
C553   C554    1.388   .     A
C554   H555    1.081   .     S
C554   C1333   1.402   1_554 S
H556   C633    1.110   .     S
H560   O671    0.991   .     S
H567   O587    0.990   .     S
H568   O591    0.991   .     S
H569   O594    0.989   .     S
H571   C14     1.086   1_565 S
H576   C633    1.111   .     S
O577   Zn607   1.954   .     S
O577   Zn608   1.929   .     S
O577   Zn609   1.928   .     S
O577   Zn606   1.964   .     S
O578   Zn607   1.927   .     S
O579   Zn609   1.942   .     S
O580   Zn608   1.939   .     S
O581   Zn606   1.924   .     S
O582   S602    1.504   .     D
O583   S602    1.504   .     D
O584   H734    0.991   1_455 S
O584   S776    1.683   1_455 S
O585   S603    1.504   .     D
O586   S603    1.503   .     D
O587   S603    1.681   .     S
O588   Zn606   1.923   .     S
O589   S1387   1.503   1_554 S
O590   S1387   1.504   1_554 S
O591   S604    1.682   .     S
O592   S605    1.503   .     D
O593   S605    1.503   .     D
O594   S605    1.686   .     S
O595   Zn609   1.923   .     S
O596   Zn607   1.936   .     S
O597   Zn608   1.952   .     S
O598   Zn609   1.949   .     S
O599   Zn606   1.934   .     S
O600   Zn607   1.928   .     S
O601   Zn608   1.923   .     S
S602   C620    1.790   .     S
S602   O671    1.683   .     S
S604   O1372   1.503   .     S
S604   O1373   1.504   .     S
C610   C620    1.437   .     S
C610   O683    1.275   .     A
C610   O685    1.259   .     A
C611   C638    1.406   .     A
C611   H662    1.072   .     S
C611   C612    1.386   .     A
C612   H659    1.084   .     S
C612   C1397   1.393   .     S
C613   O684    1.286   .     A
C613   C619    1.475   .     S
C613   O686    1.275   .     A
C614   C615    1.417   .     A
C614   C616    1.395   .     A
C614   C1395   1.393   1_554 S
C615   C618    1.426   .     A
C615   C639    1.425   .     A
C616   C617    1.392   .     A
C616   H653    1.084   .     S
C617   C629    1.412   .     A
C617   S690    1.774   .     S
C618   C634    1.539   .     S
C618   C629    1.418   .     A
C619   C707    1.370   .     S
C619   C718    1.543   .     S
C621   C630    1.396   .     A
C621   H660    1.082   .     S
C621   C628    1.400   .     A
C622   C625    1.448   .     S
C622   C101    1.330   1_565 S
C622   H135    1.088   1_565 S
C623   C624    1.432   .     S
C624   O675    1.283   .     A
C624   O687    1.282   .     A
C625   O682    1.269   .     A
C625   O688    1.268   .     A
C626   C629    1.461   .     S
C626   O667    1.277   .     A
C626   O665    1.276   .     A
C627   C628    1.469   .     S
C627   O666    1.283   .     A
C627   O668    1.281   .     A
C628   C632    1.409   .     A
C630   C637    1.415   .     A
C630   S691    1.774   .     S
C631   C633    1.529   .     S
C631   H645    1.112   .     S
C631   H646    1.111   .     S
C632   S692    1.796   .     S
C632   C636    1.417   .     A
C633   H644    1.111   .     S
C634   H652    1.102   .     S
C634   C635    1.531   .     S
C634   H651    1.102   .     S
C635   H648    1.111   .     S
C635   H649    1.108   .     S
C635   H650    1.111   .     S
C636   C638    1.424   .     A
C636   C637    1.422   .     A
C637   C1424   1.402   .     S
C638   C1422   1.419   .     S
C639   C640    1.403   .     A
C639   C1421   1.419   1_554 S
C640   H661    1.077   .     S
C640   C641    1.388   .     A
C641   H642    1.081   .     S
C641   C1420   1.402   1_554 S
H643   C720    1.110   .     S
H647   O758    0.991   .     S
H654   O674    0.990   .     S
H655   O678    0.991   .     S
H656   O681    0.989   .     S
H658   C101    1.086   1_565 S
H663   C720    1.111   .     S
O664   Zn694   1.954   .     S
O664   Zn695   1.929   .     S
O664   Zn696   1.928   .     S
O664   Zn693   1.964   .     S
O665   Zn694   1.927   .     S
O666   Zn696   1.942   .     S
O667   Zn695   1.939   .     S
O668   Zn693   1.924   .     S
O669   S689    1.504   .     D
O670   S689    1.504   .     D
O672   S690    1.504   .     D
O673   S690    1.503   .     D
O674   S690    1.681   .     S
O675   Zn693   1.923   .     S
O676   S1474   1.503   1_554 S
O677   S1474   1.504   1_554 S
O678   S691    1.682   .     S
O679   S692    1.503   .     D
O680   S692    1.503   .     D
O681   S692    1.686   .     S
O682   Zn696   1.923   .     S
O683   Zn694   1.936   .     S
O684   Zn695   1.952   .     S
O685   Zn696   1.949   .     S
O686   Zn693   1.934   .     S
O687   Zn694   1.928   .     S
O688   Zn695   1.923   .     S
S689   C707    1.790   .     S
S689   O758    1.683   .     S
S691   O1459   1.503   .     S
S691   O1460   1.504   .     S
C697   C707    1.437   .     S
C697   O770    1.275   .     A
C697   O772    1.259   .     A
C698   C725    1.406   .     A
C698   H749    1.072   .     S
C698   C699    1.386   .     A
C699   H746    1.084   .     S
C699   C1484   1.393   .     S
C700   O771    1.286   .     A
C700   C706    1.475   .     S
C700   O773    1.275   .     A
C701   C702    1.417   .     A
C701   C703    1.395   .     A
C701   C1482   1.393   1_554 S
C702   C705    1.426   .     A
C702   C726    1.425   .     A
C703   C704    1.392   .     A
C703   H740    1.084   .     S
C704   C716    1.412   .     A
C704   S777    1.774   .     S
C705   C721    1.539   .     S
C705   C716    1.418   .     A
C706   C533    1.370   1_655 S
C706   C544    1.543   1_655 S
C708   C717    1.396   .     A
C708   H747    1.082   .     S
C708   C715    1.400   .     A
C709   C712    1.448   .     S
C709   C188    1.330   1_565 S
C709   H222    1.088   1_565 S
C710   C711    1.432   .     S
C711   O762    1.283   .     A
C711   O774    1.282   .     A
C712   O769    1.269   .     A
C712   O775    1.268   .     A
C713   C716    1.461   .     S
C713   O754    1.277   .     A
C713   O752    1.276   .     A
C714   C715    1.469   .     S
C714   O753    1.283   .     A
C714   O755    1.281   .     A
C715   C719    1.409   .     A
C717   C724    1.415   .     A
C717   S778    1.774   .     S
C718   C720    1.529   .     S
C718   H732    1.112   .     S
C718   H733    1.111   .     S
C719   S779    1.796   .     S
C719   C723    1.417   .     A
C720   H731    1.111   .     S
C721   H739    1.102   .     S
C721   C722    1.531   .     S
C721   H738    1.102   .     S
C722   H735    1.111   .     S
C722   H736    1.108   .     S
C722   H737    1.111   .     S
C723   C725    1.424   .     A
C723   C724    1.422   .     A
C724   C1511   1.402   .     S
C725   C1509   1.419   .     S
C726   C727    1.403   .     A
C726   C1508   1.419   1_554 S
C727   H748    1.077   .     S
C727   C728    1.388   .     A
C728   H729    1.081   .     S
C728   C1507   1.402   1_554 S
H730   C546    1.110   1_655 S
H734   O584    0.991   1_655 S
H741   O761    0.990   .     S
H742   O765    0.991   .     S
H743   O768    0.989   .     S
H745   C188    1.086   1_565 S
H750   C546    1.111   1_655 S
O751   Zn781   1.954   .     S
O751   Zn782   1.929   .     S
O751   Zn783   1.928   .     S
O751   Zn780   1.964   .     S
O752   Zn781   1.927   .     S
O753   Zn783   1.942   .     S
O754   Zn782   1.939   .     S
O755   Zn780   1.924   .     S
O756   S776    1.504   .     D
O757   S776    1.504   .     D
O759   S777    1.504   .     D
O760   S777    1.503   .     D
O761   S777    1.681   .     S
O762   Zn780   1.923   .     S
O763   S1561   1.503   1_554 S
O764   S1561   1.504   1_554 S
O765   S778    1.682   .     S
O766   S779    1.503   .     D
O767   S779    1.503   .     D
O768   S779    1.686   .     S
O769   Zn783   1.923   .     S
O770   Zn781   1.936   .     S
O771   Zn782   1.952   .     S
O772   Zn783   1.949   .     S
O773   Zn780   1.934   .     S
O774   Zn781   1.928   .     S
O775   Zn782   1.923   .     S
S776   C533    1.790   1_655 S
S776   O584    1.683   1_655 S
S778   O1546   1.503   .     S
S778   O1547   1.504   .     S
C784   C794    1.437   .     S
C784   O857    1.275   .     A
C784   O859    1.259   .     A
C785   C812    1.406   .     A
C785   H836    1.072   .     S
C785   C786    1.386   .     A
C786   H833    1.084   .     S
C786   C5      1.393   1_556 S
C787   O858    1.286   .     A
C787   C793    1.475   .     S
C787   O860    1.275   .     A
C788   C789    1.417   .     A
C788   C790    1.395   .     A
C789   C792    1.426   .     A
C789   C813    1.425   .     A
C790   C791    1.392   .     A
C790   H827    1.084   .     S
C791   C803    1.412   .     A
C791   S864    1.774   .     S
C792   C808    1.539   .     S
C792   C803    1.418   .     A
C793   C881    1.370   .     S
C793   C892    1.543   .     S
C794   C967    1.370   1_455 S
C794   S1037   1.790   1_455 S
C795   C804    1.396   .     A
C795   H834    1.082   .     S
C795   C802    1.400   .     A
C796   C799    1.448   .     S
C796   C1058   1.330   .     S
C796   H1092   1.088   .     S
C797   C798    1.432   .     S
C797   C1318   1.330   1_545 S
C797   H1354   1.086   1_545 S
C798   O849    1.283   .     A
C798   O861    1.282   .     A
C799   O856    1.269   .     A
C799   O862    1.268   .     A
C800   C803    1.461   .     S
C800   O841    1.277   .     A
C800   O839    1.276   .     A
C801   C802    1.469   .     S
C801   O840    1.283   .     A
C801   O842    1.281   .     A
C802   C806    1.409   .     A
C804   C811    1.415   .     A
C804   S865    1.774   .     S
C805   C807    1.529   .     S
C805   H819    1.112   .     S
C805   H820    1.111   .     S
C805   C967    1.543   1_455 S
C806   S866    1.796   .     S
C806   C810    1.417   .     A
C807   H818    1.111   .     S
C807   H991    1.110   1_455 S
C807   H1011   1.111   1_455 S
C808   H826    1.102   .     S
C808   C809    1.531   .     S
C808   H825    1.102   .     S
C809   H822    1.111   .     S
C809   H823    1.108   .     S
C809   H824    1.111   .     S
C810   C812    1.424   .     A
C810   C811    1.422   .     A
C811   C32     1.402   1_556 S
C812   C30     1.419   1_556 S
C813   C814    1.403   .     A
C814   H835    1.077   .     S
C814   C815    1.388   .     A
C815   H816    1.081   .     S
H817   C894    1.110   .     S
H821   O932    0.991   .     S
H828   O848    0.990   .     S
H829   O852    0.991   .     S
H830   O855    0.989   .     S
H831   C1318   1.088   1_545 S
H832   C1058   1.086   .     S
H837   C894    1.111   .     S
O838   Zn868   1.954   .     S
O838   Zn869   1.929   .     S
O838   Zn870   1.928   .     S
O838   Zn867   1.964   .     S
O839   Zn868   1.927   .     S
O840   Zn870   1.942   .     S
O841   Zn869   1.939   .     S
O842   Zn867   1.924   .     S
O843   S863    1.504   .     D
O844   S863    1.504   .     D
O845   H995    0.991   1_455 S
O845   S1037   1.683   1_455 S
O846   S864    1.504   .     D
O847   S864    1.503   .     D
O848   S864    1.681   .     S
O849   Zn867   1.923   .     S
O852   S865    1.682   .     S
O853   S866    1.503   .     D
O854   S866    1.503   .     D
O855   S866    1.686   .     S
O856   Zn870   1.923   .     S
O857   Zn868   1.936   .     S
O858   Zn869   1.952   .     S
O859   Zn870   1.949   .     S
O860   Zn867   1.934   .     S
O861   Zn868   1.928   .     S
O862   Zn869   1.923   .     S
S863   C881    1.790   .     S
S863   O932    1.683   .     S
S865   O67     1.503   1_556 S
S865   O68     1.504   1_556 S
C871   C881    1.437   .     S
C871   O944    1.275   .     A
C871   O946    1.259   .     A
C872   C899    1.406   .     A
C872   H923    1.072   .     S
C872   C873    1.386   .     A
C873   H920    1.084   .     S
C873   C92     1.393   1_556 S
C874   O945    1.286   .     A
C874   C880    1.475   .     S
C874   O947    1.275   .     A
C875   C876    1.417   .     A
C875   C877    1.395   .     A
C876   C879    1.426   .     A
C876   C900    1.425   .     A
C877   C878    1.392   .     A
C877   H914    1.084   .     S
C878   C890    1.412   .     A
C878   S951    1.774   .     S
C879   C895    1.539   .     S
C879   C890    1.418   .     A
C880   C968    1.370   .     S
C880   C979    1.543   .     S
C882   C891    1.396   .     A
C882   H921    1.082   .     S
C882   C889    1.400   .     A
C883   C886    1.448   .     S
C883   C1145   1.330   .     S
C883   H1179   1.088   .     S
C884   C885    1.432   .     S
C884   C1405   1.330   1_545 S
C884   H1441   1.086   1_545 S
C885   O936    1.283   .     A
C885   O948    1.282   .     A
C886   O943    1.269   .     A
C886   O949    1.268   .     A
C887   C890    1.461   .     S
C887   O928    1.277   .     A
C887   O926    1.276   .     A
C888   C889    1.469   .     S
C888   O927    1.283   .     A
C888   O929    1.281   .     A
C889   C893    1.409   .     A
C891   C898    1.415   .     A
C891   S952    1.774   .     S
C892   C894    1.529   .     S
C892   H906    1.112   .     S
C892   H907    1.111   .     S
C893   S953    1.796   .     S
C893   C897    1.417   .     A
C894   H905    1.111   .     S
C895   H913    1.102   .     S
C895   C896    1.531   .     S
C895   H912    1.102   .     S
C896   H909    1.111   .     S
C896   H910    1.108   .     S
C896   H911    1.111   .     S
C897   C899    1.424   .     A
C897   C898    1.422   .     A
C898   C119    1.402   1_556 S
C899   C117    1.419   1_556 S
C900   C901    1.403   .     A
C901   H922    1.077   .     S
C901   C902    1.388   .     A
C902   H903    1.081   .     S
H904   C981    1.110   .     S
H908   O1019   0.991   .     S
H915   O935    0.990   .     S
H916   O939    0.991   .     S
H917   O942    0.989   .     S
H918   C1405   1.088   1_545 S
H919   C1145   1.086   .     S
H924   C981    1.111   .     S
O925   Zn955   1.954   .     S
O925   Zn956   1.929   .     S
O925   Zn957   1.928   .     S
O925   Zn954   1.964   .     S
O926   Zn955   1.927   .     S
O927   Zn957   1.942   .     S
O928   Zn956   1.939   .     S
O929   Zn954   1.924   .     S
O930   S950    1.504   .     D
O931   S950    1.504   .     D
O933   S951    1.504   .     D
O934   S951    1.503   .     D
O935   S951    1.681   .     S
O936   Zn954   1.923   .     S
O939   S952    1.682   .     S
O940   S953    1.503   .     D
O941   S953    1.503   .     D
O942   S953    1.686   .     S
O943   Zn957   1.923   .     S
O944   Zn955   1.936   .     S
O945   Zn956   1.952   .     S
O946   Zn957   1.949   .     S
O947   Zn954   1.934   .     S
O948   Zn955   1.928   .     S
O949   Zn956   1.923   .     S
S950   C968    1.790   .     S
S950   O1019   1.683   .     S
S952   O154    1.503   1_556 S
S952   O155    1.504   1_556 S
C958   C968    1.437   .     S
C958   O1031   1.275   .     A
C958   O1033   1.259   .     A
C959   C986    1.406   .     A
C959   H1010   1.072   .     S
C959   C960    1.386   .     A
C960   H1007   1.084   .     S
C960   C179    1.393   1_556 S
C961   O1032   1.286   .     A
C961   C967    1.475   .     S
C961   O1034   1.275   .     A
C962   C963    1.417   .     A
C962   C964    1.395   .     A
C963   C966    1.426   .     A
C963   C987    1.425   .     A
C964   C965    1.392   .     A
C964   H1001   1.084   .     S
C965   C977    1.412   .     A
C965   S1038   1.774   .     S
C966   C982    1.539   .     S
C966   C977    1.418   .     A
C967   C794    1.370   1_655 S
C967   C805    1.543   1_655 S
C969   C978    1.396   .     A
C969   H1008   1.082   .     S
C969   C976    1.400   .     A
C970   C973    1.448   .     S
C970   C1232   1.330   .     S
C970   H1266   1.088   .     S
C971   C972    1.432   .     S
C971   C1492   1.330   1_545 S
C971   H1528   1.086   1_545 S
C972   O1023   1.283   .     A
C972   O1035   1.282   .     A
C973   O1030   1.269   .     A
C973   O1036   1.268   .     A
C974   C977    1.461   .     S
C974   O1015   1.277   .     A
C974   O1013   1.276   .     A
C975   C976    1.469   .     S
C975   O1014   1.283   .     A
C975   O1016   1.281   .     A
C976   C980    1.409   .     A
C978   C985    1.415   .     A
C978   S1039   1.774   .     S
C979   C981    1.529   .     S
C979   H993    1.112   .     S
C979   H994    1.111   .     S
C980   S1040   1.796   .     S
C980   C984    1.417   .     A
C981   H992    1.111   .     S
C982   H1000   1.102   .     S
C982   C983    1.531   .     S
C982   H999    1.102   .     S
C983   H996    1.111   .     S
C983   H997    1.108   .     S
C983   H998    1.111   .     S
C984   C986    1.424   .     A
C984   C985    1.422   .     A
C985   C206    1.402   1_556 S
C986   C204    1.419   1_556 S
C987   C988    1.403   .     A
C988   H1009   1.077   .     S
C988   C989    1.388   .     A
C989   H990    1.081   .     S
H991   C807    1.110   1_655 S
H995   O845    0.991   1_655 S
H1002  O1022   0.990   .     S
H1003  O1026   0.991   .     S
H1004  O1029   0.989   .     S
H1005  C1492   1.088   1_545 S
H1006  C1232   1.086   .     S
H1011  C807    1.111   1_655 S
O1012  Zn1042  1.954   .     S
O1012  Zn1043  1.929   .     S
O1012  Zn1044  1.928   .     S
O1012  Zn1041  1.964   .     S
O1013  Zn1042  1.927   .     S
O1014  Zn1044  1.942   .     S
O1015  Zn1043  1.939   .     S
O1016  Zn1041  1.924   .     S
O1017  S1037   1.504   .     D
O1018  S1037   1.504   .     D
O1020  S1038   1.504   .     D
O1021  S1038   1.503   .     D
O1022  S1038   1.681   .     S
O1023  Zn1041  1.923   .     S
O1026  S1039   1.682   .     S
O1027  S1040   1.503   .     D
O1028  S1040   1.503   .     D
O1029  S1040   1.686   .     S
O1030  Zn1044  1.923   .     S
O1031  Zn1042  1.936   .     S
O1032  Zn1043  1.952   .     S
O1033  Zn1044  1.949   .     S
O1034  Zn1041  1.934   .     S
O1035  Zn1042  1.928   .     S
O1036  Zn1043  1.923   .     S
S1037  C794    1.790   1_655 S
S1037  O845    1.683   1_655 S
S1039  O241    1.503   1_556 S
S1039  O242    1.504   1_556 S
C1045  C1055   1.437   .     S
C1045  O1118   1.275   .     A
C1045  O1120   1.259   .     A
C1046  C1073   1.406   .     A
C1046  H1097   1.072   .     S
C1046  C1047   1.386   .     A
C1047  H1094   1.084   .     S
C1047  C266    1.393   1_556 S
C1048  O1119   1.286   .     A
C1048  C1054   1.475   .     S
C1048  O1121   1.275   .     A
C1049  C1050   1.417   .     A
C1049  C1051   1.395   .     A
C1050  C1053   1.426   .     A
C1050  C1074   1.425   .     A
C1051  C1052   1.392   .     A
C1051  H1088   1.084   .     S
C1052  C1064   1.412   .     A
C1052  S1125   1.774   .     S
C1053  C1069   1.539   .     S
C1053  C1064   1.418   .     A
C1054  C1142   1.370   .     S
C1054  C1153   1.543   .     S
C1055  C1228   1.370   1_455 S
C1055  S1298   1.790   1_455 S
C1056  C1065   1.396   .     A
C1056  H1095   1.082   .     S
C1056  C1063   1.400   .     A
C1057  C1060   1.448   .     S
C1057  C1319   1.330   .     S
C1057  H1353   1.088   .     S
C1058  C1059   1.432   .     S
C1059  O1110   1.283   .     A
C1059  O1122   1.282   .     A
C1060  O1117   1.269   .     A
C1060  O1123   1.268   .     A
C1061  C1064   1.461   .     S
C1061  O1102   1.277   .     A
C1061  O1100   1.276   .     A
C1062  C1063   1.469   .     S
C1062  O1101   1.283   .     A
C1062  O1103   1.281   .     A
C1063  C1067   1.409   .     A
C1065  C1072   1.415   .     A
C1065  S1126   1.774   .     S
C1066  C1068   1.529   .     S
C1066  H1080   1.112   .     S
C1066  H1081   1.111   .     S
C1066  C1228   1.543   1_455 S
C1067  S1127   1.796   .     S
C1067  C1071   1.417   .     A
C1068  H1079   1.111   .     S
C1068  H1252   1.110   1_455 S
C1068  H1272   1.111   1_455 S
C1069  H1087   1.102   .     S
C1069  C1070   1.531   .     S
C1069  H1086   1.102   .     S
C1070  H1083   1.111   .     S
C1070  H1084   1.108   .     S
C1070  H1085   1.111   .     S
C1071  C1073   1.424   .     A
C1071  C1072   1.422   .     A
C1072  C293    1.402   1_556 S
C1073  C291    1.419   1_556 S
C1074  C1075   1.403   .     A
C1075  H1096   1.077   .     S
C1075  C1076   1.388   .     A
C1076  H1077   1.081   .     S
H1078  C1155   1.110   .     S
H1082  O1193   0.991   .     S
H1089  O1109   0.990   .     S
H1090  O1113   0.991   .     S
H1091  O1116   0.989   .     S
H1093  C1319   1.086   .     S
H1098  C1155   1.111   .     S
O1099  Zn1129  1.954   .     S
O1099  Zn1130  1.929   .     S
O1099  Zn1131  1.928   .     S
O1099  Zn1128  1.964   .     S
O1100  Zn1129  1.927   .     S
O1101  Zn1131  1.942   .     S
O1102  Zn1130  1.939   .     S
O1103  Zn1128  1.924   .     S
O1104  S1124   1.504   .     D
O1105  S1124   1.504   .     D
O1106  H1256   0.991   1_455 S
O1106  S1298   1.683   1_455 S
O1107  S1125   1.504   .     D
O1108  S1125   1.503   .     D
O1109  S1125   1.681   .     S
O1110  Zn1128  1.923   .     S
O1113  S1126   1.682   .     S
O1114  S1127   1.503   .     D
O1115  S1127   1.503   .     D
O1116  S1127   1.686   .     S
O1117  Zn1131  1.923   .     S
O1118  Zn1129  1.936   .     S
O1119  Zn1130  1.952   .     S
O1120  Zn1131  1.949   .     S
O1121  Zn1128  1.934   .     S
O1122  Zn1129  1.928   .     S
O1123  Zn1130  1.923   .     S
S1124  C1142   1.790   .     S
S1124  O1193   1.683   .     S
S1126  O328    1.503   1_556 S
S1126  O329    1.504   1_556 S
C1132  C1142   1.437   .     S
C1132  O1205   1.275   .     A
C1132  O1207   1.259   .     A
C1133  C1160   1.406   .     A
C1133  H1184   1.072   .     S
C1133  C1134   1.386   .     A
C1134  H1181   1.084   .     S
C1134  C353    1.393   1_556 S
C1135  O1206   1.286   .     A
C1135  C1141   1.475   .     S
C1135  O1208   1.275   .     A
C1136  C1137   1.417   .     A
C1136  C1138   1.395   .     A
C1137  C1140   1.426   .     A
C1137  C1161   1.425   .     A
C1138  C1139   1.392   .     A
C1138  H1175   1.084   .     S
C1139  C1151   1.412   .     A
C1139  S1212   1.774   .     S
C1140  C1156   1.539   .     S
C1140  C1151   1.418   .     A
C1141  C1229   1.370   .     S
C1141  C1240   1.543   .     S
C1143  C1152   1.396   .     A
C1143  H1182   1.082   .     S
C1143  C1150   1.400   .     A
C1144  C1147   1.448   .     S
C1144  C1406   1.330   .     S
C1144  H1440   1.088   .     S
C1145  C1146   1.432   .     S
C1146  O1197   1.283   .     A
C1146  O1209   1.282   .     A
C1147  O1204   1.269   .     A
C1147  O1210   1.268   .     A
C1148  C1151   1.461   .     S
C1148  O1189   1.277   .     A
C1148  O1187   1.276   .     A
C1149  C1150   1.469   .     S
C1149  O1188   1.283   .     A
C1149  O1190   1.281   .     A
C1150  C1154   1.409   .     A
C1152  C1159   1.415   .     A
C1152  S1213   1.774   .     S
C1153  C1155   1.529   .     S
C1153  H1167   1.112   .     S
C1153  H1168   1.111   .     S
C1154  S1214   1.796   .     S
C1154  C1158   1.417   .     A
C1155  H1166   1.111   .     S
C1156  H1174   1.102   .     S
C1156  C1157   1.531   .     S
C1156  H1173   1.102   .     S
C1157  H1170   1.111   .     S
C1157  H1171   1.108   .     S
C1157  H1172   1.111   .     S
C1158  C1160   1.424   .     A
C1158  C1159   1.422   .     A
C1159  C380    1.402   1_556 S
C1160  C378    1.419   1_556 S
C1161  C1162   1.403   .     A
C1162  H1183   1.077   .     S
C1162  C1163   1.388   .     A
C1163  H1164   1.081   .     S
H1165  C1242   1.110   .     S
H1169  O1280   0.991   .     S
H1176  O1196   0.990   .     S
H1177  O1200   0.991   .     S
H1178  O1203   0.989   .     S
H1180  C1406   1.086   .     S
H1185  C1242   1.111   .     S
O1186  Zn1216  1.954   .     S
O1186  Zn1217  1.929   .     S
O1186  Zn1218  1.928   .     S
O1186  Zn1215  1.964   .     S
O1187  Zn1216  1.927   .     S
O1188  Zn1218  1.942   .     S
O1189  Zn1217  1.939   .     S
O1190  Zn1215  1.924   .     S
O1191  S1211   1.504   .     D
O1192  S1211   1.504   .     D
O1194  S1212   1.504   .     D
O1195  S1212   1.503   .     D
O1196  S1212   1.681   .     S
O1197  Zn1215  1.923   .     S
O1200  S1213   1.682   .     S
O1201  S1214   1.503   .     D
O1202  S1214   1.503   .     D
O1203  S1214   1.686   .     S
O1204  Zn1218  1.923   .     S
O1205  Zn1216  1.936   .     S
O1206  Zn1217  1.952   .     S
O1207  Zn1218  1.949   .     S
O1208  Zn1215  1.934   .     S
O1209  Zn1216  1.928   .     S
O1210  Zn1217  1.923   .     S
S1211  C1229   1.790   .     S
S1211  O1280   1.683   .     S
S1213  O415    1.503   1_556 S
S1213  O416    1.504   1_556 S
C1219  C1229   1.437   .     S
C1219  O1292   1.275   .     A
C1219  O1294   1.259   .     A
C1220  C1247   1.406   .     A
C1220  H1271   1.072   .     S
C1220  C1221   1.386   .     A
C1221  H1268   1.084   .     S
C1221  C440    1.393   1_556 S
C1222  O1293   1.286   .     A
C1222  C1228   1.475   .     S
C1222  O1295   1.275   .     A
C1223  C1224   1.417   .     A
C1223  C1225   1.395   .     A
C1224  C1227   1.426   .     A
C1224  C1248   1.425   .     A
C1225  C1226   1.392   .     A
C1225  H1262   1.084   .     S
C1226  C1238   1.412   .     A
C1226  S1299   1.774   .     S
C1227  C1243   1.539   .     S
C1227  C1238   1.418   .     A
C1228  C1055   1.370   1_655 S
C1228  C1066   1.543   1_655 S
C1230  C1239   1.396   .     A
C1230  H1269   1.082   .     S
C1230  C1237   1.400   .     A
C1231  C1234   1.448   .     S
C1231  C1493   1.330   .     S
C1231  H1527   1.088   .     S
C1232  C1233   1.432   .     S
C1233  O1284   1.283   .     A
C1233  O1296   1.282   .     A
C1234  O1291   1.269   .     A
C1234  O1297   1.268   .     A
C1235  C1238   1.461   .     S
C1235  O1276   1.277   .     A
C1235  O1274   1.276   .     A
C1236  C1237   1.469   .     S
C1236  O1275   1.283   .     A
C1236  O1277   1.281   .     A
C1237  C1241   1.409   .     A
C1239  C1246   1.415   .     A
C1239  S1300   1.774   .     S
C1240  C1242   1.529   .     S
C1240  H1254   1.112   .     S
C1240  H1255   1.111   .     S
C1241  S1301   1.796   .     S
C1241  C1245   1.417   .     A
C1242  H1253   1.111   .     S
C1243  H1261   1.102   .     S
C1243  C1244   1.531   .     S
C1243  H1260   1.102   .     S
C1244  H1257   1.111   .     S
C1244  H1258   1.108   .     S
C1244  H1259   1.111   .     S
C1245  C1247   1.424   .     A
C1245  C1246   1.422   .     A
C1246  C467    1.402   1_556 S
C1247  C465    1.419   1_556 S
C1248  C1249   1.403   .     A
C1249  H1270   1.077   .     S
C1249  C1250   1.388   .     A
C1250  H1251   1.081   .     S
H1252  C1068   1.110   1_655 S
H1256  O1106   0.991   1_655 S
H1263  O1283   0.990   .     S
H1264  O1287   0.991   .     S
H1265  O1290   0.989   .     S
H1267  C1493   1.086   .     S
H1272  C1068   1.111   1_655 S
O1273  Zn1303  1.954   .     S
O1273  Zn1304  1.929   .     S
O1273  Zn1305  1.928   .     S
O1273  Zn1302  1.964   .     S
O1274  Zn1303  1.927   .     S
O1275  Zn1305  1.942   .     S
O1276  Zn1304  1.939   .     S
O1277  Zn1302  1.924   .     S
O1278  S1298   1.504   .     D
O1279  S1298   1.504   .     D
O1281  S1299   1.504   .     D
O1282  S1299   1.503   .     D
O1283  S1299   1.681   .     S
O1284  Zn1302  1.923   .     S
O1287  S1300   1.682   .     S
O1288  S1301   1.503   .     D
O1289  S1301   1.503   .     D
O1290  S1301   1.686   .     S
O1291  Zn1305  1.923   .     S
O1292  Zn1303  1.936   .     S
O1293  Zn1304  1.952   .     S
O1294  Zn1305  1.949   .     S
O1295  Zn1302  1.934   .     S
O1296  Zn1303  1.928   .     S
O1297  Zn1304  1.923   .     S
S1298  C1055   1.790   1_655 S
S1298  O1106   1.683   1_655 S
S1300  O502    1.503   1_556 S
S1300  O503    1.504   1_556 S
C1306  C1316   1.437   .     S
C1306  O1379   1.275   .     A
C1306  O1381   1.259   .     A
C1307  C1334   1.406   .     A
C1307  H1358   1.072   .     S
C1307  C1308   1.386   .     A
C1308  H1355   1.084   .     S
C1308  C527    1.393   1_556 S
C1309  O1380   1.286   .     A
C1309  C1315   1.475   .     S
C1309  O1382   1.275   .     A
C1310  C1311   1.417   .     A
C1310  C1312   1.395   .     A
C1311  C1314   1.426   .     A
C1311  C1335   1.425   .     A
C1312  C1313   1.392   .     A
C1312  H1349   1.084   .     S
C1313  C1325   1.412   .     A
C1313  S1386   1.774   .     S
C1314  C1330   1.539   .     S
C1314  C1325   1.418   .     A
C1315  C1403   1.370   .     S
C1315  C1414   1.543   .     S
C1316  C1489   1.370   1_455 S
C1316  S1559   1.790   1_455 S
C1317  C1326   1.396   .     A
C1317  H1356   1.082   .     S
C1317  C1324   1.400   .     A
C1318  C1321   1.448   .     S
C1318  C797    1.330   1_565 S
C1318  H831    1.088   1_565 S
C1319  C1320   1.432   .     S
C1320  O1371   1.283   .     A
C1320  O1383   1.282   .     A
C1321  O1378   1.269   .     A
C1321  O1384   1.268   .     A
C1322  C1325   1.461   .     S
C1322  O1363   1.277   .     A
C1322  O1361   1.276   .     A
C1323  C1324   1.469   .     S
C1323  O1362   1.283   .     A
C1323  O1364   1.281   .     A
C1324  C1328   1.409   .     A
C1326  C1333   1.415   .     A
C1326  S1387   1.774   .     S
C1327  C1329   1.529   .     S
C1327  H1341   1.112   .     S
C1327  H1342   1.111   .     S
C1327  C1489   1.543   1_455 S
C1328  S1388   1.796   .     S
C1328  C1332   1.417   .     A
C1329  H1340   1.111   .     S
C1329  H1513   1.110   1_455 S
C1329  H1533   1.111   1_455 S
C1330  H1348   1.102   .     S
C1330  C1331   1.531   .     S
C1330  H1347   1.102   .     S
C1331  H1344   1.111   .     S
C1331  H1345   1.108   .     S
C1331  H1346   1.111   .     S
C1332  C1334   1.424   .     A
C1332  C1333   1.422   .     A
C1333  C554    1.402   1_556 S
C1334  C552    1.419   1_556 S
C1335  C1336   1.403   .     A
C1336  H1357   1.077   .     S
C1336  C1337   1.388   .     A
C1337  H1338   1.081   .     S
H1339  C1416   1.110   .     S
H1343  O1454   0.991   .     S
H1350  O1370   0.990   .     S
H1351  O1374   0.991   .     S
H1352  O1377   0.989   .     S
H1354  C797    1.086   1_565 S
H1359  C1416   1.111   .     S
O1360  Zn1390  1.954   .     S
O1360  Zn1391  1.929   .     S
O1360  Zn1392  1.928   .     S
O1360  Zn1389  1.964   .     S
O1361  Zn1390  1.927   .     S
O1362  Zn1392  1.942   .     S
O1363  Zn1391  1.939   .     S
O1364  Zn1389  1.924   .     S
O1365  S1385   1.504   .     D
O1366  S1385   1.504   .     D
O1367  H1517   0.991   1_455 S
O1367  S1559   1.683   1_455 S
O1368  S1386   1.504   .     D
O1369  S1386   1.503   .     D
O1370  S1386   1.681   .     S
O1371  Zn1389  1.923   .     S
O1374  S1387   1.682   .     S
O1375  S1388   1.503   .     D
O1376  S1388   1.503   .     D
O1377  S1388   1.686   .     S
O1378  Zn1392  1.923   .     S
O1379  Zn1390  1.936   .     S
O1380  Zn1391  1.952   .     S
O1381  Zn1392  1.949   .     S
O1382  Zn1389  1.934   .     S
O1383  Zn1390  1.928   .     S
O1384  Zn1391  1.923   .     S
S1385  C1403   1.790   .     S
S1385  O1454   1.683   .     S
S1387  O589    1.503   1_556 S
S1387  O590    1.504   1_556 S
C1393  C1403   1.437   .     S
C1393  O1466   1.275   .     A
C1393  O1468   1.259   .     A
C1394  C1421   1.406   .     A
C1394  H1445   1.072   .     S
C1394  C1395   1.386   .     A
C1395  H1442   1.084   .     S
C1395  C614    1.393   1_556 S
C1396  O1467   1.286   .     A
C1396  C1402   1.475   .     S
C1396  O1469   1.275   .     A
C1397  C1398   1.417   .     A
C1397  C1399   1.395   .     A
C1398  C1401   1.426   .     A
C1398  C1422   1.425   .     A
C1399  C1400   1.392   .     A
C1399  H1436   1.084   .     S
C1400  C1412   1.412   .     A
C1400  S1473   1.774   .     S
C1401  C1417   1.539   .     S
C1401  C1412   1.418   .     A
C1402  C1490   1.370   .     S
C1402  C1501   1.543   .     S
C1404  C1413   1.396   .     A
C1404  H1443   1.082   .     S
C1404  C1411   1.400   .     A
C1405  C1408   1.448   .     S
C1405  C884    1.330   1_565 S
C1405  H918    1.088   1_565 S
C1406  C1407   1.432   .     S
C1407  O1458   1.283   .     A
C1407  O1470   1.282   .     A
C1408  O1465   1.269   .     A
C1408  O1471   1.268   .     A
C1409  C1412   1.461   .     S
C1409  O1450   1.277   .     A
C1409  O1448   1.276   .     A
C1410  C1411   1.469   .     S
C1410  O1449   1.283   .     A
C1410  O1451   1.281   .     A
C1411  C1415   1.409   .     A
C1413  C1420   1.415   .     A
C1413  S1474   1.774   .     S
C1414  C1416   1.529   .     S
C1414  H1428   1.112   .     S
C1414  H1429   1.111   .     S
C1415  S1475   1.796   .     S
C1415  C1419   1.417   .     A
C1416  H1427   1.111   .     S
C1417  H1435   1.102   .     S
C1417  C1418   1.531   .     S
C1417  H1434   1.102   .     S
C1418  H1431   1.111   .     S
C1418  H1432   1.108   .     S
C1418  H1433   1.111   .     S
C1419  C1421   1.424   .     A
C1419  C1420   1.422   .     A
C1420  C641    1.402   1_556 S
C1421  C639    1.419   1_556 S
C1422  C1423   1.403   .     A
C1423  H1444   1.077   .     S
C1423  C1424   1.388   .     A
C1424  H1425   1.081   .     S
H1426  C1503   1.110   .     S
H1430  O1541   0.991   .     S
H1437  O1457   0.990   .     S
H1438  O1461   0.991   .     S
H1439  O1464   0.989   .     S
H1441  C884    1.086   1_565 S
H1446  C1503   1.111   .     S
O1447  Zn1477  1.954   .     S
O1447  Zn1478  1.929   .     S
O1447  Zn1479  1.928   .     S
O1447  Zn1476  1.964   .     S
O1448  Zn1477  1.927   .     S
O1449  Zn1479  1.942   .     S
O1450  Zn1478  1.939   .     S
O1451  Zn1476  1.924   .     S
O1452  S1472   1.504   .     D
O1453  S1472   1.504   .     D
O1455  S1473   1.504   .     D
O1456  S1473   1.503   .     D
O1457  S1473   1.681   .     S
O1458  Zn1476  1.923   .     S
O1461  S1474   1.682   .     S
O1462  S1475   1.503   .     D
O1463  S1475   1.503   .     D
O1464  S1475   1.686   .     S
O1465  Zn1479  1.923   .     S
O1466  Zn1477  1.936   .     S
O1467  Zn1478  1.952   .     S
O1468  Zn1479  1.949   .     S
O1469  Zn1476  1.934   .     S
O1470  Zn1477  1.928   .     S
O1471  Zn1478  1.923   .     S
S1472  C1490   1.790   .     S
S1472  O1541   1.683   .     S
S1474  O676    1.503   1_556 S
S1474  O677    1.504   1_556 S
C1480  C1490   1.437   .     S
C1480  O1553   1.275   .     A
C1480  O1555   1.259   .     A
C1481  C1508   1.406   .     A
C1481  H1532   1.072   .     S
C1481  C1482   1.386   .     A
C1482  H1529   1.084   .     S
C1482  C701    1.393   1_556 S
C1483  O1554   1.286   .     A
C1483  C1489   1.475   .     S
C1483  O1556   1.275   .     A
C1484  C1485   1.417   .     A
C1484  C1486   1.395   .     A
C1485  C1488   1.426   .     A
C1485  C1509   1.425   .     A
C1486  C1487   1.392   .     A
C1486  H1523   1.084   .     S
C1487  C1499   1.412   .     A
C1487  S1560   1.774   .     S
C1488  C1504   1.539   .     S
C1488  C1499   1.418   .     A
C1489  C1316   1.370   1_655 S
C1489  C1327   1.543   1_655 S
C1491  C1500   1.396   .     A
C1491  H1530   1.082   .     S
C1491  C1498   1.400   .     A
C1492  C1495   1.448   .     S
C1492  C971    1.330   1_565 S
C1492  H1005   1.088   1_565 S
C1493  C1494   1.432   .     S
C1494  O1545   1.283   .     A
C1494  O1557   1.282   .     A
C1495  O1552   1.269   .     A
C1495  O1558   1.268   .     A
C1496  C1499   1.461   .     S
C1496  O1537   1.277   .     A
C1496  O1535   1.276   .     A
C1497  C1498   1.469   .     S
C1497  O1536   1.283   .     A
C1497  O1538   1.281   .     A
C1498  C1502   1.409   .     A
C1500  C1507   1.415   .     A
C1500  S1561   1.774   .     S
C1501  C1503   1.529   .     S
C1501  H1515   1.112   .     S
C1501  H1516   1.111   .     S
C1502  S1562   1.796   .     S
C1502  C1506   1.417   .     A
C1503  H1514   1.111   .     S
C1504  H1522   1.102   .     S
C1504  C1505   1.531   .     S
C1504  H1521   1.102   .     S
C1505  H1518   1.111   .     S
C1505  H1519   1.108   .     S
C1505  H1520   1.111   .     S
C1506  C1508   1.424   .     A
C1506  C1507   1.422   .     A
C1507  C728    1.402   1_556 S
C1508  C726    1.419   1_556 S
C1509  C1510   1.403   .     A
C1510  H1531   1.077   .     S
C1510  C1511   1.388   .     A
C1511  H1512   1.081   .     S
H1513  C1329   1.110   1_655 S
H1517  O1367   0.991   1_655 S
H1524  O1544   0.990   .     S
H1525  O1548   0.991   .     S
H1526  O1551   0.989   .     S
H1528  C971    1.086   1_565 S
H1533  C1329   1.111   1_655 S
O1534  Zn1564  1.954   .     S
O1534  Zn1565  1.929   .     S
O1534  Zn1566  1.928   .     S
O1534  Zn1563  1.964   .     S
O1535  Zn1564  1.927   .     S
O1536  Zn1566  1.942   .     S
O1537  Zn1565  1.939   .     S
O1538  Zn1563  1.924   .     S
O1539  S1559   1.504   .     D
O1540  S1559   1.504   .     D
O1542  S1560   1.504   .     D
O1543  S1560   1.503   .     D
O1544  S1560   1.681   .     S
O1545  Zn1563  1.923   .     S
O1548  S1561   1.682   .     S
O1549  S1562   1.503   .     D
O1550  S1562   1.503   .     D
O1551  S1562   1.686   .     S
O1552  Zn1566  1.923   .     S
O1553  Zn1564  1.936   .     S
O1554  Zn1565  1.952   .     S
O1555  Zn1566  1.949   .     S
O1556  Zn1563  1.934   .     S
O1557  Zn1564  1.928   .     S
O1558  Zn1565  1.923   .     S
S1559  C1316   1.790   1_655 S
S1559  O1367   1.683   1_655 S
S1561  O763    1.503   1_556 S
S1561  O764    1.504   1_556 S
