data_str_m1_o10_o16_pcu_sym.28
_audit_creation_date              2020-01-03
_audit_creation_method            'Materials Studio'
_symmetry_space_group_name_H-M    'P1'
_symmetry_Int_Tables_number       1
_symmetry_cell_setting            triclinic
loop_
_symmetry_equiv_pos_as_xyz
  x,y,z
_cell_length_a                    32.5253
_cell_length_b                    32.5181
_cell_length_c                    31.0808
_cell_angle_alpha                 96.6317
_cell_angle_beta                  75.0776
_cell_angle_gamma                 98.5849
loop_
_atom_site_label
_atom_site_type_symbol
_atom_site_fract_x
_atom_site_fract_y
_atom_site_fract_z
_atom_site_U_iso_or_equiv
_atom_site_adp_type
_atom_site_occupancy
C1     C     0.05273   0.15953   0.26000   0.00000  Uiso   1.00
C2     C     0.18037   0.16654   0.05722   0.00000  Uiso   1.00
C3     C     0.19938   0.09806   0.06226   0.00000  Uiso   1.00
C4     C     0.28073   0.17377   0.24005   0.00000  Uiso   1.00
C5     C     0.14349   0.19416   0.41943   0.00000  Uiso   1.00
C6     C     0.32656   0.17648   0.23610   0.00000  Uiso   1.00
C7     C     0.00747   0.15689   0.26378   0.00000  Uiso   1.00
C8     C     0.18036   0.32243   0.23650   0.00000  Uiso   1.00
C9     C     0.15182   0.01170   0.26372   0.00000  Uiso   1.00
C10    C     0.15613   0.05583   0.26014   0.00000  Uiso   1.00
C11    C     0.17654   0.27786   0.24018   0.00000  Uiso   1.00
C12    C     0.13770   0.24805   0.48060   0.00000  Uiso   1.00
C13    C     0.18513   0.14786   0.12947   0.00000  Uiso   1.00
C14    C     0.14817   0.18417   0.37100   0.00000  Uiso   1.00
C15    C     0.19403   0.08580   0.01947   0.00000  Uiso   1.00
C16    C     0.19154   0.13832   0.08148   0.00000  Uiso   1.00
C17    C     0.13458   0.23434   0.43748   0.00000  Uiso   1.00
C18    C     0.21125   0.06834   0.08664   0.00000  Uiso   1.00
C19    C     0.15080   0.22247   0.00611   0.00000  Uiso   1.00
C20    C     0.15925   0.18131   0.48960   0.00000  Uiso   1.00
C21    C     0.15306   0.16642   0.44653   0.00000  Uiso   1.00
C22    C     0.17347   0.15434   0.01437   0.00000  Uiso   1.00
C23    C     0.17992   0.11296   0.49610   0.00000  Uiso   1.00
C24    C     0.17043   0.09821   0.45550   0.00000  Uiso   1.00
C25    C     0.15612   0.12410   0.43171   0.00000  Uiso   1.00
H26    H     0.31922   0.13878   0.28962   0.00000  Uiso   1.00
H27    H     0.14668   0.11001   0.40194   0.00000  Uiso   1.00
H28    H     0.01551   0.19450   0.21056   0.00000  Uiso   1.00
H29    H     0.20667   0.00366   0.21146   0.00000  Uiso   1.00
H30    H     0.12514   0.33126   0.28888   0.00000  Uiso   1.00
H31    H     0.17333   0.06612   0.44238   0.00000  Uiso   1.00
H32    H     0.19916   0.05438   0.00509   0.00000  Uiso   1.00
H33    H     0.17451   0.19673   0.07407   0.00000  Uiso   1.00
H34    H     0.12686   0.25594   0.41755   0.00000  Uiso   1.00
H35    H     0.15373   0.23594   0.03863   0.00000  Uiso   1.00
H36    H     0.13130   0.27937   0.49388   0.00000  Uiso   1.00
N37    N     0.22072   0.04455   0.10622   0.00000  Uiso   1.00
O38    O     0.16667   0.16667   0.25000   0.00000  Uiso   1.00
O39    O     0.15451   0.12637   0.15458   0.00000  Uiso   1.00
O40    O     0.12940   0.20391   0.34968   0.00000  Uiso   1.00
O41    O     0.20824   0.17759   0.14606   0.00000  Uiso   1.00
O42    O     0.17451   0.15880   0.34968   0.00000  Uiso   1.00
O43    O     0.17930   0.08019   0.28213   0.00000  Uiso   1.00
O44    O     0.14632   0.26085   0.27013   0.00000  Uiso   1.00
O45    O     0.07412   0.13291   0.23413   0.00000  Uiso   1.00
O46    O     0.26693   0.19272   0.21360   0.00000  Uiso   1.00
O47    O     0.07071   0.18878   0.28213   0.00000  Uiso   1.00
O48    O     0.25491   0.15226   0.27013   0.00000  Uiso   1.00
O49    O     0.13760   0.06944   0.23413   0.00000  Uiso   1.00
O50    O     0.20345   0.25620   0.21360   0.00000  Uiso   1.00
Zn51   Zn    0.19338   0.13994   0.28734   0.00000  Uiso   1.00
Zn52   Zn    0.13379   0.12458   0.21875   0.00000  Uiso   1.00
Zn53   Zn    0.21056   0.19775   0.20657   0.00000  Uiso   1.00
Zn54   Zn    0.12893   0.20439   0.28733   0.00000  Uiso   1.00
C55    C     0.38606   0.15953   0.26000   0.00000  Uiso   1.00
C56    C     0.51370   0.16654   0.05722   0.00000  Uiso   1.00
C57    C     0.53271   0.09806   0.06226   0.00000  Uiso   1.00
C58    C     0.61406   0.17377   0.24005   0.00000  Uiso   1.00
C59    C     0.47683   0.19416   0.41943   0.00000  Uiso   1.00
C60    C     0.65990   0.17648   0.23610   0.00000  Uiso   1.00
C61    C     0.34080   0.15689   0.26378   0.00000  Uiso   1.00
C62    C     0.51369   0.32243   0.23650   0.00000  Uiso   1.00
C63    C     0.48516   0.01170   0.26372   0.00000  Uiso   1.00
C64    C     0.48946   0.05583   0.26014   0.00000  Uiso   1.00
C65    C     0.50988   0.27786   0.24018   0.00000  Uiso   1.00
C66    C     0.47103   0.24805   0.48060   0.00000  Uiso   1.00
C67    C     0.51846   0.14786   0.12947   0.00000  Uiso   1.00
C68    C     0.48151   0.18417   0.37100   0.00000  Uiso   1.00
C69    C     0.52736   0.08580   0.01947   0.00000  Uiso   1.00
C70    C     0.52488   0.13832   0.08148   0.00000  Uiso   1.00
C71    C     0.46792   0.23434   0.43748   0.00000  Uiso   1.00
C72    C     0.54459   0.06834   0.08664   0.00000  Uiso   1.00
C73    C     0.48413   0.22247   0.00611   0.00000  Uiso   1.00
C74    C     0.49258   0.18131   0.48960   0.00000  Uiso   1.00
C75    C     0.48639   0.16642   0.44653   0.00000  Uiso   1.00
C76    C     0.50681   0.15434   0.01437   0.00000  Uiso   1.00
C77    C     0.51325   0.11296   0.49610   0.00000  Uiso   1.00
C78    C     0.50376   0.09821   0.45550   0.00000  Uiso   1.00
C79    C     0.48946   0.12410   0.43171   0.00000  Uiso   1.00
H80    H     0.65256   0.13878   0.28962   0.00000  Uiso   1.00
H81    H     0.48002   0.11001   0.40194   0.00000  Uiso   1.00
H82    H     0.34884   0.19450   0.21056   0.00000  Uiso   1.00
H83    H     0.54000   0.00366   0.21146   0.00000  Uiso   1.00
H84    H     0.45848   0.33126   0.28888   0.00000  Uiso   1.00
H85    H     0.50666   0.06612   0.44238   0.00000  Uiso   1.00
H86    H     0.53249   0.05438   0.00509   0.00000  Uiso   1.00
H87    H     0.50784   0.19673   0.07407   0.00000  Uiso   1.00
H88    H     0.46019   0.25594   0.41755   0.00000  Uiso   1.00
H89    H     0.48706   0.23594   0.03863   0.00000  Uiso   1.00
H90    H     0.46464   0.27937   0.49388   0.00000  Uiso   1.00
N91    N     0.55406   0.04455   0.10622   0.00000  Uiso   1.00
O92    O     0.50000   0.16667   0.25000   0.00000  Uiso   1.00
O93    O     0.48784   0.12637   0.15458   0.00000  Uiso   1.00
O94    O     0.46274   0.20391   0.34968   0.00000  Uiso   1.00
O95    O     0.54157   0.17759   0.14606   0.00000  Uiso   1.00
O96    O     0.50785   0.15880   0.34968   0.00000  Uiso   1.00
O97    O     0.51264   0.08019   0.28213   0.00000  Uiso   1.00
O98    O     0.47965   0.26085   0.27013   0.00000  Uiso   1.00
O99    O     0.40745   0.13291   0.23413   0.00000  Uiso   1.00
O100   O     0.60026   0.19272   0.21360   0.00000  Uiso   1.00
O101   O     0.40405   0.18878   0.28213   0.00000  Uiso   1.00
O102   O     0.58824   0.15226   0.27013   0.00000  Uiso   1.00
O103   O     0.47093   0.06944   0.23413   0.00000  Uiso   1.00
O104   O     0.53678   0.25620   0.21360   0.00000  Uiso   1.00
Zn105  Zn    0.52672   0.13994   0.28734   0.00000  Uiso   1.00
Zn106  Zn    0.46713   0.12458   0.21875   0.00000  Uiso   1.00
Zn107  Zn    0.54389   0.19775   0.20657   0.00000  Uiso   1.00
Zn108  Zn    0.46226   0.20439   0.28733   0.00000  Uiso   1.00
C109   C     0.71939   0.15953   0.26000   0.00000  Uiso   1.00
C110   C     0.84703   0.16654   0.05722   0.00000  Uiso   1.00
C111   C     0.86605   0.09806   0.06226   0.00000  Uiso   1.00
C112   C     0.94740   0.17377   0.24005   0.00000  Uiso   1.00
C113   C     0.81016   0.19416   0.41943   0.00000  Uiso   1.00
C114   C     0.99323   0.17648   0.23610   0.00000  Uiso   1.00
C115   C     0.67413   0.15689   0.26378   0.00000  Uiso   1.00
C116   C     0.84702   0.32243   0.23650   0.00000  Uiso   1.00
C117   C     0.81849   0.01170   0.26372   0.00000  Uiso   1.00
C118   C     0.82279   0.05583   0.26014   0.00000  Uiso   1.00
C119   C     0.84321   0.27786   0.24018   0.00000  Uiso   1.00
C120   C     0.80437   0.24805   0.48060   0.00000  Uiso   1.00
C121   C     0.85179   0.14786   0.12947   0.00000  Uiso   1.00
C122   C     0.81484   0.18417   0.37100   0.00000  Uiso   1.00
C123   C     0.86069   0.08580   0.01947   0.00000  Uiso   1.00
C124   C     0.85821   0.13832   0.08148   0.00000  Uiso   1.00
C125   C     0.80125   0.23434   0.43748   0.00000  Uiso   1.00
C126   C     0.87792   0.06834   0.08664   0.00000  Uiso   1.00
C127   C     0.81747   0.22247   0.00611   0.00000  Uiso   1.00
C128   C     0.82592   0.18131   0.48960   0.00000  Uiso   1.00
C129   C     0.81973   0.16642   0.44653   0.00000  Uiso   1.00
C130   C     0.84014   0.15434   0.01437   0.00000  Uiso   1.00
C131   C     0.84659   0.11296   0.49610   0.00000  Uiso   1.00
C132   C     0.83710   0.09821   0.45550   0.00000  Uiso   1.00
C133   C     0.82279   0.12410   0.43171   0.00000  Uiso   1.00
H134   H     0.98589   0.13878   0.28962   0.00000  Uiso   1.00
H135   H     0.81335   0.11001   0.40194   0.00000  Uiso   1.00
H136   H     0.68218   0.19450   0.21056   0.00000  Uiso   1.00
H137   H     0.87334   0.00366   0.21146   0.00000  Uiso   1.00
H138   H     0.79181   0.33126   0.28888   0.00000  Uiso   1.00
H139   H     0.83999   0.06612   0.44238   0.00000  Uiso   1.00
H140   H     0.86583   0.05438   0.00509   0.00000  Uiso   1.00
H141   H     0.84117   0.19673   0.07407   0.00000  Uiso   1.00
H142   H     0.79353   0.25594   0.41755   0.00000  Uiso   1.00
H143   H     0.82039   0.23594   0.03863   0.00000  Uiso   1.00
H144   H     0.79797   0.27937   0.49388   0.00000  Uiso   1.00
N145   N     0.88739   0.04455   0.10622   0.00000  Uiso   1.00
O146   O     0.83333   0.16667   0.25000   0.00000  Uiso   1.00
O147   O     0.82118   0.12637   0.15458   0.00000  Uiso   1.00
O148   O     0.79607   0.20391   0.34968   0.00000  Uiso   1.00
O149   O     0.87491   0.17759   0.14606   0.00000  Uiso   1.00
O150   O     0.84118   0.15880   0.34968   0.00000  Uiso   1.00
O151   O     0.84597   0.08019   0.28213   0.00000  Uiso   1.00
O152   O     0.81298   0.26085   0.27013   0.00000  Uiso   1.00
O153   O     0.74078   0.13291   0.23413   0.00000  Uiso   1.00
O154   O     0.93360   0.19272   0.21360   0.00000  Uiso   1.00
O155   O     0.73738   0.18878   0.28213   0.00000  Uiso   1.00
O156   O     0.92158   0.15226   0.27013   0.00000  Uiso   1.00
O157   O     0.80426   0.06944   0.23413   0.00000  Uiso   1.00
O158   O     0.87012   0.25620   0.21360   0.00000  Uiso   1.00
Zn159  Zn    0.86005   0.13994   0.28734   0.00000  Uiso   1.00
Zn160  Zn    0.80046   0.12458   0.21875   0.00000  Uiso   1.00
Zn161  Zn    0.87723   0.19775   0.20657   0.00000  Uiso   1.00
Zn162  Zn    0.79560   0.20439   0.28733   0.00000  Uiso   1.00
C163   C     0.05273   0.49286   0.26000   0.00000  Uiso   1.00
C164   C     0.18037   0.49987   0.05722   0.00000  Uiso   1.00
C165   C     0.19938   0.43139   0.06226   0.00000  Uiso   1.00
C166   C     0.28073   0.50710   0.24005   0.00000  Uiso   1.00
C167   C     0.14349   0.52750   0.41943   0.00000  Uiso   1.00
C168   C     0.32656   0.50981   0.23610   0.00000  Uiso   1.00
C169   C     0.00747   0.49023   0.26378   0.00000  Uiso   1.00
C170   C     0.18036   0.65576   0.23650   0.00000  Uiso   1.00
C171   C     0.15182   0.34503   0.26372   0.00000  Uiso   1.00
C172   C     0.15613   0.38916   0.26014   0.00000  Uiso   1.00
C173   C     0.17654   0.61120   0.24018   0.00000  Uiso   1.00
C174   C     0.13770   0.58139   0.48060   0.00000  Uiso   1.00
C175   C     0.18513   0.48120   0.12947   0.00000  Uiso   1.00
C176   C     0.14817   0.51750   0.37100   0.00000  Uiso   1.00
C177   C     0.19403   0.41913   0.01947   0.00000  Uiso   1.00
C178   C     0.19154   0.47165   0.08148   0.00000  Uiso   1.00
C179   C     0.13458   0.56767   0.43748   0.00000  Uiso   1.00
C180   C     0.21125   0.40167   0.08664   0.00000  Uiso   1.00
C181   C     0.15080   0.55580   0.00611   0.00000  Uiso   1.00
C182   C     0.15925   0.51464   0.48960   0.00000  Uiso   1.00
C183   C     0.15306   0.49976   0.44653   0.00000  Uiso   1.00
C184   C     0.17347   0.48768   0.01437   0.00000  Uiso   1.00
C185   C     0.17992   0.44630   0.49610   0.00000  Uiso   1.00
C186   C     0.17043   0.43155   0.45550   0.00000  Uiso   1.00
C187   C     0.15612   0.45743   0.43171   0.00000  Uiso   1.00
H188   H     0.31922   0.47211   0.28962   0.00000  Uiso   1.00
H189   H     0.14668   0.44334   0.40194   0.00000  Uiso   1.00
H190   H     0.01551   0.52783   0.21056   0.00000  Uiso   1.00
H191   H     0.20667   0.33699   0.21146   0.00000  Uiso   1.00
H192   H     0.12514   0.66460   0.28888   0.00000  Uiso   1.00
H193   H     0.17333   0.39945   0.44238   0.00000  Uiso   1.00
H194   H     0.19916   0.38771   0.00509   0.00000  Uiso   1.00
H195   H     0.17451   0.53006   0.07407   0.00000  Uiso   1.00
H196   H     0.12686   0.58927   0.41755   0.00000  Uiso   1.00
H197   H     0.15373   0.56927   0.03863   0.00000  Uiso   1.00
H198   H     0.13130   0.61270   0.49388   0.00000  Uiso   1.00
N199   N     0.22072   0.37789   0.10622   0.00000  Uiso   1.00
O200   O     0.16667   0.50000   0.25000   0.00000  Uiso   1.00
O201   O     0.15451   0.45970   0.15458   0.00000  Uiso   1.00
O202   O     0.12940   0.53724   0.34968   0.00000  Uiso   1.00
O203   O     0.20824   0.51092   0.14606   0.00000  Uiso   1.00
O204   O     0.17451   0.49213   0.34968   0.00000  Uiso   1.00
O205   O     0.17930   0.41352   0.28213   0.00000  Uiso   1.00
O206   O     0.14632   0.59418   0.27013   0.00000  Uiso   1.00
O207   O     0.07412   0.46625   0.23413   0.00000  Uiso   1.00
O208   O     0.26693   0.52605   0.21360   0.00000  Uiso   1.00
O209   O     0.07071   0.52211   0.28213   0.00000  Uiso   1.00
O210   O     0.25491   0.48559   0.27013   0.00000  Uiso   1.00
O211   O     0.13760   0.40277   0.23413   0.00000  Uiso   1.00
O212   O     0.20345   0.58953   0.21360   0.00000  Uiso   1.00
Zn213  Zn    0.19338   0.47327   0.28734   0.00000  Uiso   1.00
Zn214  Zn    0.13379   0.45791   0.21875   0.00000  Uiso   1.00
Zn215  Zn    0.21056   0.53109   0.20657   0.00000  Uiso   1.00
Zn216  Zn    0.12893   0.53773   0.28733   0.00000  Uiso   1.00
C217   C     0.38606   0.49286   0.26000   0.00000  Uiso   1.00
C218   C     0.51370   0.49987   0.05722   0.00000  Uiso   1.00
C219   C     0.53271   0.43139   0.06226   0.00000  Uiso   1.00
C220   C     0.61406   0.50710   0.24005   0.00000  Uiso   1.00
C221   C     0.47683   0.52750   0.41943   0.00000  Uiso   1.00
C222   C     0.65990   0.50981   0.23610   0.00000  Uiso   1.00
C223   C     0.34080   0.49023   0.26378   0.00000  Uiso   1.00
C224   C     0.51369   0.65576   0.23650   0.00000  Uiso   1.00
C225   C     0.48516   0.34503   0.26372   0.00000  Uiso   1.00
C226   C     0.48946   0.38916   0.26014   0.00000  Uiso   1.00
C227   C     0.50988   0.61120   0.24018   0.00000  Uiso   1.00
C228   C     0.47103   0.58139   0.48060   0.00000  Uiso   1.00
C229   C     0.51846   0.48120   0.12947   0.00000  Uiso   1.00
C230   C     0.48151   0.51750   0.37100   0.00000  Uiso   1.00
C231   C     0.52736   0.41913   0.01947   0.00000  Uiso   1.00
C232   C     0.52488   0.47165   0.08148   0.00000  Uiso   1.00
C233   C     0.46792   0.56767   0.43748   0.00000  Uiso   1.00
C234   C     0.54459   0.40167   0.08664   0.00000  Uiso   1.00
C235   C     0.48413   0.55580   0.00611   0.00000  Uiso   1.00
C236   C     0.49258   0.51464   0.48960   0.00000  Uiso   1.00
C237   C     0.48639   0.49976   0.44653   0.00000  Uiso   1.00
C238   C     0.50681   0.48768   0.01437   0.00000  Uiso   1.00
C239   C     0.51325   0.44630   0.49610   0.00000  Uiso   1.00
C240   C     0.50376   0.43155   0.45550   0.00000  Uiso   1.00
C241   C     0.48946   0.45743   0.43171   0.00000  Uiso   1.00
H242   H     0.65256   0.47211   0.28962   0.00000  Uiso   1.00
H243   H     0.48002   0.44334   0.40194   0.00000  Uiso   1.00
H244   H     0.34884   0.52783   0.21056   0.00000  Uiso   1.00
H245   H     0.54000   0.33699   0.21146   0.00000  Uiso   1.00
H246   H     0.45848   0.66460   0.28888   0.00000  Uiso   1.00
H247   H     0.50666   0.39945   0.44238   0.00000  Uiso   1.00
H248   H     0.53249   0.38771   0.00509   0.00000  Uiso   1.00
H249   H     0.50784   0.53006   0.07407   0.00000  Uiso   1.00
H250   H     0.46019   0.58927   0.41755   0.00000  Uiso   1.00
H251   H     0.48706   0.56927   0.03863   0.00000  Uiso   1.00
H252   H     0.46464   0.61270   0.49388   0.00000  Uiso   1.00
N253   N     0.55406   0.37789   0.10622   0.00000  Uiso   1.00
O254   O     0.50000   0.50000   0.25000   0.00000  Uiso   1.00
O255   O     0.48784   0.45970   0.15458   0.00000  Uiso   1.00
O256   O     0.46274   0.53724   0.34968   0.00000  Uiso   1.00
O257   O     0.54157   0.51092   0.14606   0.00000  Uiso   1.00
O258   O     0.50785   0.49213   0.34968   0.00000  Uiso   1.00
O259   O     0.51264   0.41352   0.28213   0.00000  Uiso   1.00
O260   O     0.47965   0.59418   0.27013   0.00000  Uiso   1.00
O261   O     0.40745   0.46625   0.23413   0.00000  Uiso   1.00
O262   O     0.60026   0.52605   0.21360   0.00000  Uiso   1.00
O263   O     0.40405   0.52211   0.28213   0.00000  Uiso   1.00
O264   O     0.58824   0.48559   0.27013   0.00000  Uiso   1.00
O265   O     0.47093   0.40277   0.23413   0.00000  Uiso   1.00
O266   O     0.53678   0.58953   0.21360   0.00000  Uiso   1.00
Zn267  Zn    0.52672   0.47327   0.28734   0.00000  Uiso   1.00
Zn268  Zn    0.46713   0.45791   0.21875   0.00000  Uiso   1.00
Zn269  Zn    0.54389   0.53109   0.20657   0.00000  Uiso   1.00
Zn270  Zn    0.46226   0.53773   0.28733   0.00000  Uiso   1.00
C271   C     0.71939   0.49286   0.26000   0.00000  Uiso   1.00
C272   C     0.84703   0.49987   0.05722   0.00000  Uiso   1.00
C273   C     0.86605   0.43139   0.06226   0.00000  Uiso   1.00
C274   C     0.94740   0.50710   0.24005   0.00000  Uiso   1.00
C275   C     0.81016   0.52750   0.41943   0.00000  Uiso   1.00
C276   C     0.99323   0.50981   0.23610   0.00000  Uiso   1.00
C277   C     0.67413   0.49023   0.26378   0.00000  Uiso   1.00
C278   C     0.84702   0.65576   0.23650   0.00000  Uiso   1.00
C279   C     0.81849   0.34503   0.26372   0.00000  Uiso   1.00
C280   C     0.82279   0.38916   0.26014   0.00000  Uiso   1.00
C281   C     0.84321   0.61120   0.24018   0.00000  Uiso   1.00
C282   C     0.80437   0.58139   0.48060   0.00000  Uiso   1.00
C283   C     0.85179   0.48120   0.12947   0.00000  Uiso   1.00
C284   C     0.81484   0.51750   0.37100   0.00000  Uiso   1.00
C285   C     0.86069   0.41913   0.01947   0.00000  Uiso   1.00
C286   C     0.85821   0.47165   0.08148   0.00000  Uiso   1.00
C287   C     0.80125   0.56767   0.43748   0.00000  Uiso   1.00
C288   C     0.87792   0.40167   0.08664   0.00000  Uiso   1.00
C289   C     0.81747   0.55580   0.00611   0.00000  Uiso   1.00
C290   C     0.82592   0.51464   0.48960   0.00000  Uiso   1.00
C291   C     0.81973   0.49976   0.44653   0.00000  Uiso   1.00
C292   C     0.84014   0.48768   0.01437   0.00000  Uiso   1.00
C293   C     0.84659   0.44630   0.49610   0.00000  Uiso   1.00
C294   C     0.83710   0.43155   0.45550   0.00000  Uiso   1.00
C295   C     0.82279   0.45743   0.43171   0.00000  Uiso   1.00
H296   H     0.98589   0.47211   0.28962   0.00000  Uiso   1.00
H297   H     0.81335   0.44334   0.40194   0.00000  Uiso   1.00
H298   H     0.68218   0.52783   0.21056   0.00000  Uiso   1.00
H299   H     0.87334   0.33699   0.21146   0.00000  Uiso   1.00
H300   H     0.79181   0.66460   0.28888   0.00000  Uiso   1.00
H301   H     0.83999   0.39945   0.44238   0.00000  Uiso   1.00
H302   H     0.86583   0.38771   0.00509   0.00000  Uiso   1.00
H303   H     0.84117   0.53006   0.07407   0.00000  Uiso   1.00
H304   H     0.79353   0.58927   0.41755   0.00000  Uiso   1.00
H305   H     0.82039   0.56927   0.03863   0.00000  Uiso   1.00
H306   H     0.79797   0.61270   0.49388   0.00000  Uiso   1.00
N307   N     0.88739   0.37789   0.10622   0.00000  Uiso   1.00
O308   O     0.83333   0.50000   0.25000   0.00000  Uiso   1.00
O309   O     0.82118   0.45970   0.15458   0.00000  Uiso   1.00
O310   O     0.79607   0.53724   0.34968   0.00000  Uiso   1.00
O311   O     0.87491   0.51092   0.14606   0.00000  Uiso   1.00
O312   O     0.84118   0.49213   0.34968   0.00000  Uiso   1.00
O313   O     0.84597   0.41352   0.28213   0.00000  Uiso   1.00
O314   O     0.81298   0.59418   0.27013   0.00000  Uiso   1.00
O315   O     0.74078   0.46625   0.23413   0.00000  Uiso   1.00
O316   O     0.93360   0.52605   0.21360   0.00000  Uiso   1.00
O317   O     0.73738   0.52211   0.28213   0.00000  Uiso   1.00
O318   O     0.92158   0.48559   0.27013   0.00000  Uiso   1.00
O319   O     0.80426   0.40277   0.23413   0.00000  Uiso   1.00
O320   O     0.87012   0.58953   0.21360   0.00000  Uiso   1.00
Zn321  Zn    0.86005   0.47327   0.28734   0.00000  Uiso   1.00
Zn322  Zn    0.80046   0.45791   0.21875   0.00000  Uiso   1.00
Zn323  Zn    0.87723   0.53109   0.20657   0.00000  Uiso   1.00
Zn324  Zn    0.79560   0.53773   0.28733   0.00000  Uiso   1.00
C325   C     0.05273   0.82620   0.26000   0.00000  Uiso   1.00
C326   C     0.18037   0.83320   0.05722   0.00000  Uiso   1.00
C327   C     0.19938   0.76472   0.06226   0.00000  Uiso   1.00
C328   C     0.28073   0.84043   0.24005   0.00000  Uiso   1.00
C329   C     0.14349   0.86083   0.41943   0.00000  Uiso   1.00
C330   C     0.32656   0.84314   0.23610   0.00000  Uiso   1.00
C331   C     0.00747   0.82356   0.26378   0.00000  Uiso   1.00
C332   C     0.18036   0.98910   0.23650   0.00000  Uiso   1.00
C333   C     0.15182   0.67836   0.26372   0.00000  Uiso   1.00
C334   C     0.15613   0.72249   0.26014   0.00000  Uiso   1.00
C335   C     0.17654   0.94453   0.24018   0.00000  Uiso   1.00
C336   C     0.13770   0.91472   0.48060   0.00000  Uiso   1.00
C337   C     0.18513   0.81453   0.12947   0.00000  Uiso   1.00
C338   C     0.14817   0.85083   0.37100   0.00000  Uiso   1.00
C339   C     0.19403   0.75247   0.01947   0.00000  Uiso   1.00
C340   C     0.19154   0.80498   0.08148   0.00000  Uiso   1.00
C341   C     0.13458   0.90100   0.43748   0.00000  Uiso   1.00
C342   C     0.21125   0.73500   0.08664   0.00000  Uiso   1.00
C343   C     0.15080   0.88913   0.00611   0.00000  Uiso   1.00
C344   C     0.15925   0.84798   0.48960   0.00000  Uiso   1.00
C345   C     0.15306   0.83309   0.44653   0.00000  Uiso   1.00
C346   C     0.17347   0.82101   0.01437   0.00000  Uiso   1.00
C347   C     0.17992   0.77963   0.49610   0.00000  Uiso   1.00
C348   C     0.17043   0.76488   0.45550   0.00000  Uiso   1.00
C349   C     0.15612   0.79077   0.43171   0.00000  Uiso   1.00
H350   H     0.31922   0.80545   0.28962   0.00000  Uiso   1.00
H351   H     0.14668   0.77668   0.40194   0.00000  Uiso   1.00
H352   H     0.01551   0.86116   0.21056   0.00000  Uiso   1.00
H353   H     0.20667   0.67032   0.21146   0.00000  Uiso   1.00
H354   H     0.12514   0.99793   0.28888   0.00000  Uiso   1.00
H355   H     0.17333   0.73278   0.44238   0.00000  Uiso   1.00
H356   H     0.19916   0.72105   0.00509   0.00000  Uiso   1.00
H357   H     0.17451   0.86340   0.07407   0.00000  Uiso   1.00
H358   H     0.12686   0.92260   0.41755   0.00000  Uiso   1.00
H359   H     0.15373   0.90260   0.03863   0.00000  Uiso   1.00
H360   H     0.13130   0.94604   0.49388   0.00000  Uiso   1.00
N361   N     0.22072   0.71122   0.10622   0.00000  Uiso   1.00
O362   O     0.16667   0.83333   0.25000   0.00000  Uiso   1.00
O363   O     0.15451   0.79304   0.15458   0.00000  Uiso   1.00
O364   O     0.12940   0.87058   0.34968   0.00000  Uiso   1.00
O365   O     0.20824   0.84425   0.14606   0.00000  Uiso   1.00
O366   O     0.17451   0.82546   0.34968   0.00000  Uiso   1.00
O367   O     0.17930   0.74686   0.28213   0.00000  Uiso   1.00
O368   O     0.14632   0.92751   0.27013   0.00000  Uiso   1.00
O369   O     0.07412   0.79958   0.23413   0.00000  Uiso   1.00
O370   O     0.26693   0.85939   0.21360   0.00000  Uiso   1.00
O371   O     0.07071   0.85544   0.28213   0.00000  Uiso   1.00
O372   O     0.25491   0.81892   0.27013   0.00000  Uiso   1.00
O373   O     0.13760   0.73610   0.23413   0.00000  Uiso   1.00
O374   O     0.20345   0.92286   0.21360   0.00000  Uiso   1.00
Zn375  Zn    0.19338   0.80661   0.28734   0.00000  Uiso   1.00
Zn376  Zn    0.13379   0.79124   0.21875   0.00000  Uiso   1.00
Zn377  Zn    0.21056   0.86442   0.20657   0.00000  Uiso   1.00
Zn378  Zn    0.12893   0.87106   0.28733   0.00000  Uiso   1.00
C379   C     0.38606   0.82620   0.26000   0.00000  Uiso   1.00
C380   C     0.51370   0.83320   0.05722   0.00000  Uiso   1.00
C381   C     0.53271   0.76472   0.06226   0.00000  Uiso   1.00
C382   C     0.61406   0.84043   0.24005   0.00000  Uiso   1.00
C383   C     0.47683   0.86083   0.41943   0.00000  Uiso   1.00
C384   C     0.65990   0.84314   0.23610   0.00000  Uiso   1.00
C385   C     0.34080   0.82356   0.26378   0.00000  Uiso   1.00
C386   C     0.51369   0.98910   0.23650   0.00000  Uiso   1.00
C387   C     0.48516   0.67836   0.26372   0.00000  Uiso   1.00
C388   C     0.48946   0.72249   0.26014   0.00000  Uiso   1.00
C389   C     0.50988   0.94453   0.24018   0.00000  Uiso   1.00
C390   C     0.47103   0.91472   0.48060   0.00000  Uiso   1.00
C391   C     0.51846   0.81453   0.12947   0.00000  Uiso   1.00
C392   C     0.48151   0.85083   0.37100   0.00000  Uiso   1.00
C393   C     0.52736   0.75247   0.01947   0.00000  Uiso   1.00
C394   C     0.52488   0.80498   0.08148   0.00000  Uiso   1.00
C395   C     0.46792   0.90100   0.43748   0.00000  Uiso   1.00
C396   C     0.54459   0.73500   0.08664   0.00000  Uiso   1.00
C397   C     0.48413   0.88913   0.00611   0.00000  Uiso   1.00
C398   C     0.49258   0.84798   0.48960   0.00000  Uiso   1.00
C399   C     0.48639   0.83309   0.44653   0.00000  Uiso   1.00
C400   C     0.50681   0.82101   0.01437   0.00000  Uiso   1.00
C401   C     0.51325   0.77963   0.49610   0.00000  Uiso   1.00
C402   C     0.50376   0.76488   0.45550   0.00000  Uiso   1.00
C403   C     0.48946   0.79077   0.43171   0.00000  Uiso   1.00
H404   H     0.65256   0.80545   0.28962   0.00000  Uiso   1.00
H405   H     0.48002   0.77668   0.40194   0.00000  Uiso   1.00
H406   H     0.34884   0.86116   0.21056   0.00000  Uiso   1.00
H407   H     0.54000   0.67032   0.21146   0.00000  Uiso   1.00
H408   H     0.45848   0.99793   0.28888   0.00000  Uiso   1.00
H409   H     0.50666   0.73278   0.44238   0.00000  Uiso   1.00
H410   H     0.53249   0.72105   0.00509   0.00000  Uiso   1.00
H411   H     0.50784   0.86340   0.07407   0.00000  Uiso   1.00
H412   H     0.46019   0.92260   0.41755   0.00000  Uiso   1.00
H413   H     0.48706   0.90260   0.03863   0.00000  Uiso   1.00
H414   H     0.46464   0.94604   0.49388   0.00000  Uiso   1.00
N415   N     0.55406   0.71122   0.10622   0.00000  Uiso   1.00
O416   O     0.50000   0.83333   0.25000   0.00000  Uiso   1.00
O417   O     0.48784   0.79304   0.15458   0.00000  Uiso   1.00
O418   O     0.46274   0.87058   0.34968   0.00000  Uiso   1.00
O419   O     0.54157   0.84425   0.14606   0.00000  Uiso   1.00
O420   O     0.50785   0.82546   0.34968   0.00000  Uiso   1.00
O421   O     0.51264   0.74686   0.28213   0.00000  Uiso   1.00
O422   O     0.47965   0.92751   0.27013   0.00000  Uiso   1.00
O423   O     0.40745   0.79958   0.23413   0.00000  Uiso   1.00
O424   O     0.60026   0.85939   0.21360   0.00000  Uiso   1.00
O425   O     0.40405   0.85544   0.28213   0.00000  Uiso   1.00
O426   O     0.58824   0.81892   0.27013   0.00000  Uiso   1.00
O427   O     0.47093   0.73610   0.23413   0.00000  Uiso   1.00
O428   O     0.53678   0.92286   0.21360   0.00000  Uiso   1.00
Zn429  Zn    0.52672   0.80661   0.28734   0.00000  Uiso   1.00
Zn430  Zn    0.46713   0.79124   0.21875   0.00000  Uiso   1.00
Zn431  Zn    0.54389   0.86442   0.20657   0.00000  Uiso   1.00
Zn432  Zn    0.46226   0.87106   0.28733   0.00000  Uiso   1.00
C433   C     0.71939   0.82620   0.26000   0.00000  Uiso   1.00
C434   C     0.84703   0.83320   0.05722   0.00000  Uiso   1.00
C435   C     0.86605   0.76472   0.06226   0.00000  Uiso   1.00
C436   C     0.94740   0.84043   0.24005   0.00000  Uiso   1.00
C437   C     0.81016   0.86083   0.41943   0.00000  Uiso   1.00
C438   C     0.99323   0.84314   0.23610   0.00000  Uiso   1.00
C439   C     0.67413   0.82356   0.26378   0.00000  Uiso   1.00
C440   C     0.84702   0.98910   0.23650   0.00000  Uiso   1.00
C441   C     0.81849   0.67836   0.26372   0.00000  Uiso   1.00
C442   C     0.82279   0.72249   0.26014   0.00000  Uiso   1.00
C443   C     0.84321   0.94453   0.24018   0.00000  Uiso   1.00
C444   C     0.80437   0.91472   0.48060   0.00000  Uiso   1.00
C445   C     0.85179   0.81453   0.12947   0.00000  Uiso   1.00
C446   C     0.81484   0.85083   0.37100   0.00000  Uiso   1.00
C447   C     0.86069   0.75247   0.01947   0.00000  Uiso   1.00
C448   C     0.85821   0.80498   0.08148   0.00000  Uiso   1.00
C449   C     0.80125   0.90100   0.43748   0.00000  Uiso   1.00
C450   C     0.87792   0.73500   0.08664   0.00000  Uiso   1.00
C451   C     0.81747   0.88913   0.00611   0.00000  Uiso   1.00
C452   C     0.82592   0.84798   0.48960   0.00000  Uiso   1.00
C453   C     0.81973   0.83309   0.44653   0.00000  Uiso   1.00
C454   C     0.84014   0.82101   0.01437   0.00000  Uiso   1.00
C455   C     0.84659   0.77963   0.49610   0.00000  Uiso   1.00
C456   C     0.83710   0.76488   0.45550   0.00000  Uiso   1.00
C457   C     0.82279   0.79077   0.43171   0.00000  Uiso   1.00
H458   H     0.98589   0.80545   0.28962   0.00000  Uiso   1.00
H459   H     0.81335   0.77668   0.40194   0.00000  Uiso   1.00
H460   H     0.68218   0.86116   0.21056   0.00000  Uiso   1.00
H461   H     0.87334   0.67032   0.21146   0.00000  Uiso   1.00
H462   H     0.79181   0.99793   0.28888   0.00000  Uiso   1.00
H463   H     0.83999   0.73278   0.44238   0.00000  Uiso   1.00
H464   H     0.86583   0.72105   0.00509   0.00000  Uiso   1.00
H465   H     0.84117   0.86340   0.07407   0.00000  Uiso   1.00
H466   H     0.79353   0.92260   0.41755   0.00000  Uiso   1.00
H467   H     0.82039   0.90260   0.03863   0.00000  Uiso   1.00
H468   H     0.79797   0.94604   0.49388   0.00000  Uiso   1.00
N469   N     0.88739   0.71122   0.10622   0.00000  Uiso   1.00
O470   O     0.83333   0.83333   0.25000   0.00000  Uiso   1.00
O471   O     0.82118   0.79304   0.15458   0.00000  Uiso   1.00
O472   O     0.79607   0.87058   0.34968   0.00000  Uiso   1.00
O473   O     0.87491   0.84425   0.14606   0.00000  Uiso   1.00
O474   O     0.84118   0.82546   0.34968   0.00000  Uiso   1.00
O475   O     0.84597   0.74686   0.28213   0.00000  Uiso   1.00
O476   O     0.81298   0.92751   0.27013   0.00000  Uiso   1.00
O477   O     0.74078   0.79958   0.23413   0.00000  Uiso   1.00
O478   O     0.93360   0.85939   0.21360   0.00000  Uiso   1.00
O479   O     0.73738   0.85544   0.28213   0.00000  Uiso   1.00
O480   O     0.92158   0.81892   0.27013   0.00000  Uiso   1.00
O481   O     0.80426   0.73610   0.23413   0.00000  Uiso   1.00
O482   O     0.87012   0.92286   0.21360   0.00000  Uiso   1.00
Zn483  Zn    0.86005   0.80661   0.28734   0.00000  Uiso   1.00
Zn484  Zn    0.80046   0.79124   0.21875   0.00000  Uiso   1.00
Zn485  Zn    0.87723   0.86442   0.20657   0.00000  Uiso   1.00
Zn486  Zn    0.79560   0.87106   0.28733   0.00000  Uiso   1.00
C487   C     0.05273   0.15953   0.76000   0.00000  Uiso   1.00
C488   C     0.18037   0.16654   0.55722   0.00000  Uiso   1.00
C489   C     0.19938   0.09806   0.56226   0.00000  Uiso   1.00
C490   C     0.28073   0.17377   0.74005   0.00000  Uiso   1.00
C491   C     0.14349   0.19416   0.91943   0.00000  Uiso   1.00
C492   C     0.32656   0.17648   0.73610   0.00000  Uiso   1.00
C493   C     0.00747   0.15689   0.76378   0.00000  Uiso   1.00
C494   C     0.18036   0.32243   0.73650   0.00000  Uiso   1.00
C495   C     0.15182   0.01170   0.76372   0.00000  Uiso   1.00
C496   C     0.15613   0.05583   0.76014   0.00000  Uiso   1.00
C497   C     0.17654   0.27786   0.74018   0.00000  Uiso   1.00
C498   C     0.13770   0.24805   0.98060   0.00000  Uiso   1.00
C499   C     0.18513   0.14786   0.62947   0.00000  Uiso   1.00
C500   C     0.14817   0.18417   0.87100   0.00000  Uiso   1.00
C501   C     0.19403   0.08580   0.51947   0.00000  Uiso   1.00
C502   C     0.19154   0.13832   0.58148   0.00000  Uiso   1.00
C503   C     0.13458   0.23434   0.93748   0.00000  Uiso   1.00
C504   C     0.21125   0.06834   0.58664   0.00000  Uiso   1.00
C505   C     0.15080   0.22247   0.50611   0.00000  Uiso   1.00
C506   C     0.15925   0.18131   0.98960   0.00000  Uiso   1.00
C507   C     0.15306   0.16642   0.94653   0.00000  Uiso   1.00
C508   C     0.17347   0.15434   0.51437   0.00000  Uiso   1.00
C509   C     0.17992   0.11296   0.99610   0.00000  Uiso   1.00
C510   C     0.17043   0.09821   0.95550   0.00000  Uiso   1.00
C511   C     0.15612   0.12410   0.93171   0.00000  Uiso   1.00
H512   H     0.31922   0.13878   0.78962   0.00000  Uiso   1.00
H513   H     0.14668   0.11001   0.90194   0.00000  Uiso   1.00
H514   H     0.01551   0.19450   0.71056   0.00000  Uiso   1.00
H515   H     0.20667   0.00366   0.71146   0.00000  Uiso   1.00
H516   H     0.12514   0.33126   0.78888   0.00000  Uiso   1.00
H517   H     0.17333   0.06612   0.94238   0.00000  Uiso   1.00
H518   H     0.19916   0.05438   0.50509   0.00000  Uiso   1.00
H519   H     0.17451   0.19673   0.57407   0.00000  Uiso   1.00
H520   H     0.12686   0.25594   0.91755   0.00000  Uiso   1.00
H521   H     0.15373   0.23594   0.53863   0.00000  Uiso   1.00
H522   H     0.13130   0.27937   0.99388   0.00000  Uiso   1.00
N523   N     0.22072   0.04455   0.60622   0.00000  Uiso   1.00
O524   O     0.16667   0.16667   0.75000   0.00000  Uiso   1.00
O525   O     0.15451   0.12637   0.65458   0.00000  Uiso   1.00
O526   O     0.12940   0.20391   0.84968   0.00000  Uiso   1.00
O527   O     0.20824   0.17759   0.64606   0.00000  Uiso   1.00
O528   O     0.17451   0.15880   0.84968   0.00000  Uiso   1.00
O529   O     0.17930   0.08019   0.78213   0.00000  Uiso   1.00
O530   O     0.14632   0.26085   0.77013   0.00000  Uiso   1.00
O531   O     0.07412   0.13291   0.73413   0.00000  Uiso   1.00
O532   O     0.26693   0.19272   0.71360   0.00000  Uiso   1.00
O533   O     0.07071   0.18878   0.78213   0.00000  Uiso   1.00
O534   O     0.25491   0.15226   0.77013   0.00000  Uiso   1.00
O535   O     0.13760   0.06944   0.73413   0.00000  Uiso   1.00
O536   O     0.20345   0.25620   0.71360   0.00000  Uiso   1.00
Zn537  Zn    0.19338   0.13994   0.78734   0.00000  Uiso   1.00
Zn538  Zn    0.13379   0.12458   0.71875   0.00000  Uiso   1.00
Zn539  Zn    0.21056   0.19775   0.70657   0.00000  Uiso   1.00
Zn540  Zn    0.12893   0.20439   0.78733   0.00000  Uiso   1.00
C541   C     0.38606   0.15953   0.76000   0.00000  Uiso   1.00
C542   C     0.51370   0.16654   0.55722   0.00000  Uiso   1.00
C543   C     0.53271   0.09806   0.56226   0.00000  Uiso   1.00
C544   C     0.61406   0.17377   0.74005   0.00000  Uiso   1.00
C545   C     0.47683   0.19416   0.91943   0.00000  Uiso   1.00
C546   C     0.65990   0.17648   0.73610   0.00000  Uiso   1.00
C547   C     0.34080   0.15689   0.76378   0.00000  Uiso   1.00
C548   C     0.51369   0.32243   0.73650   0.00000  Uiso   1.00
C549   C     0.48516   0.01170   0.76372   0.00000  Uiso   1.00
C550   C     0.48946   0.05583   0.76014   0.00000  Uiso   1.00
C551   C     0.50988   0.27786   0.74018   0.00000  Uiso   1.00
C552   C     0.47103   0.24805   0.98060   0.00000  Uiso   1.00
C553   C     0.51846   0.14786   0.62947   0.00000  Uiso   1.00
C554   C     0.48151   0.18417   0.87100   0.00000  Uiso   1.00
C555   C     0.52736   0.08580   0.51947   0.00000  Uiso   1.00
C556   C     0.52488   0.13832   0.58148   0.00000  Uiso   1.00
C557   C     0.46792   0.23434   0.93748   0.00000  Uiso   1.00
C558   C     0.54459   0.06834   0.58664   0.00000  Uiso   1.00
C559   C     0.48413   0.22247   0.50611   0.00000  Uiso   1.00
C560   C     0.49258   0.18131   0.98960   0.00000  Uiso   1.00
C561   C     0.48639   0.16642   0.94653   0.00000  Uiso   1.00
C562   C     0.50681   0.15434   0.51437   0.00000  Uiso   1.00
C563   C     0.51325   0.11296   0.99610   0.00000  Uiso   1.00
C564   C     0.50376   0.09821   0.95550   0.00000  Uiso   1.00
C565   C     0.48946   0.12410   0.93171   0.00000  Uiso   1.00
H566   H     0.65256   0.13878   0.78962   0.00000  Uiso   1.00
H567   H     0.48002   0.11001   0.90194   0.00000  Uiso   1.00
H568   H     0.34884   0.19450   0.71056   0.00000  Uiso   1.00
H569   H     0.54000   0.00366   0.71146   0.00000  Uiso   1.00
H570   H     0.45848   0.33126   0.78888   0.00000  Uiso   1.00
H571   H     0.50666   0.06612   0.94238   0.00000  Uiso   1.00
H572   H     0.53249   0.05438   0.50509   0.00000  Uiso   1.00
H573   H     0.50784   0.19673   0.57407   0.00000  Uiso   1.00
H574   H     0.46019   0.25594   0.91755   0.00000  Uiso   1.00
H575   H     0.48706   0.23594   0.53863   0.00000  Uiso   1.00
H576   H     0.46464   0.27937   0.99388   0.00000  Uiso   1.00
N577   N     0.55406   0.04455   0.60622   0.00000  Uiso   1.00
O578   O     0.50000   0.16667   0.75000   0.00000  Uiso   1.00
O579   O     0.48784   0.12637   0.65458   0.00000  Uiso   1.00
O580   O     0.46274   0.20391   0.84968   0.00000  Uiso   1.00
O581   O     0.54157   0.17759   0.64606   0.00000  Uiso   1.00
O582   O     0.50785   0.15880   0.84968   0.00000  Uiso   1.00
O583   O     0.51264   0.08019   0.78213   0.00000  Uiso   1.00
O584   O     0.47965   0.26085   0.77013   0.00000  Uiso   1.00
O585   O     0.40745   0.13291   0.73413   0.00000  Uiso   1.00
O586   O     0.60026   0.19272   0.71360   0.00000  Uiso   1.00
O587   O     0.40405   0.18878   0.78213   0.00000  Uiso   1.00
O588   O     0.58824   0.15226   0.77013   0.00000  Uiso   1.00
O589   O     0.47093   0.06944   0.73413   0.00000  Uiso   1.00
O590   O     0.53678   0.25620   0.71360   0.00000  Uiso   1.00
Zn591  Zn    0.52672   0.13994   0.78734   0.00000  Uiso   1.00
Zn592  Zn    0.46713   0.12458   0.71875   0.00000  Uiso   1.00
Zn593  Zn    0.54389   0.19775   0.70657   0.00000  Uiso   1.00
Zn594  Zn    0.46226   0.20439   0.78733   0.00000  Uiso   1.00
C595   C     0.71939   0.15953   0.76000   0.00000  Uiso   1.00
C596   C     0.84703   0.16654   0.55722   0.00000  Uiso   1.00
C597   C     0.86605   0.09806   0.56226   0.00000  Uiso   1.00
C598   C     0.94740   0.17377   0.74005   0.00000  Uiso   1.00
C599   C     0.81016   0.19416   0.91943   0.00000  Uiso   1.00
C600   C     0.99323   0.17648   0.73610   0.00000  Uiso   1.00
C601   C     0.67413   0.15689   0.76378   0.00000  Uiso   1.00
C602   C     0.84702   0.32243   0.73650   0.00000  Uiso   1.00
C603   C     0.81849   0.01170   0.76372   0.00000  Uiso   1.00
C604   C     0.82279   0.05583   0.76014   0.00000  Uiso   1.00
C605   C     0.84321   0.27786   0.74018   0.00000  Uiso   1.00
C606   C     0.80437   0.24805   0.98060   0.00000  Uiso   1.00
C607   C     0.85179   0.14786   0.62947   0.00000  Uiso   1.00
C608   C     0.81484   0.18417   0.87100   0.00000  Uiso   1.00
C609   C     0.86069   0.08580   0.51947   0.00000  Uiso   1.00
C610   C     0.85821   0.13832   0.58148   0.00000  Uiso   1.00
C611   C     0.80125   0.23434   0.93748   0.00000  Uiso   1.00
C612   C     0.87792   0.06834   0.58664   0.00000  Uiso   1.00
C613   C     0.81747   0.22247   0.50611   0.00000  Uiso   1.00
C614   C     0.82592   0.18131   0.98960   0.00000  Uiso   1.00
C615   C     0.81973   0.16642   0.94653   0.00000  Uiso   1.00
C616   C     0.84014   0.15434   0.51437   0.00000  Uiso   1.00
C617   C     0.84659   0.11296   0.99610   0.00000  Uiso   1.00
C618   C     0.83710   0.09821   0.95550   0.00000  Uiso   1.00
C619   C     0.82279   0.12410   0.93171   0.00000  Uiso   1.00
H620   H     0.98589   0.13878   0.78962   0.00000  Uiso   1.00
H621   H     0.81335   0.11001   0.90194   0.00000  Uiso   1.00
H622   H     0.68218   0.19450   0.71056   0.00000  Uiso   1.00
H623   H     0.87334   0.00366   0.71146   0.00000  Uiso   1.00
H624   H     0.79181   0.33126   0.78888   0.00000  Uiso   1.00
H625   H     0.83999   0.06612   0.94238   0.00000  Uiso   1.00
H626   H     0.86583   0.05438   0.50509   0.00000  Uiso   1.00
H627   H     0.84117   0.19673   0.57407   0.00000  Uiso   1.00
H628   H     0.79353   0.25594   0.91755   0.00000  Uiso   1.00
H629   H     0.82039   0.23594   0.53863   0.00000  Uiso   1.00
H630   H     0.79797   0.27937   0.99388   0.00000  Uiso   1.00
N631   N     0.88739   0.04455   0.60622   0.00000  Uiso   1.00
O632   O     0.83333   0.16667   0.75000   0.00000  Uiso   1.00
O633   O     0.82118   0.12637   0.65458   0.00000  Uiso   1.00
O634   O     0.79607   0.20391   0.84968   0.00000  Uiso   1.00
O635   O     0.87491   0.17759   0.64606   0.00000  Uiso   1.00
O636   O     0.84118   0.15880   0.84968   0.00000  Uiso   1.00
O637   O     0.84597   0.08019   0.78213   0.00000  Uiso   1.00
O638   O     0.81298   0.26085   0.77013   0.00000  Uiso   1.00
O639   O     0.74078   0.13291   0.73413   0.00000  Uiso   1.00
O640   O     0.93360   0.19272   0.71360   0.00000  Uiso   1.00
O641   O     0.73738   0.18878   0.78213   0.00000  Uiso   1.00
O642   O     0.92158   0.15226   0.77013   0.00000  Uiso   1.00
O643   O     0.80426   0.06944   0.73413   0.00000  Uiso   1.00
O644   O     0.87012   0.25620   0.71360   0.00000  Uiso   1.00
Zn645  Zn    0.86005   0.13994   0.78734   0.00000  Uiso   1.00
Zn646  Zn    0.80046   0.12458   0.71875   0.00000  Uiso   1.00
Zn647  Zn    0.87723   0.19775   0.70657   0.00000  Uiso   1.00
Zn648  Zn    0.79560   0.20439   0.78733   0.00000  Uiso   1.00
C649   C     0.05273   0.49286   0.76000   0.00000  Uiso   1.00
C650   C     0.18037   0.49987   0.55722   0.00000  Uiso   1.00
C651   C     0.19938   0.43139   0.56226   0.00000  Uiso   1.00
C652   C     0.28073   0.50710   0.74005   0.00000  Uiso   1.00
C653   C     0.14349   0.52750   0.91943   0.00000  Uiso   1.00
C654   C     0.32656   0.50981   0.73610   0.00000  Uiso   1.00
C655   C     0.00747   0.49023   0.76378   0.00000  Uiso   1.00
C656   C     0.18036   0.65576   0.73650   0.00000  Uiso   1.00
C657   C     0.15182   0.34503   0.76372   0.00000  Uiso   1.00
C658   C     0.15613   0.38916   0.76014   0.00000  Uiso   1.00
C659   C     0.17654   0.61120   0.74018   0.00000  Uiso   1.00
C660   C     0.13770   0.58139   0.98060   0.00000  Uiso   1.00
C661   C     0.18513   0.48120   0.62947   0.00000  Uiso   1.00
C662   C     0.14817   0.51750   0.87100   0.00000  Uiso   1.00
C663   C     0.19403   0.41913   0.51947   0.00000  Uiso   1.00
C664   C     0.19154   0.47165   0.58148   0.00000  Uiso   1.00
C665   C     0.13458   0.56767   0.93748   0.00000  Uiso   1.00
C666   C     0.21125   0.40167   0.58664   0.00000  Uiso   1.00
C667   C     0.15080   0.55580   0.50611   0.00000  Uiso   1.00
C668   C     0.15925   0.51464   0.98960   0.00000  Uiso   1.00
C669   C     0.15306   0.49976   0.94653   0.00000  Uiso   1.00
C670   C     0.17347   0.48768   0.51437   0.00000  Uiso   1.00
C671   C     0.17992   0.44630   0.99610   0.00000  Uiso   1.00
C672   C     0.17043   0.43155   0.95550   0.00000  Uiso   1.00
C673   C     0.15612   0.45743   0.93171   0.00000  Uiso   1.00
H674   H     0.31922   0.47211   0.78962   0.00000  Uiso   1.00
H675   H     0.14668   0.44334   0.90194   0.00000  Uiso   1.00
H676   H     0.01551   0.52783   0.71056   0.00000  Uiso   1.00
H677   H     0.20667   0.33699   0.71146   0.00000  Uiso   1.00
H678   H     0.12514   0.66460   0.78888   0.00000  Uiso   1.00
H679   H     0.17333   0.39945   0.94238   0.00000  Uiso   1.00
H680   H     0.19916   0.38771   0.50509   0.00000  Uiso   1.00
H681   H     0.17451   0.53006   0.57407   0.00000  Uiso   1.00
H682   H     0.12686   0.58927   0.91755   0.00000  Uiso   1.00
H683   H     0.15373   0.56927   0.53863   0.00000  Uiso   1.00
H684   H     0.13130   0.61270   0.99388   0.00000  Uiso   1.00
N685   N     0.22072   0.37789   0.60622   0.00000  Uiso   1.00
O686   O     0.16667   0.50000   0.75000   0.00000  Uiso   1.00
O687   O     0.15451   0.45970   0.65458   0.00000  Uiso   1.00
O688   O     0.12940   0.53724   0.84968   0.00000  Uiso   1.00
O689   O     0.20824   0.51092   0.64606   0.00000  Uiso   1.00
O690   O     0.17451   0.49213   0.84968   0.00000  Uiso   1.00
O691   O     0.17930   0.41352   0.78213   0.00000  Uiso   1.00
O692   O     0.14632   0.59418   0.77013   0.00000  Uiso   1.00
O693   O     0.07412   0.46625   0.73413   0.00000  Uiso   1.00
O694   O     0.26693   0.52605   0.71360   0.00000  Uiso   1.00
O695   O     0.07071   0.52211   0.78213   0.00000  Uiso   1.00
O696   O     0.25491   0.48559   0.77013   0.00000  Uiso   1.00
O697   O     0.13760   0.40277   0.73413   0.00000  Uiso   1.00
O698   O     0.20345   0.58953   0.71360   0.00000  Uiso   1.00
Zn699  Zn    0.19338   0.47327   0.78734   0.00000  Uiso   1.00
Zn700  Zn    0.13379   0.45791   0.71875   0.00000  Uiso   1.00
Zn701  Zn    0.21056   0.53109   0.70657   0.00000  Uiso   1.00
Zn702  Zn    0.12893   0.53773   0.78733   0.00000  Uiso   1.00
C703   C     0.38606   0.49286   0.76000   0.00000  Uiso   1.00
C704   C     0.51370   0.49987   0.55722   0.00000  Uiso   1.00
C705   C     0.53271   0.43139   0.56226   0.00000  Uiso   1.00
C706   C     0.61406   0.50710   0.74005   0.00000  Uiso   1.00
C707   C     0.47683   0.52750   0.91943   0.00000  Uiso   1.00
C708   C     0.65990   0.50981   0.73610   0.00000  Uiso   1.00
C709   C     0.34080   0.49023   0.76378   0.00000  Uiso   1.00
C710   C     0.51369   0.65576   0.73650   0.00000  Uiso   1.00
C711   C     0.48516   0.34503   0.76372   0.00000  Uiso   1.00
C712   C     0.48946   0.38916   0.76014   0.00000  Uiso   1.00
C713   C     0.50988   0.61120   0.74018   0.00000  Uiso   1.00
C714   C     0.47103   0.58139   0.98060   0.00000  Uiso   1.00
C715   C     0.51846   0.48120   0.62947   0.00000  Uiso   1.00
C716   C     0.48151   0.51750   0.87100   0.00000  Uiso   1.00
C717   C     0.52736   0.41913   0.51947   0.00000  Uiso   1.00
C718   C     0.52488   0.47165   0.58148   0.00000  Uiso   1.00
C719   C     0.46792   0.56767   0.93748   0.00000  Uiso   1.00
C720   C     0.54459   0.40167   0.58664   0.00000  Uiso   1.00
C721   C     0.48413   0.55580   0.50611   0.00000  Uiso   1.00
C722   C     0.49258   0.51464   0.98960   0.00000  Uiso   1.00
C723   C     0.48639   0.49976   0.94653   0.00000  Uiso   1.00
C724   C     0.50681   0.48768   0.51437   0.00000  Uiso   1.00
C725   C     0.51325   0.44630   0.99610   0.00000  Uiso   1.00
C726   C     0.50376   0.43155   0.95550   0.00000  Uiso   1.00
C727   C     0.48946   0.45743   0.93171   0.00000  Uiso   1.00
H728   H     0.65256   0.47211   0.78962   0.00000  Uiso   1.00
H729   H     0.48002   0.44334   0.90194   0.00000  Uiso   1.00
H730   H     0.34884   0.52783   0.71056   0.00000  Uiso   1.00
H731   H     0.54000   0.33699   0.71146   0.00000  Uiso   1.00
H732   H     0.45848   0.66460   0.78888   0.00000  Uiso   1.00
H733   H     0.50666   0.39945   0.94238   0.00000  Uiso   1.00
H734   H     0.53249   0.38771   0.50509   0.00000  Uiso   1.00
H735   H     0.50784   0.53006   0.57407   0.00000  Uiso   1.00
H736   H     0.46019   0.58927   0.91755   0.00000  Uiso   1.00
H737   H     0.48706   0.56927   0.53863   0.00000  Uiso   1.00
H738   H     0.46464   0.61270   0.99388   0.00000  Uiso   1.00
N739   N     0.55406   0.37789   0.60622   0.00000  Uiso   1.00
O740   O     0.50000   0.50000   0.75000   0.00000  Uiso   1.00
O741   O     0.48784   0.45970   0.65458   0.00000  Uiso   1.00
O742   O     0.46274   0.53724   0.84968   0.00000  Uiso   1.00
O743   O     0.54157   0.51092   0.64606   0.00000  Uiso   1.00
O744   O     0.50785   0.49213   0.84968   0.00000  Uiso   1.00
O745   O     0.51264   0.41352   0.78213   0.00000  Uiso   1.00
O746   O     0.47965   0.59418   0.77013   0.00000  Uiso   1.00
O747   O     0.40745   0.46625   0.73413   0.00000  Uiso   1.00
O748   O     0.60026   0.52605   0.71360   0.00000  Uiso   1.00
O749   O     0.40405   0.52211   0.78213   0.00000  Uiso   1.00
O750   O     0.58824   0.48559   0.77013   0.00000  Uiso   1.00
O751   O     0.47093   0.40277   0.73413   0.00000  Uiso   1.00
O752   O     0.53678   0.58953   0.71360   0.00000  Uiso   1.00
Zn753  Zn    0.52672   0.47327   0.78734   0.00000  Uiso   1.00
Zn754  Zn    0.46713   0.45791   0.71875   0.00000  Uiso   1.00
Zn755  Zn    0.54389   0.53109   0.70657   0.00000  Uiso   1.00
Zn756  Zn    0.46226   0.53773   0.78733   0.00000  Uiso   1.00
C757   C     0.71939   0.49286   0.76000   0.00000  Uiso   1.00
C758   C     0.84703   0.49987   0.55722   0.00000  Uiso   1.00
C759   C     0.86605   0.43139   0.56226   0.00000  Uiso   1.00
C760   C     0.94740   0.50710   0.74005   0.00000  Uiso   1.00
C761   C     0.81016   0.52750   0.91943   0.00000  Uiso   1.00
C762   C     0.99323   0.50981   0.73610   0.00000  Uiso   1.00
C763   C     0.67413   0.49023   0.76378   0.00000  Uiso   1.00
C764   C     0.84702   0.65576   0.73650   0.00000  Uiso   1.00
C765   C     0.81849   0.34503   0.76372   0.00000  Uiso   1.00
C766   C     0.82279   0.38916   0.76014   0.00000  Uiso   1.00
C767   C     0.84321   0.61120   0.74018   0.00000  Uiso   1.00
C768   C     0.80437   0.58139   0.98060   0.00000  Uiso   1.00
C769   C     0.85179   0.48120   0.62947   0.00000  Uiso   1.00
C770   C     0.81484   0.51750   0.87100   0.00000  Uiso   1.00
C771   C     0.86069   0.41913   0.51947   0.00000  Uiso   1.00
C772   C     0.85821   0.47165   0.58148   0.00000  Uiso   1.00
C773   C     0.80125   0.56767   0.93748   0.00000  Uiso   1.00
C774   C     0.87792   0.40167   0.58664   0.00000  Uiso   1.00
C775   C     0.81747   0.55580   0.50611   0.00000  Uiso   1.00
C776   C     0.82592   0.51464   0.98960   0.00000  Uiso   1.00
C777   C     0.81973   0.49976   0.94653   0.00000  Uiso   1.00
C778   C     0.84014   0.48768   0.51437   0.00000  Uiso   1.00
C779   C     0.84659   0.44630   0.99610   0.00000  Uiso   1.00
C780   C     0.83710   0.43155   0.95550   0.00000  Uiso   1.00
C781   C     0.82279   0.45743   0.93171   0.00000  Uiso   1.00
H782   H     0.98589   0.47211   0.78962   0.00000  Uiso   1.00
H783   H     0.81335   0.44334   0.90194   0.00000  Uiso   1.00
H784   H     0.68218   0.52783   0.71056   0.00000  Uiso   1.00
H785   H     0.87334   0.33699   0.71146   0.00000  Uiso   1.00
H786   H     0.79181   0.66460   0.78888   0.00000  Uiso   1.00
H787   H     0.83999   0.39945   0.94238   0.00000  Uiso   1.00
H788   H     0.86583   0.38771   0.50509   0.00000  Uiso   1.00
H789   H     0.84117   0.53006   0.57407   0.00000  Uiso   1.00
H790   H     0.79353   0.58927   0.91755   0.00000  Uiso   1.00
H791   H     0.82039   0.56927   0.53863   0.00000  Uiso   1.00
H792   H     0.79797   0.61270   0.99388   0.00000  Uiso   1.00
N793   N     0.88739   0.37789   0.60622   0.00000  Uiso   1.00
O794   O     0.83333   0.50000   0.75000   0.00000  Uiso   1.00
O795   O     0.82118   0.45970   0.65458   0.00000  Uiso   1.00
O796   O     0.79607   0.53724   0.84968   0.00000  Uiso   1.00
O797   O     0.87491   0.51092   0.64606   0.00000  Uiso   1.00
O798   O     0.84118   0.49213   0.84968   0.00000  Uiso   1.00
O799   O     0.84597   0.41352   0.78213   0.00000  Uiso   1.00
O800   O     0.81298   0.59418   0.77013   0.00000  Uiso   1.00
O801   O     0.74078   0.46625   0.73413   0.00000  Uiso   1.00
O802   O     0.93360   0.52605   0.71360   0.00000  Uiso   1.00
O803   O     0.73738   0.52211   0.78213   0.00000  Uiso   1.00
O804   O     0.92158   0.48559   0.77013   0.00000  Uiso   1.00
O805   O     0.80426   0.40277   0.73413   0.00000  Uiso   1.00
O806   O     0.87012   0.58953   0.71360   0.00000  Uiso   1.00
Zn807  Zn    0.86005   0.47327   0.78734   0.00000  Uiso   1.00
Zn808  Zn    0.80046   0.45791   0.71875   0.00000  Uiso   1.00
Zn809  Zn    0.87723   0.53109   0.70657   0.00000  Uiso   1.00
Zn810  Zn    0.79560   0.53773   0.78733   0.00000  Uiso   1.00
C811   C     0.05273   0.82620   0.76000   0.00000  Uiso   1.00
C812   C     0.18037   0.83320   0.55722   0.00000  Uiso   1.00
C813   C     0.19938   0.76472   0.56226   0.00000  Uiso   1.00
C814   C     0.28073   0.84043   0.74005   0.00000  Uiso   1.00
C815   C     0.14349   0.86083   0.91943   0.00000  Uiso   1.00
C816   C     0.32656   0.84314   0.73610   0.00000  Uiso   1.00
C817   C     0.00747   0.82356   0.76378   0.00000  Uiso   1.00
C818   C     0.18036   0.98910   0.73650   0.00000  Uiso   1.00
C819   C     0.15182   0.67836   0.76372   0.00000  Uiso   1.00
C820   C     0.15613   0.72249   0.76014   0.00000  Uiso   1.00
C821   C     0.17654   0.94453   0.74018   0.00000  Uiso   1.00
C822   C     0.13770   0.91472   0.98060   0.00000  Uiso   1.00
C823   C     0.18513   0.81453   0.62947   0.00000  Uiso   1.00
C824   C     0.14817   0.85083   0.87100   0.00000  Uiso   1.00
C825   C     0.19403   0.75247   0.51947   0.00000  Uiso   1.00
C826   C     0.19154   0.80498   0.58148   0.00000  Uiso   1.00
C827   C     0.13458   0.90100   0.93748   0.00000  Uiso   1.00
C828   C     0.21125   0.73500   0.58664   0.00000  Uiso   1.00
C829   C     0.15080   0.88913   0.50611   0.00000  Uiso   1.00
C830   C     0.15925   0.84798   0.98960   0.00000  Uiso   1.00
C831   C     0.15306   0.83309   0.94653   0.00000  Uiso   1.00
C832   C     0.17347   0.82101   0.51437   0.00000  Uiso   1.00
C833   C     0.17992   0.77963   0.99610   0.00000  Uiso   1.00
C834   C     0.17043   0.76488   0.95550   0.00000  Uiso   1.00
C835   C     0.15612   0.79077   0.93171   0.00000  Uiso   1.00
H836   H     0.31922   0.80545   0.78962   0.00000  Uiso   1.00
H837   H     0.14668   0.77668   0.90194   0.00000  Uiso   1.00
H838   H     0.01551   0.86116   0.71056   0.00000  Uiso   1.00
H839   H     0.20667   0.67032   0.71146   0.00000  Uiso   1.00
H840   H     0.12514   0.99793   0.78888   0.00000  Uiso   1.00
H841   H     0.17333   0.73278   0.94238   0.00000  Uiso   1.00
H842   H     0.19916   0.72105   0.50509   0.00000  Uiso   1.00
H843   H     0.17451   0.86340   0.57407   0.00000  Uiso   1.00
H844   H     0.12686   0.92260   0.91755   0.00000  Uiso   1.00
H845   H     0.15373   0.90260   0.53863   0.00000  Uiso   1.00
H846   H     0.13130   0.94604   0.99388   0.00000  Uiso   1.00
N847   N     0.22072   0.71122   0.60622   0.00000  Uiso   1.00
O848   O     0.16667   0.83333   0.75000   0.00000  Uiso   1.00
O849   O     0.15451   0.79304   0.65458   0.00000  Uiso   1.00
O850   O     0.12940   0.87058   0.84968   0.00000  Uiso   1.00
O851   O     0.20824   0.84425   0.64606   0.00000  Uiso   1.00
O852   O     0.17451   0.82546   0.84968   0.00000  Uiso   1.00
O853   O     0.17930   0.74686   0.78213   0.00000  Uiso   1.00
O854   O     0.14632   0.92751   0.77013   0.00000  Uiso   1.00
O855   O     0.07412   0.79958   0.73413   0.00000  Uiso   1.00
O856   O     0.26693   0.85939   0.71360   0.00000  Uiso   1.00
O857   O     0.07071   0.85544   0.78213   0.00000  Uiso   1.00
O858   O     0.25491   0.81892   0.77013   0.00000  Uiso   1.00
O859   O     0.13760   0.73610   0.73413   0.00000  Uiso   1.00
O860   O     0.20345   0.92286   0.71360   0.00000  Uiso   1.00
Zn861  Zn    0.19338   0.80661   0.78734   0.00000  Uiso   1.00
Zn862  Zn    0.13379   0.79124   0.71875   0.00000  Uiso   1.00
Zn863  Zn    0.21056   0.86442   0.70657   0.00000  Uiso   1.00
Zn864  Zn    0.12893   0.87106   0.78733   0.00000  Uiso   1.00
C865   C     0.38606   0.82620   0.76000   0.00000  Uiso   1.00
C866   C     0.51370   0.83320   0.55722   0.00000  Uiso   1.00
C867   C     0.53271   0.76472   0.56226   0.00000  Uiso   1.00
C868   C     0.61406   0.84043   0.74005   0.00000  Uiso   1.00
C869   C     0.47683   0.86083   0.91943   0.00000  Uiso   1.00
C870   C     0.65990   0.84314   0.73610   0.00000  Uiso   1.00
C871   C     0.34080   0.82356   0.76378   0.00000  Uiso   1.00
C872   C     0.51369   0.98910   0.73650   0.00000  Uiso   1.00
C873   C     0.48516   0.67836   0.76372   0.00000  Uiso   1.00
C874   C     0.48946   0.72249   0.76014   0.00000  Uiso   1.00
C875   C     0.50988   0.94453   0.74018   0.00000  Uiso   1.00
C876   C     0.47103   0.91472   0.98060   0.00000  Uiso   1.00
C877   C     0.51846   0.81453   0.62947   0.00000  Uiso   1.00
C878   C     0.48151   0.85083   0.87100   0.00000  Uiso   1.00
C879   C     0.52736   0.75247   0.51947   0.00000  Uiso   1.00
C880   C     0.52488   0.80498   0.58148   0.00000  Uiso   1.00
C881   C     0.46792   0.90100   0.93748   0.00000  Uiso   1.00
C882   C     0.54459   0.73500   0.58664   0.00000  Uiso   1.00
C883   C     0.48413   0.88913   0.50611   0.00000  Uiso   1.00
C884   C     0.49258   0.84798   0.98960   0.00000  Uiso   1.00
C885   C     0.48639   0.83309   0.94653   0.00000  Uiso   1.00
C886   C     0.50681   0.82101   0.51437   0.00000  Uiso   1.00
C887   C     0.51325   0.77963   0.99610   0.00000  Uiso   1.00
C888   C     0.50376   0.76488   0.95550   0.00000  Uiso   1.00
C889   C     0.48946   0.79077   0.93171   0.00000  Uiso   1.00
H890   H     0.65256   0.80545   0.78962   0.00000  Uiso   1.00
H891   H     0.48002   0.77668   0.90194   0.00000  Uiso   1.00
H892   H     0.34884   0.86116   0.71056   0.00000  Uiso   1.00
H893   H     0.54000   0.67032   0.71146   0.00000  Uiso   1.00
H894   H     0.45848   0.99793   0.78888   0.00000  Uiso   1.00
H895   H     0.50666   0.73278   0.94238   0.00000  Uiso   1.00
H896   H     0.53249   0.72105   0.50509   0.00000  Uiso   1.00
H897   H     0.50784   0.86340   0.57407   0.00000  Uiso   1.00
H898   H     0.46019   0.92260   0.91755   0.00000  Uiso   1.00
H899   H     0.48706   0.90260   0.53863   0.00000  Uiso   1.00
H900   H     0.46464   0.94604   0.99388   0.00000  Uiso   1.00
N901   N     0.55406   0.71122   0.60622   0.00000  Uiso   1.00
O902   O     0.50000   0.83333   0.75000   0.00000  Uiso   1.00
O903   O     0.48784   0.79304   0.65458   0.00000  Uiso   1.00
O904   O     0.46274   0.87058   0.84968   0.00000  Uiso   1.00
O905   O     0.54157   0.84425   0.64606   0.00000  Uiso   1.00
O906   O     0.50785   0.82546   0.84968   0.00000  Uiso   1.00
O907   O     0.51264   0.74686   0.78213   0.00000  Uiso   1.00
O908   O     0.47965   0.92751   0.77013   0.00000  Uiso   1.00
O909   O     0.40745   0.79958   0.73413   0.00000  Uiso   1.00
O910   O     0.60026   0.85939   0.71360   0.00000  Uiso   1.00
O911   O     0.40405   0.85544   0.78213   0.00000  Uiso   1.00
O912   O     0.58824   0.81892   0.77013   0.00000  Uiso   1.00
O913   O     0.47093   0.73610   0.73413   0.00000  Uiso   1.00
O914   O     0.53678   0.92286   0.71360   0.00000  Uiso   1.00
Zn915  Zn    0.52672   0.80661   0.78734   0.00000  Uiso   1.00
Zn916  Zn    0.46713   0.79124   0.71875   0.00000  Uiso   1.00
Zn917  Zn    0.54389   0.86442   0.70657   0.00000  Uiso   1.00
Zn918  Zn    0.46226   0.87106   0.78733   0.00000  Uiso   1.00
C919   C     0.71939   0.82620   0.76000   0.00000  Uiso   1.00
C920   C     0.84703   0.83320   0.55722   0.00000  Uiso   1.00
C921   C     0.86605   0.76472   0.56226   0.00000  Uiso   1.00
C922   C     0.94740   0.84043   0.74005   0.00000  Uiso   1.00
C923   C     0.81016   0.86083   0.91943   0.00000  Uiso   1.00
C924   C     0.99323   0.84314   0.73610   0.00000  Uiso   1.00
C925   C     0.67413   0.82356   0.76378   0.00000  Uiso   1.00
C926   C     0.84702   0.98910   0.73650   0.00000  Uiso   1.00
C927   C     0.81849   0.67836   0.76372   0.00000  Uiso   1.00
C928   C     0.82279   0.72249   0.76014   0.00000  Uiso   1.00
C929   C     0.84321   0.94453   0.74018   0.00000  Uiso   1.00
C930   C     0.80437   0.91472   0.98060   0.00000  Uiso   1.00
C931   C     0.85179   0.81453   0.62947   0.00000  Uiso   1.00
C932   C     0.81484   0.85083   0.87100   0.00000  Uiso   1.00
C933   C     0.86069   0.75247   0.51947   0.00000  Uiso   1.00
C934   C     0.85821   0.80498   0.58148   0.00000  Uiso   1.00
C935   C     0.80125   0.90100   0.93748   0.00000  Uiso   1.00
C936   C     0.87792   0.73500   0.58664   0.00000  Uiso   1.00
C937   C     0.81747   0.88913   0.50611   0.00000  Uiso   1.00
C938   C     0.82592   0.84798   0.98960   0.00000  Uiso   1.00
C939   C     0.81973   0.83309   0.94653   0.00000  Uiso   1.00
C940   C     0.84014   0.82101   0.51437   0.00000  Uiso   1.00
C941   C     0.84659   0.77963   0.99610   0.00000  Uiso   1.00
C942   C     0.83710   0.76488   0.95550   0.00000  Uiso   1.00
C943   C     0.82279   0.79077   0.93171   0.00000  Uiso   1.00
H944   H     0.98589   0.80545   0.78962   0.00000  Uiso   1.00
H945   H     0.81335   0.77668   0.90194   0.00000  Uiso   1.00
H946   H     0.68218   0.86116   0.71056   0.00000  Uiso   1.00
H947   H     0.87334   0.67032   0.71146   0.00000  Uiso   1.00
H948   H     0.79181   0.99793   0.78888   0.00000  Uiso   1.00
H949   H     0.83999   0.73278   0.94238   0.00000  Uiso   1.00
H950   H     0.86583   0.72105   0.50509   0.00000  Uiso   1.00
H951   H     0.84117   0.86340   0.57407   0.00000  Uiso   1.00
H952   H     0.79353   0.92260   0.91755   0.00000  Uiso   1.00
H953   H     0.82039   0.90260   0.53863   0.00000  Uiso   1.00
H954   H     0.79797   0.94604   0.99388   0.00000  Uiso   1.00
N955   N     0.88739   0.71122   0.60622   0.00000  Uiso   1.00
O956   O     0.83333   0.83333   0.75000   0.00000  Uiso   1.00
O957   O     0.82118   0.79304   0.65458   0.00000  Uiso   1.00
O958   O     0.79607   0.87058   0.84968   0.00000  Uiso   1.00
O959   O     0.87491   0.84425   0.64606   0.00000  Uiso   1.00
O960   O     0.84118   0.82546   0.84968   0.00000  Uiso   1.00
O961   O     0.84597   0.74686   0.78213   0.00000  Uiso   1.00
O962   O     0.81298   0.92751   0.77013   0.00000  Uiso   1.00
O963   O     0.74078   0.79958   0.73413   0.00000  Uiso   1.00
O964   O     0.93360   0.85939   0.71360   0.00000  Uiso   1.00
O965   O     0.73738   0.85544   0.78213   0.00000  Uiso   1.00
O966   O     0.92158   0.81892   0.77013   0.00000  Uiso   1.00
O967   O     0.80426   0.73610   0.73413   0.00000  Uiso   1.00
O968   O     0.87012   0.92286   0.71360   0.00000  Uiso   1.00
Zn969  Zn    0.86005   0.80661   0.78734   0.00000  Uiso   1.00
Zn970  Zn    0.80046   0.79124   0.71875   0.00000  Uiso   1.00
Zn971  Zn    0.87723   0.86442   0.70657   0.00000  Uiso   1.00
Zn972  Zn    0.79560   0.87106   0.78733   0.00000  Uiso   1.00
loop_
_geom_bond_atom_site_label_1
_geom_bond_atom_site_label_2
_geom_bond_distance
_geom_bond_site_symmetry_2
_ccdc_geom_bond_type
C1     O45     1.269   .     A
C1     O47     1.269   .     A
C1     C7      1.437   .     S
C2     C22     1.410   .     A
C2     C16     1.394   .     A
C2     H33     1.077   .     S
C3     C15     1.391   .     A
C3     C18     1.445   .     S
C3     C16     1.406   .     A
C4     O46     1.283   .     A
C4     C6      1.454   .     S
C4     O48     1.281   .     A
C5     C17     1.402   .     A
C5     C14     1.476   .     S
C5     C21     1.419   .     A
C6     C61     1.334   .     S
C6     H82     1.088   .     S
C7     C114    1.334   1_455 S
C7     H134    1.086   1_455 S
C8     C11     1.451   .     S
C8     C171    1.331   .     S
C8     H191    1.088   .     S
C9     C10     1.435   .     S
C9     C332    1.331   1_545 S
C9     H354    1.086   1_545 S
C10    O43     1.275   .     A
C10    O49     1.275   .     A
C11    O50     1.274   .     A
C11    O44     1.275   .     A
C12    C17     1.387   .     A
C12    H36     1.083   .     S
C12    C505    1.391   .     S
C13    O41     1.278   .     A
C13    O39     1.268   .     A
C13    C16     1.455   .     S
C14    O42     1.283   .     A
C14    O40     1.284   .     A
C15    H32     1.086   .     S
C15    C509    1.400   1_554 S
C17    H34     1.083   .     S
C18    N37     1.157   .     T
C19    H35     1.076   .     S
C19    C498    1.391   1_554 S
C19    C506    1.417   1_554 S
C20    C21     1.424   .     A
C20    C505    1.417   .     S
C20    C508    1.427   .     S
C21    C25     1.410   .     A
C22    C506    1.427   1_554 S
C22    C509    1.422   1_554 S
C23    C24     1.391   .     A
C23    C508    1.422   .     S
C23    C501    1.400   .     S
C24    H31     1.084   .     S
C24    C25     1.382   .     A
C25    H27     1.080   .     S
H26    C61     1.086   .     S
H28    C114    1.088   1_455 S
H29    C332    1.088   1_545 S
H30    C171    1.086   .     S
O38    Zn54    1.935   .     S
O38    Zn53    1.943   .     S
O38    Zn52    1.937   .     S
O38    Zn51    1.958   .     S
O39    Zn52    1.939   .     S
O40    Zn54    1.944   .     S
O41    Zn53    1.936   .     S
O42    Zn51    1.932   .     S
O43    Zn51    1.926   .     S
O44    Zn54    1.933   .     S
O45    Zn52    1.928   .     S
O46    Zn53    1.934   .     S
O47    Zn54    1.929   .     S
O48    Zn51    1.926   .     S
O49    Zn52    1.937   .     S
O50    Zn53    1.929   .     S
C55    O99     1.269   .     A
C55    O101    1.269   .     A
C55    C61     1.437   .     S
C56    C76     1.410   .     A
C56    C70     1.394   .     A
C56    H87     1.077   .     S
C57    C69     1.391   .     A
C57    C72     1.445   .     S
C57    C70     1.406   .     A
C58    O100    1.283   .     A
C58    C60     1.454   .     S
C58    O102    1.281   .     A
C59    C71     1.402   .     A
C59    C68     1.476   .     S
C59    C75     1.419   .     A
C60    C115    1.334   .     S
C60    H136    1.088   .     S
C62    C65     1.451   .     S
C62    C225    1.331   .     S
C62    H245    1.088   .     S
C63    C64     1.435   .     S
C63    C386    1.331   1_545 S
C63    H408    1.086   1_545 S
C64    O97     1.275   .     A
C64    O103    1.275   .     A
C65    O104    1.274   .     A
C65    O98     1.275   .     A
C66    C71     1.387   .     A
C66    H90     1.083   .     S
C66    C559    1.391   .     S
C67    O95     1.278   .     A
C67    O93     1.268   .     A
C67    C70     1.455   .     S
C68    O96     1.283   .     A
C68    O94     1.284   .     A
C69    H86     1.086   .     S
C69    C563    1.400   1_554 S
C71    H88     1.083   .     S
C72    N91     1.157   .     T
C73    H89     1.076   .     S
C73    C552    1.391   1_554 S
C73    C560    1.417   1_554 S
C74    C75     1.424   .     A
C74    C559    1.417   .     S
C74    C562    1.427   .     S
C75    C79     1.410   .     A
C76    C560    1.427   1_554 S
C76    C563    1.422   1_554 S
C77    C78     1.391   .     A
C77    C562    1.422   .     S
C77    C555    1.400   .     S
C78    H85     1.084   .     S
C78    C79     1.382   .     A
C79    H81     1.080   .     S
H80    C115    1.086   .     S
H83    C386    1.088   1_545 S
H84    C225    1.086   .     S
O92    Zn108   1.935   .     S
O92    Zn107   1.943   .     S
O92    Zn106   1.937   .     S
O92    Zn105   1.958   .     S
O93    Zn106   1.939   .     S
O94    Zn108   1.944   .     S
O95    Zn107   1.936   .     S
O96    Zn105   1.932   .     S
O97    Zn105   1.926   .     S
O98    Zn108   1.933   .     S
O99    Zn106   1.928   .     S
O100   Zn107   1.934   .     S
O101   Zn108   1.929   .     S
O102   Zn105   1.926   .     S
O103   Zn106   1.937   .     S
O104   Zn107   1.929   .     S
C109   O153    1.269   .     A
C109   O155    1.269   .     A
C109   C115    1.437   .     S
C110   C130    1.410   .     A
C110   C124    1.394   .     A
C110   H141    1.077   .     S
C111   C123    1.391   .     A
C111   C126    1.445   .     S
C111   C124    1.406   .     A
C112   O154    1.283   .     A
C112   C114    1.454   .     S
C112   O156    1.281   .     A
C113   C125    1.402   .     A
C113   C122    1.476   .     S
C113   C129    1.419   .     A
C114   C7      1.334   1_655 S
C114   H28     1.088   1_655 S
C116   C119    1.451   .     S
C116   C279    1.331   .     S
C116   H299    1.088   .     S
C117   C118    1.435   .     S
C117   C440    1.331   1_545 S
C117   H462    1.086   1_545 S
C118   O151    1.275   .     A
C118   O157    1.275   .     A
C119   O158    1.274   .     A
C119   O152    1.275   .     A
C120   C125    1.387   .     A
C120   H144    1.083   .     S
C120   C613    1.391   .     S
C121   O149    1.278   .     A
C121   O147    1.268   .     A
C121   C124    1.455   .     S
C122   O150    1.283   .     A
C122   O148    1.284   .     A
C123   H140    1.086   .     S
C123   C617    1.400   1_554 S
C125   H142    1.083   .     S
C126   N145    1.157   .     T
C127   H143    1.076   .     S
C127   C606    1.391   1_554 S
C127   C614    1.417   1_554 S
C128   C129    1.424   .     A
C128   C613    1.417   .     S
C128   C616    1.427   .     S
C129   C133    1.410   .     A
C130   C614    1.427   1_554 S
C130   C617    1.422   1_554 S
C131   C132    1.391   .     A
C131   C616    1.422   .     S
C131   C609    1.400   .     S
C132   H139    1.084   .     S
C132   C133    1.382   .     A
C133   H135    1.080   .     S
H134   C7      1.086   1_655 S
H137   C440    1.088   1_545 S
H138   C279    1.086   .     S
O146   Zn162   1.935   .     S
O146   Zn161   1.943   .     S
O146   Zn160   1.937   .     S
O146   Zn159   1.958   .     S
O147   Zn160   1.939   .     S
O148   Zn162   1.944   .     S
O149   Zn161   1.936   .     S
O150   Zn159   1.932   .     S
O151   Zn159   1.926   .     S
O152   Zn162   1.933   .     S
O153   Zn160   1.928   .     S
O154   Zn161   1.934   .     S
O155   Zn162   1.929   .     S
O156   Zn159   1.926   .     S
O157   Zn160   1.937   .     S
O158   Zn161   1.929   .     S
C163   O207    1.269   .     A
C163   O209    1.269   .     A
C163   C169    1.437   .     S
C164   C184    1.410   .     A
C164   C178    1.394   .     A
C164   H195    1.077   .     S
C165   C177    1.391   .     A
C165   C180    1.445   .     S
C165   C178    1.406   .     A
C166   O208    1.283   .     A
C166   C168    1.454   .     S
C166   O210    1.281   .     A
C167   C179    1.402   .     A
C167   C176    1.476   .     S
C167   C183    1.419   .     A
C168   C223    1.334   .     S
C168   H244    1.088   .     S
C169   C276    1.334   1_455 S
C169   H296    1.086   1_455 S
C170   C173    1.451   .     S
C170   C333    1.331   .     S
C170   H353    1.088   .     S
C171   C172    1.435   .     S
C172   O205    1.275   .     A
C172   O211    1.275   .     A
C173   O212    1.274   .     A
C173   O206    1.275   .     A
C174   C179    1.387   .     A
C174   H198    1.083   .     S
C174   C667    1.391   .     S
C175   O203    1.278   .     A
C175   O201    1.268   .     A
C175   C178    1.455   .     S
C176   O204    1.283   .     A
C176   O202    1.284   .     A
C177   H194    1.086   .     S
C177   C671    1.400   1_554 S
C179   H196    1.083   .     S
C180   N199    1.157   .     T
C181   H197    1.076   .     S
C181   C660    1.391   1_554 S
C181   C668    1.417   1_554 S
C182   C183    1.424   .     A
C182   C667    1.417   .     S
C182   C670    1.427   .     S
C183   C187    1.410   .     A
C184   C668    1.427   1_554 S
C184   C671    1.422   1_554 S
C185   C186    1.391   .     A
C185   C670    1.422   .     S
C185   C663    1.400   .     S
C186   H193    1.084   .     S
C186   C187    1.382   .     A
C187   H189    1.080   .     S
H188   C223    1.086   .     S
H190   C276    1.088   1_455 S
H192   C333    1.086   .     S
O200   Zn216   1.935   .     S
O200   Zn215   1.943   .     S
O200   Zn214   1.937   .     S
O200   Zn213   1.958   .     S
O201   Zn214   1.939   .     S
O202   Zn216   1.944   .     S
O203   Zn215   1.936   .     S
O204   Zn213   1.932   .     S
O205   Zn213   1.926   .     S
O206   Zn216   1.933   .     S
O207   Zn214   1.928   .     S
O208   Zn215   1.934   .     S
O209   Zn216   1.929   .     S
O210   Zn213   1.926   .     S
O211   Zn214   1.937   .     S
O212   Zn215   1.929   .     S
C217   O261    1.269   .     A
C217   O263    1.269   .     A
C217   C223    1.437   .     S
C218   C238    1.410   .     A
C218   C232    1.394   .     A
C218   H249    1.077   .     S
C219   C231    1.391   .     A
C219   C234    1.445   .     S
C219   C232    1.406   .     A
C220   O262    1.283   .     A
C220   C222    1.454   .     S
C220   O264    1.281   .     A
C221   C233    1.402   .     A
C221   C230    1.476   .     S
C221   C237    1.419   .     A
C222   C277    1.334   .     S
C222   H298    1.088   .     S
C224   C227    1.451   .     S
C224   C387    1.331   .     S
C224   H407    1.088   .     S
C225   C226    1.435   .     S
C226   O259    1.275   .     A
C226   O265    1.275   .     A
C227   O266    1.274   .     A
C227   O260    1.275   .     A
C228   C233    1.387   .     A
C228   H252    1.083   .     S
C228   C721    1.391   .     S
C229   O257    1.278   .     A
C229   O255    1.268   .     A
C229   C232    1.455   .     S
C230   O258    1.283   .     A
C230   O256    1.284   .     A
C231   H248    1.086   .     S
C231   C725    1.400   1_554 S
C233   H250    1.083   .     S
C234   N253    1.157   .     T
C235   H251    1.076   .     S
C235   C714    1.391   1_554 S
C235   C722    1.417   1_554 S
C236   C237    1.424   .     A
C236   C721    1.417   .     S
C236   C724    1.427   .     S
C237   C241    1.410   .     A
C238   C722    1.427   1_554 S
C238   C725    1.422   1_554 S
C239   C240    1.391   .     A
C239   C724    1.422   .     S
C239   C717    1.400   .     S
C240   H247    1.084   .     S
C240   C241    1.382   .     A
C241   H243    1.080   .     S
H242   C277    1.086   .     S
H246   C387    1.086   .     S
O254   Zn270   1.935   .     S
O254   Zn269   1.943   .     S
O254   Zn268   1.937   .     S
O254   Zn267   1.958   .     S
O255   Zn268   1.939   .     S
O256   Zn270   1.944   .     S
O257   Zn269   1.936   .     S
O258   Zn267   1.932   .     S
O259   Zn267   1.926   .     S
O260   Zn270   1.933   .     S
O261   Zn268   1.928   .     S
O262   Zn269   1.934   .     S
O263   Zn270   1.929   .     S
O264   Zn267   1.926   .     S
O265   Zn268   1.937   .     S
O266   Zn269   1.929   .     S
C271   O315    1.269   .     A
C271   O317    1.269   .     A
C271   C277    1.437   .     S
C272   C292    1.410   .     A
C272   C286    1.394   .     A
C272   H303    1.077   .     S
C273   C285    1.391   .     A
C273   C288    1.445   .     S
C273   C286    1.406   .     A
C274   O316    1.283   .     A
C274   C276    1.454   .     S
C274   O318    1.281   .     A
C275   C287    1.402   .     A
C275   C284    1.476   .     S
C275   C291    1.419   .     A
C276   C169    1.334   1_655 S
C276   H190    1.088   1_655 S
C278   C281    1.451   .     S
C278   C441    1.331   .     S
C278   H461    1.088   .     S
C279   C280    1.435   .     S
C280   O313    1.275   .     A
C280   O319    1.275   .     A
C281   O320    1.274   .     A
C281   O314    1.275   .     A
C282   C287    1.387   .     A
C282   H306    1.083   .     S
C282   C775    1.391   .     S
C283   O311    1.278   .     A
C283   O309    1.268   .     A
C283   C286    1.455   .     S
C284   O312    1.283   .     A
C284   O310    1.284   .     A
C285   H302    1.086   .     S
C285   C779    1.400   1_554 S
C287   H304    1.083   .     S
C288   N307    1.157   .     T
C289   H305    1.076   .     S
C289   C768    1.391   1_554 S
C289   C776    1.417   1_554 S
C290   C291    1.424   .     A
C290   C775    1.417   .     S
C290   C778    1.427   .     S
C291   C295    1.410   .     A
C292   C776    1.427   1_554 S
C292   C779    1.422   1_554 S
C293   C294    1.391   .     A
C293   C778    1.422   .     S
C293   C771    1.400   .     S
C294   H301    1.084   .     S
C294   C295    1.382   .     A
C295   H297    1.080   .     S
H296   C169    1.086   1_655 S
H300   C441    1.086   .     S
O308   Zn324   1.935   .     S
O308   Zn323   1.943   .     S
O308   Zn322   1.937   .     S
O308   Zn321   1.958   .     S
O309   Zn322   1.939   .     S
O310   Zn324   1.944   .     S
O311   Zn323   1.936   .     S
O312   Zn321   1.932   .     S
O313   Zn321   1.926   .     S
O314   Zn324   1.933   .     S
O315   Zn322   1.928   .     S
O316   Zn323   1.934   .     S
O317   Zn324   1.929   .     S
O318   Zn321   1.926   .     S
O319   Zn322   1.937   .     S
O320   Zn323   1.929   .     S
C325   O369    1.269   .     A
C325   O371    1.269   .     A
C325   C331    1.437   .     S
C326   C346    1.410   .     A
C326   C340    1.394   .     A
C326   H357    1.077   .     S
C327   C339    1.391   .     A
C327   C342    1.445   .     S
C327   C340    1.406   .     A
C328   O370    1.283   .     A
C328   C330    1.454   .     S
C328   O372    1.281   .     A
C329   C341    1.402   .     A
C329   C338    1.476   .     S
C329   C345    1.419   .     A
C330   C385    1.334   .     S
C330   H406    1.088   .     S
C331   C438    1.334   1_455 S
C331   H458    1.086   1_455 S
C332   C335    1.451   .     S
C332   C9      1.331   1_565 S
C332   H29     1.088   1_565 S
C333   C334    1.435   .     S
C334   O367    1.275   .     A
C334   O373    1.275   .     A
C335   O374    1.274   .     A
C335   O368    1.275   .     A
C336   C341    1.387   .     A
C336   H360    1.083   .     S
C336   C829    1.391   .     S
C337   O365    1.278   .     A
C337   O363    1.268   .     A
C337   C340    1.455   .     S
C338   O366    1.283   .     A
C338   O364    1.284   .     A
C339   H356    1.086   .     S
C339   C833    1.400   1_554 S
C341   H358    1.083   .     S
C342   N361    1.157   .     T
C343   H359    1.076   .     S
C343   C822    1.391   1_554 S
C343   C830    1.417   1_554 S
C344   C345    1.424   .     A
C344   C829    1.417   .     S
C344   C832    1.427   .     S
C345   C349    1.410   .     A
C346   C830    1.427   1_554 S
C346   C833    1.422   1_554 S
C347   C348    1.391   .     A
C347   C832    1.422   .     S
C347   C825    1.400   .     S
C348   H355    1.084   .     S
C348   C349    1.382   .     A
C349   H351    1.080   .     S
H350   C385    1.086   .     S
H352   C438    1.088   1_455 S
H354   C9      1.086   1_565 S
O362   Zn378   1.935   .     S
O362   Zn377   1.943   .     S
O362   Zn376   1.937   .     S
O362   Zn375   1.958   .     S
O363   Zn376   1.939   .     S
O364   Zn378   1.944   .     S
O365   Zn377   1.936   .     S
O366   Zn375   1.932   .     S
O367   Zn375   1.926   .     S
O368   Zn378   1.933   .     S
O369   Zn376   1.928   .     S
O370   Zn377   1.934   .     S
O371   Zn378   1.929   .     S
O372   Zn375   1.926   .     S
O373   Zn376   1.937   .     S
O374   Zn377   1.929   .     S
C379   O423    1.269   .     A
C379   O425    1.269   .     A
C379   C385    1.437   .     S
C380   C400    1.410   .     A
C380   C394    1.394   .     A
C380   H411    1.077   .     S
C381   C393    1.391   .     A
C381   C396    1.445   .     S
C381   C394    1.406   .     A
C382   O424    1.283   .     A
C382   C384    1.454   .     S
C382   O426    1.281   .     A
C383   C395    1.402   .     A
C383   C392    1.476   .     S
C383   C399    1.419   .     A
C384   C439    1.334   .     S
C384   H460    1.088   .     S
C386   C389    1.451   .     S
C386   C63     1.331   1_565 S
C386   H83     1.088   1_565 S
C387   C388    1.435   .     S
C388   O421    1.275   .     A
C388   O427    1.275   .     A
C389   O428    1.274   .     A
C389   O422    1.275   .     A
C390   C395    1.387   .     A
C390   H414    1.083   .     S
C390   C883    1.391   .     S
C391   O419    1.278   .     A
C391   O417    1.268   .     A
C391   C394    1.455   .     S
C392   O420    1.283   .     A
C392   O418    1.284   .     A
C393   H410    1.086   .     S
C393   C887    1.400   1_554 S
C395   H412    1.083   .     S
C396   N415    1.157   .     T
C397   H413    1.076   .     S
C397   C876    1.391   1_554 S
C397   C884    1.417   1_554 S
C398   C399    1.424   .     A
C398   C883    1.417   .     S
C398   C886    1.427   .     S
C399   C403    1.410   .     A
C400   C884    1.427   1_554 S
C400   C887    1.422   1_554 S
C401   C402    1.391   .     A
C401   C886    1.422   .     S
C401   C879    1.400   .     S
C402   H409    1.084   .     S
C402   C403    1.382   .     A
C403   H405    1.080   .     S
H404   C439    1.086   .     S
H408   C63     1.086   1_565 S
O416   Zn432   1.935   .     S
O416   Zn431   1.943   .     S
O416   Zn430   1.937   .     S
O416   Zn429   1.958   .     S
O417   Zn430   1.939   .     S
O418   Zn432   1.944   .     S
O419   Zn431   1.936   .     S
O420   Zn429   1.932   .     S
O421   Zn429   1.926   .     S
O422   Zn432   1.933   .     S
O423   Zn430   1.928   .     S
O424   Zn431   1.934   .     S
O425   Zn432   1.929   .     S
O426   Zn429   1.926   .     S
O427   Zn430   1.937   .     S
O428   Zn431   1.929   .     S
C433   O477    1.269   .     A
C433   O479    1.269   .     A
C433   C439    1.437   .     S
C434   C454    1.410   .     A
C434   C448    1.394   .     A
C434   H465    1.077   .     S
C435   C447    1.391   .     A
C435   C450    1.445   .     S
C435   C448    1.406   .     A
C436   O478    1.283   .     A
C436   C438    1.454   .     S
C436   O480    1.281   .     A
C437   C449    1.402   .     A
C437   C446    1.476   .     S
C437   C453    1.419   .     A
C438   C331    1.334   1_655 S
C438   H352    1.088   1_655 S
C440   C443    1.451   .     S
C440   C117    1.331   1_565 S
C440   H137    1.088   1_565 S
C441   C442    1.435   .     S
C442   O475    1.275   .     A
C442   O481    1.275   .     A
C443   O482    1.274   .     A
C443   O476    1.275   .     A
C444   C449    1.387   .     A
C444   H468    1.083   .     S
C444   C937    1.391   .     S
C445   O473    1.278   .     A
C445   O471    1.268   .     A
C445   C448    1.455   .     S
C446   O474    1.283   .     A
C446   O472    1.284   .     A
C447   H464    1.086   .     S
C447   C941    1.400   1_554 S
C449   H466    1.083   .     S
C450   N469    1.157   .     T
C451   H467    1.076   .     S
C451   C930    1.391   1_554 S
C451   C938    1.417   1_554 S
C452   C453    1.424   .     A
C452   C937    1.417   .     S
C452   C940    1.427   .     S
C453   C457    1.410   .     A
C454   C938    1.427   1_554 S
C454   C941    1.422   1_554 S
C455   C456    1.391   .     A
C455   C940    1.422   .     S
C455   C933    1.400   .     S
C456   H463    1.084   .     S
C456   C457    1.382   .     A
C457   H459    1.080   .     S
H458   C331    1.086   1_655 S
H462   C117    1.086   1_565 S
O470   Zn486   1.935   .     S
O470   Zn485   1.943   .     S
O470   Zn484   1.937   .     S
O470   Zn483   1.958   .     S
O471   Zn484   1.939   .     S
O472   Zn486   1.944   .     S
O473   Zn485   1.936   .     S
O474   Zn483   1.932   .     S
O475   Zn483   1.926   .     S
O476   Zn486   1.933   .     S
O477   Zn484   1.928   .     S
O478   Zn485   1.934   .     S
O479   Zn486   1.929   .     S
O480   Zn483   1.926   .     S
O481   Zn484   1.937   .     S
O482   Zn485   1.929   .     S
C487   O531    1.269   .     A
C487   O533    1.269   .     A
C487   C493    1.437   .     S
C488   C508    1.410   .     A
C488   C502    1.394   .     A
C488   H519    1.077   .     S
C489   C501    1.391   .     A
C489   C504    1.445   .     S
C489   C502    1.406   .     A
C490   O532    1.283   .     A
C490   C492    1.454   .     S
C490   O534    1.281   .     A
C491   C503    1.402   .     A
C491   C500    1.476   .     S
C491   C507    1.419   .     A
C492   C547    1.334   .     S
C492   H568    1.088   .     S
C493   C600    1.334   1_455 S
C493   H620    1.086   1_455 S
C494   C497    1.451   .     S
C494   C657    1.331   .     S
C494   H677    1.088   .     S
C495   C496    1.435   .     S
C495   C818    1.331   1_545 S
C495   H840    1.086   1_545 S
C496   O529    1.275   .     A
C496   O535    1.275   .     A
C497   O536    1.274   .     A
C497   O530    1.275   .     A
C498   C503    1.387   .     A
C498   H522    1.083   .     S
C498   C19     1.391   1_556 S
C499   O527    1.278   .     A
C499   O525    1.268   .     A
C499   C502    1.455   .     S
C500   O528    1.283   .     A
C500   O526    1.284   .     A
C501   H518    1.086   .     S
C503   H520    1.083   .     S
C504   N523    1.157   .     T
C505   H521    1.076   .     S
C506   C507    1.424   .     A
C506   C19     1.417   1_556 S
C506   C22     1.427   1_556 S
C507   C511    1.410   .     A
C509   C510    1.391   .     A
C509   C22     1.422   1_556 S
C509   C15     1.400   1_556 S
C510   H517    1.084   .     S
C510   C511    1.382   .     A
C511   H513    1.080   .     S
H512   C547    1.086   .     S
H514   C600    1.088   1_455 S
H515   C818    1.088   1_545 S
H516   C657    1.086   .     S
O524   Zn540   1.935   .     S
O524   Zn539   1.943   .     S
O524   Zn538   1.937   .     S
O524   Zn537   1.958   .     S
O525   Zn538   1.939   .     S
O526   Zn540   1.944   .     S
O527   Zn539   1.936   .     S
O528   Zn537   1.932   .     S
O529   Zn537   1.926   .     S
O530   Zn540   1.933   .     S
O531   Zn538   1.928   .     S
O532   Zn539   1.934   .     S
O533   Zn540   1.929   .     S
O534   Zn537   1.926   .     S
O535   Zn538   1.937   .     S
O536   Zn539   1.929   .     S
C541   O585    1.269   .     A
C541   O587    1.269   .     A
C541   C547    1.437   .     S
C542   C562    1.410   .     A
C542   C556    1.394   .     A
C542   H573    1.077   .     S
C543   C555    1.391   .     A
C543   C558    1.445   .     S
C543   C556    1.406   .     A
C544   O586    1.283   .     A
C544   C546    1.454   .     S
C544   O588    1.281   .     A
C545   C557    1.402   .     A
C545   C554    1.476   .     S
C545   C561    1.419   .     A
C546   C601    1.334   .     S
C546   H622    1.088   .     S
C548   C551    1.451   .     S
C548   C711    1.331   .     S
C548   H731    1.088   .     S
C549   C550    1.435   .     S
C549   C872    1.331   1_545 S
C549   H894    1.086   1_545 S
C550   O583    1.275   .     A
C550   O589    1.275   .     A
C551   O590    1.274   .     A
C551   O584    1.275   .     A
C552   C557    1.387   .     A
C552   H576    1.083   .     S
C552   C73     1.391   1_556 S
C553   O581    1.278   .     A
C553   O579    1.268   .     A
C553   C556    1.455   .     S
C554   O582    1.283   .     A
C554   O580    1.284   .     A
C555   H572    1.086   .     S
C557   H574    1.083   .     S
C558   N577    1.157   .     T
C559   H575    1.076   .     S
C560   C561    1.424   .     A
C560   C73     1.417   1_556 S
C560   C76     1.427   1_556 S
C561   C565    1.410   .     A
C563   C564    1.391   .     A
C563   C76     1.422   1_556 S
C563   C69     1.400   1_556 S
C564   H571    1.084   .     S
C564   C565    1.382   .     A
C565   H567    1.080   .     S
H566   C601    1.086   .     S
H569   C872    1.088   1_545 S
H570   C711    1.086   .     S
O578   Zn594   1.935   .     S
O578   Zn593   1.943   .     S
O578   Zn592   1.937   .     S
O578   Zn591   1.958   .     S
O579   Zn592   1.939   .     S
O580   Zn594   1.944   .     S
O581   Zn593   1.936   .     S
O582   Zn591   1.932   .     S
O583   Zn591   1.926   .     S
O584   Zn594   1.933   .     S
O585   Zn592   1.928   .     S
O586   Zn593   1.934   .     S
O587   Zn594   1.929   .     S
O588   Zn591   1.926   .     S
O589   Zn592   1.937   .     S
O590   Zn593   1.929   .     S
C595   O639    1.269   .     A
C595   O641    1.269   .     A
C595   C601    1.437   .     S
C596   C616    1.410   .     A
C596   C610    1.394   .     A
C596   H627    1.077   .     S
C597   C609    1.391   .     A
C597   C612    1.445   .     S
C597   C610    1.406   .     A
C598   O640    1.283   .     A
C598   C600    1.454   .     S
C598   O642    1.281   .     A
C599   C611    1.402   .     A
C599   C608    1.476   .     S
C599   C615    1.419   .     A
C600   C493    1.334   1_655 S
C600   H514    1.088   1_655 S
C602   C605    1.451   .     S
C602   C765    1.331   .     S
C602   H785    1.088   .     S
C603   C604    1.435   .     S
C603   C926    1.331   1_545 S
C603   H948    1.086   1_545 S
C604   O637    1.275   .     A
C604   O643    1.275   .     A
C605   O644    1.274   .     A
C605   O638    1.275   .     A
C606   C611    1.387   .     A
C606   H630    1.083   .     S
C606   C127    1.391   1_556 S
C607   O635    1.278   .     A
C607   O633    1.268   .     A
C607   C610    1.455   .     S
C608   O636    1.283   .     A
C608   O634    1.284   .     A
C609   H626    1.086   .     S
C611   H628    1.083   .     S
C612   N631    1.157   .     T
C613   H629    1.076   .     S
C614   C615    1.424   .     A
C614   C127    1.417   1_556 S
C614   C130    1.427   1_556 S
C615   C619    1.410   .     A
C617   C618    1.391   .     A
C617   C130    1.422   1_556 S
C617   C123    1.400   1_556 S
C618   H625    1.084   .     S
C618   C619    1.382   .     A
C619   H621    1.080   .     S
H620   C493    1.086   1_655 S
H623   C926    1.088   1_545 S
H624   C765    1.086   .     S
O632   Zn648   1.935   .     S
O632   Zn647   1.943   .     S
O632   Zn646   1.937   .     S
O632   Zn645   1.958   .     S
O633   Zn646   1.939   .     S
O634   Zn648   1.944   .     S
O635   Zn647   1.936   .     S
O636   Zn645   1.932   .     S
O637   Zn645   1.926   .     S
O638   Zn648   1.933   .     S
O639   Zn646   1.928   .     S
O640   Zn647   1.934   .     S
O641   Zn648   1.929   .     S
O642   Zn645   1.926   .     S
O643   Zn646   1.937   .     S
O644   Zn647   1.929   .     S
C649   O693    1.269   .     A
C649   O695    1.269   .     A
C649   C655    1.437   .     S
C650   C670    1.410   .     A
C650   C664    1.394   .     A
C650   H681    1.077   .     S
C651   C663    1.391   .     A
C651   C666    1.445   .     S
C651   C664    1.406   .     A
C652   O694    1.283   .     A
C652   C654    1.454   .     S
C652   O696    1.281   .     A
C653   C665    1.402   .     A
C653   C662    1.476   .     S
C653   C669    1.419   .     A
C654   C709    1.334   .     S
C654   H730    1.088   .     S
C655   C762    1.334   1_455 S
C655   H782    1.086   1_455 S
C656   C659    1.451   .     S
C656   C819    1.331   .     S
C656   H839    1.088   .     S
C657   C658    1.435   .     S
C658   O691    1.275   .     A
C658   O697    1.275   .     A
C659   O698    1.274   .     A
C659   O692    1.275   .     A
C660   C665    1.387   .     A
C660   H684    1.083   .     S
C660   C181    1.391   1_556 S
C661   O689    1.278   .     A
C661   O687    1.268   .     A
C661   C664    1.455   .     S
C662   O690    1.283   .     A
C662   O688    1.284   .     A
C663   H680    1.086   .     S
C665   H682    1.083   .     S
C666   N685    1.157   .     T
C667   H683    1.076   .     S
C668   C669    1.424   .     A
C668   C181    1.417   1_556 S
C668   C184    1.427   1_556 S
C669   C673    1.410   .     A
C671   C672    1.391   .     A
C671   C184    1.422   1_556 S
C671   C177    1.400   1_556 S
C672   H679    1.084   .     S
C672   C673    1.382   .     A
C673   H675    1.080   .     S
H674   C709    1.086   .     S
H676   C762    1.088   1_455 S
H678   C819    1.086   .     S
O686   Zn702   1.935   .     S
O686   Zn701   1.943   .     S
O686   Zn700   1.937   .     S
O686   Zn699   1.958   .     S
O687   Zn700   1.939   .     S
O688   Zn702   1.944   .     S
O689   Zn701   1.936   .     S
O690   Zn699   1.932   .     S
O691   Zn699   1.926   .     S
O692   Zn702   1.933   .     S
O693   Zn700   1.928   .     S
O694   Zn701   1.934   .     S
O695   Zn702   1.929   .     S
O696   Zn699   1.926   .     S
O697   Zn700   1.937   .     S
O698   Zn701   1.929   .     S
C703   O747    1.269   .     A
C703   O749    1.269   .     A
C703   C709    1.437   .     S
C704   C724    1.410   .     A
C704   C718    1.394   .     A
C704   H735    1.077   .     S
C705   C717    1.391   .     A
C705   C720    1.445   .     S
C705   C718    1.406   .     A
C706   O748    1.283   .     A
C706   C708    1.454   .     S
C706   O750    1.281   .     A
C707   C719    1.402   .     A
C707   C716    1.476   .     S
C707   C723    1.419   .     A
C708   C763    1.334   .     S
C708   H784    1.088   .     S
C710   C713    1.451   .     S
C710   C873    1.331   .     S
C710   H893    1.088   .     S
C711   C712    1.435   .     S
C712   O745    1.275   .     A
C712   O751    1.275   .     A
C713   O752    1.274   .     A
C713   O746    1.275   .     A
C714   C719    1.387   .     A
C714   H738    1.083   .     S
C714   C235    1.391   1_556 S
C715   O743    1.278   .     A
C715   O741    1.268   .     A
C715   C718    1.455   .     S
C716   O744    1.283   .     A
C716   O742    1.284   .     A
C717   H734    1.086   .     S
C719   H736    1.083   .     S
C720   N739    1.157   .     T
C721   H737    1.076   .     S
C722   C723    1.424   .     A
C722   C235    1.417   1_556 S
C722   C238    1.427   1_556 S
C723   C727    1.410   .     A
C725   C726    1.391   .     A
C725   C238    1.422   1_556 S
C725   C231    1.400   1_556 S
C726   H733    1.084   .     S
C726   C727    1.382   .     A
C727   H729    1.080   .     S
H728   C763    1.086   .     S
H732   C873    1.086   .     S
O740   Zn756   1.935   .     S
O740   Zn755   1.943   .     S
O740   Zn754   1.937   .     S
O740   Zn753   1.958   .     S
O741   Zn754   1.939   .     S
O742   Zn756   1.944   .     S
O743   Zn755   1.936   .     S
O744   Zn753   1.932   .     S
O745   Zn753   1.926   .     S
O746   Zn756   1.933   .     S
O747   Zn754   1.928   .     S
O748   Zn755   1.934   .     S
O749   Zn756   1.929   .     S
O750   Zn753   1.926   .     S
O751   Zn754   1.937   .     S
O752   Zn755   1.929   .     S
C757   O801    1.269   .     A
C757   O803    1.269   .     A
C757   C763    1.437   .     S
C758   C778    1.410   .     A
C758   C772    1.394   .     A
C758   H789    1.077   .     S
C759   C771    1.391   .     A
C759   C774    1.445   .     S
C759   C772    1.406   .     A
C760   O802    1.283   .     A
C760   C762    1.454   .     S
C760   O804    1.281   .     A
C761   C773    1.402   .     A
C761   C770    1.476   .     S
C761   C777    1.419   .     A
C762   C655    1.334   1_655 S
C762   H676    1.088   1_655 S
C764   C767    1.451   .     S
C764   C927    1.331   .     S
C764   H947    1.088   .     S
C765   C766    1.435   .     S
C766   O799    1.275   .     A
C766   O805    1.275   .     A
C767   O806    1.274   .     A
C767   O800    1.275   .     A
C768   C773    1.387   .     A
C768   H792    1.083   .     S
C768   C289    1.391   1_556 S
C769   O797    1.278   .     A
C769   O795    1.268   .     A
C769   C772    1.455   .     S
C770   O798    1.283   .     A
C770   O796    1.284   .     A
C771   H788    1.086   .     S
C773   H790    1.083   .     S
C774   N793    1.157   .     T
C775   H791    1.076   .     S
C776   C777    1.424   .     A
C776   C289    1.417   1_556 S
C776   C292    1.427   1_556 S
C777   C781    1.410   .     A
C779   C780    1.391   .     A
C779   C292    1.422   1_556 S
C779   C285    1.400   1_556 S
C780   H787    1.084   .     S
C780   C781    1.382   .     A
C781   H783    1.080   .     S
H782   C655    1.086   1_655 S
H786   C927    1.086   .     S
O794   Zn810   1.935   .     S
O794   Zn809   1.943   .     S
O794   Zn808   1.937   .     S
O794   Zn807   1.958   .     S
O795   Zn808   1.939   .     S
O796   Zn810   1.944   .     S
O797   Zn809   1.936   .     S
O798   Zn807   1.932   .     S
O799   Zn807   1.926   .     S
O800   Zn810   1.933   .     S
O801   Zn808   1.928   .     S
O802   Zn809   1.934   .     S
O803   Zn810   1.929   .     S
O804   Zn807   1.926   .     S
O805   Zn808   1.937   .     S
O806   Zn809   1.929   .     S
C811   O855    1.269   .     A
C811   O857    1.269   .     A
C811   C817    1.437   .     S
C812   C832    1.410   .     A
C812   C826    1.394   .     A
C812   H843    1.077   .     S
C813   C825    1.391   .     A
C813   C828    1.445   .     S
C813   C826    1.406   .     A
C814   O856    1.283   .     A
C814   C816    1.454   .     S
C814   O858    1.281   .     A
C815   C827    1.402   .     A
C815   C824    1.476   .     S
C815   C831    1.419   .     A
C816   C871    1.334   .     S
C816   H892    1.088   .     S
C817   C924    1.334   1_455 S
C817   H944    1.086   1_455 S
C818   C821    1.451   .     S
C818   C495    1.331   1_565 S
C818   H515    1.088   1_565 S
C819   C820    1.435   .     S
C820   O853    1.275   .     A
C820   O859    1.275   .     A
C821   O860    1.274   .     A
C821   O854    1.275   .     A
C822   C827    1.387   .     A
C822   H846    1.083   .     S
C822   C343    1.391   1_556 S
C823   O851    1.278   .     A
C823   O849    1.268   .     A
C823   C826    1.455   .     S
C824   O852    1.283   .     A
C824   O850    1.284   .     A
C825   H842    1.086   .     S
C827   H844    1.083   .     S
C828   N847    1.157   .     T
C829   H845    1.076   .     S
C830   C831    1.424   .     A
C830   C343    1.417   1_556 S
C830   C346    1.427   1_556 S
C831   C835    1.410   .     A
C833   C834    1.391   .     A
C833   C346    1.422   1_556 S
C833   C339    1.400   1_556 S
C834   H841    1.084   .     S
C834   C835    1.382   .     A
C835   H837    1.080   .     S
H836   C871    1.086   .     S
H838   C924    1.088   1_455 S
H840   C495    1.086   1_565 S
O848   Zn864   1.935   .     S
O848   Zn863   1.943   .     S
O848   Zn862   1.937   .     S
O848   Zn861   1.958   .     S
O849   Zn862   1.939   .     S
O850   Zn864   1.944   .     S
O851   Zn863   1.936   .     S
O852   Zn861   1.932   .     S
O853   Zn861   1.926   .     S
O854   Zn864   1.933   .     S
O855   Zn862   1.928   .     S
O856   Zn863   1.934   .     S
O857   Zn864   1.929   .     S
O858   Zn861   1.926   .     S
O859   Zn862   1.937   .     S
O860   Zn863   1.929   .     S
C865   O909    1.269   .     A
C865   O911    1.269   .     A
C865   C871    1.437   .     S
C866   C886    1.410   .     A
C866   C880    1.394   .     A
C866   H897    1.077   .     S
C867   C879    1.391   .     A
C867   C882    1.445   .     S
C867   C880    1.406   .     A
C868   O910    1.283   .     A
C868   C870    1.454   .     S
C868   O912    1.281   .     A
C869   C881    1.402   .     A
C869   C878    1.476   .     S
C869   C885    1.419   .     A
C870   C925    1.334   .     S
C870   H946    1.088   .     S
C872   C875    1.451   .     S
C872   C549    1.331   1_565 S
C872   H569    1.088   1_565 S
C873   C874    1.435   .     S
C874   O907    1.275   .     A
C874   O913    1.275   .     A
C875   O914    1.274   .     A
C875   O908    1.275   .     A
C876   C881    1.387   .     A
C876   H900    1.083   .     S
C876   C397    1.391   1_556 S
C877   O905    1.278   .     A
C877   O903    1.268   .     A
C877   C880    1.455   .     S
C878   O906    1.283   .     A
C878   O904    1.284   .     A
C879   H896    1.086   .     S
C881   H898    1.083   .     S
C882   N901    1.157   .     T
C883   H899    1.076   .     S
C884   C885    1.424   .     A
C884   C397    1.417   1_556 S
C884   C400    1.427   1_556 S
C885   C889    1.410   .     A
C887   C888    1.391   .     A
C887   C400    1.422   1_556 S
C887   C393    1.400   1_556 S
C888   H895    1.084   .     S
C888   C889    1.382   .     A
C889   H891    1.080   .     S
H890   C925    1.086   .     S
H894   C549    1.086   1_565 S
O902   Zn918   1.935   .     S
O902   Zn917   1.943   .     S
O902   Zn916   1.937   .     S
O902   Zn915   1.958   .     S
O903   Zn916   1.939   .     S
O904   Zn918   1.944   .     S
O905   Zn917   1.936   .     S
O906   Zn915   1.932   .     S
O907   Zn915   1.926   .     S
O908   Zn918   1.933   .     S
O909   Zn916   1.928   .     S
O910   Zn917   1.934   .     S
O911   Zn918   1.929   .     S
O912   Zn915   1.926   .     S
O913   Zn916   1.937   .     S
O914   Zn917   1.929   .     S
C919   O963    1.269   .     A
C919   O965    1.269   .     A
C919   C925    1.437   .     S
C920   C940    1.410   .     A
C920   C934    1.394   .     A
C920   H951    1.077   .     S
C921   C933    1.391   .     A
C921   C936    1.445   .     S
C921   C934    1.406   .     A
C922   O964    1.283   .     A
C922   C924    1.454   .     S
C922   O966    1.281   .     A
C923   C935    1.402   .     A
C923   C932    1.476   .     S
C923   C939    1.419   .     A
C924   C817    1.334   1_655 S
C924   H838    1.088   1_655 S
C926   C929    1.451   .     S
C926   C603    1.331   1_565 S
C926   H623    1.088   1_565 S
C927   C928    1.435   .     S
C928   O961    1.275   .     A
C928   O967    1.275   .     A
C929   O968    1.274   .     A
C929   O962    1.275   .     A
C930   C935    1.387   .     A
C930   H954    1.083   .     S
C930   C451    1.391   1_556 S
C931   O959    1.278   .     A
C931   O957    1.268   .     A
C931   C934    1.455   .     S
C932   O960    1.283   .     A
C932   O958    1.284   .     A
C933   H950    1.086   .     S
C935   H952    1.083   .     S
C936   N955    1.157   .     T
C937   H953    1.076   .     S
C938   C939    1.424   .     A
C938   C451    1.417   1_556 S
C938   C454    1.427   1_556 S
C939   C943    1.410   .     A
C941   C942    1.391   .     A
C941   C454    1.422   1_556 S
C941   C447    1.400   1_556 S
C942   H949    1.084   .     S
C942   C943    1.382   .     A
C943   H945    1.080   .     S
H944   C817    1.086   1_655 S
H948   C603    1.086   1_565 S
O956   Zn972   1.935   .     S
O956   Zn971   1.943   .     S
O956   Zn970   1.937   .     S
O956   Zn969   1.958   .     S
O957   Zn970   1.939   .     S
O958   Zn972   1.944   .     S
O959   Zn971   1.936   .     S
O960   Zn969   1.932   .     S
O961   Zn969   1.926   .     S
O962   Zn972   1.933   .     S
O963   Zn970   1.928   .     S
O964   Zn971   1.934   .     S
O965   Zn972   1.929   .     S
O966   Zn969   1.926   .     S
O967   Zn970   1.937   .     S
O968   Zn971   1.929   .     S
