data_str_m1_o1_o17_pcu_sym.13
_audit_creation_date              2020-01-03
_audit_creation_method            'Materials Studio'
_symmetry_space_group_name_H-M    'P1'
_symmetry_Int_Tables_number       1
_symmetry_cell_setting            triclinic
loop_
_symmetry_equiv_pos_as_xyz
  x,y,z
_cell_length_a                    36.6296
_cell_length_b                    36.6306
_cell_length_c                    34.4817
_cell_angle_alpha                 89.9517
_cell_angle_beta                  90.0069
_cell_angle_gamma                 89.9977
loop_
_atom_site_label
_atom_site_type_symbol
_atom_site_fract_x
_atom_site_fract_y
_atom_site_fract_z
_atom_site_U_iso_or_equiv
_atom_site_adp_type
_atom_site_occupancy
Zn1    Zn    0.20659   0.00000   0.21735   0.00000  Uiso   1.00
Zn2    Zn    0.29340   0.00000   0.78265   0.00000  Uiso   1.00
Zn3    Zn   -0.00000   0.20660   0.21735   0.00000  Uiso   1.00
Zn4    Zn    0.00000   0.29340   0.78265   0.00000  Uiso   1.00
Zn5    Zn    0.29340   0.00000   0.21735   0.00000  Uiso   1.00
Zn6    Zn    0.20659   0.00000   0.78265   0.00000  Uiso   1.00
Zn7    Zn   -0.00000   0.29340   0.21735   0.00000  Uiso   1.00
Zn8    Zn   -0.00000   0.20660   0.78265   0.00000  Uiso   1.00
Zn9    Zn    0.45659   0.25000   0.71735   0.00000  Uiso   1.00
Zn10   Zn    0.04340   0.25000   0.28265   0.00000  Uiso   1.00
Zn11   Zn    0.25000   0.45659   0.71735   0.00000  Uiso   1.00
Zn12   Zn    0.25000   0.04341   0.28265   0.00000  Uiso   1.00
Zn13   Zn    0.04340   0.25000   0.71735   0.00000  Uiso   1.00
Zn14   Zn    0.45659   0.25000   0.28265   0.00000  Uiso   1.00
Zn15   Zn    0.25000   0.04341   0.71735   0.00000  Uiso   1.00
Zn16   Zn    0.25000   0.45659   0.28265   0.00000  Uiso   1.00
C17    C     0.01665   0.27962   0.41779   0.00000  Uiso   1.00
C18    C     0.47649   0.22622   0.58163   0.00000  Uiso   1.00
C19    C     0.22235   0.01823   0.41745   0.00000  Uiso   1.00
C20    C     0.27442   0.47813   0.58166   0.00000  Uiso   1.00
C21    C     0.48185   0.22289   0.41761   0.00000  Uiso   1.00
C22    C     0.02245   0.27428   0.58156   0.00000  Uiso   1.00
C23    C     0.27817   0.48218   0.41754   0.00000  Uiso   1.00
C24    C     0.22501   0.02287   0.58137   0.00000  Uiso   1.00
C25    C     0.26959   0.02684   0.91750   0.00000  Uiso   1.00
C26    C     0.22533   0.47767   0.08146   0.00000  Uiso   1.00
C27    C     0.47233   0.26716   0.91754   0.00000  Uiso   1.00
C28    C     0.02593   0.23023   0.08176   0.00000  Uiso   1.00
C29    C     0.23043   0.47314   0.91754   0.00000  Uiso   1.00
C30    C     0.27466   0.02233   0.08143   0.00000  Uiso   1.00
C31    C     0.03049   0.23483   0.91783   0.00000  Uiso   1.00
C32    C     0.47395   0.27188   0.08148   0.00000  Uiso   1.00
C33    C     0.49984   0.25084   0.39792   0.00000  Uiso   1.00
C34    C     0.49982   0.24997   0.60160   0.00000  Uiso   1.00
C35    C     0.25011   0.49999   0.39784   0.00000  Uiso   1.00
C36    C     0.24963   0.00034   0.60156   0.00000  Uiso   1.00
C37    C     0.25001   0.49999   0.89786   0.00000  Uiso   1.00
C38    C     0.25000   0.00000   0.10149   0.00000  Uiso   1.00
C39    C     0.00089   0.25017   0.89792   0.00000  Uiso   1.00
C40    C     0.49960   0.25051   0.10164   0.00000  Uiso   1.00
O41    O     0.25000   0.00000   0.25000   0.00000  Uiso   1.00
O42    O     0.25000   0.00000   0.75000   0.00000  Uiso   1.00
O43    O     0.00000   0.25000   0.25000   0.00000  Uiso   1.00
O44    O     0.00000   0.25000   0.75000   0.00000  Uiso   1.00
O45    O     0.25000   0.46963   0.33755   0.00000  Uiso   1.00
O46    O     0.25000   0.03037   0.66245   0.00000  Uiso   1.00
O47    O     0.03036   0.25000   0.33755   0.00000  Uiso   1.00
O48    O     0.46963   0.25000   0.66245   0.00000  Uiso   1.00
O49    O     0.25000   0.03037   0.33755   0.00000  Uiso   1.00
O50    O     0.25000   0.46963   0.66245   0.00000  Uiso   1.00
O51    O     0.46963   0.25000   0.33755   0.00000  Uiso   1.00
O52    O     0.03036   0.25000   0.66245   0.00000  Uiso   1.00
O53    O    -0.00000   0.21964   0.83755   0.00000  Uiso   1.00
O54    O     0.00000   0.28036   0.16245   0.00000  Uiso   1.00
O55    O     0.28036   0.00000   0.83755   0.00000  Uiso   1.00
O56    O     0.21963   0.00000   0.16245   0.00000  Uiso   1.00
O57    O    -0.00000   0.28036   0.83755   0.00000  Uiso   1.00
O58    O     0.00000   0.21963   0.16245   0.00000  Uiso   1.00
O59    O     0.21963   0.00000   0.83755   0.00000  Uiso   1.00
O60    O     0.28036   0.00000   0.16245   0.00000  Uiso   1.00
O61    O     0.20724   0.07308   0.27302   0.00000  Uiso   1.00
O62    O     0.29275   0.42692   0.72698   0.00000  Uiso   1.00
O63    O     0.42692   0.20725   0.27302   0.00000  Uiso   1.00
O64    O     0.07307   0.29275   0.72698   0.00000  Uiso   1.00
O65    O     0.29275   0.42692   0.27302   0.00000  Uiso   1.00
O66    O     0.20724   0.07308   0.72698   0.00000  Uiso   1.00
O67    O     0.07307   0.29275   0.27302   0.00000  Uiso   1.00
O68    O     0.42692   0.20725   0.72698   0.00000  Uiso   1.00
O69    O     0.20724   0.42692   0.72698   0.00000  Uiso   1.00
O70    O     0.29275   0.07308   0.27302   0.00000  Uiso   1.00
O71    O     0.42692   0.29275   0.72698   0.00000  Uiso   1.00
O72    O     0.07307   0.20724   0.27302   0.00000  Uiso   1.00
O73    O     0.29275   0.07308   0.72698   0.00000  Uiso   1.00
O74    O     0.20724   0.42692   0.27302   0.00000  Uiso   1.00
O75    O     0.07307   0.20724   0.72698   0.00000  Uiso   1.00
O76    O     0.42692   0.29275   0.27302   0.00000  Uiso   1.00
O77    O     0.45724   0.32307   0.77302   0.00000  Uiso   1.00
O78    O     0.04275   0.17692   0.22698   0.00000  Uiso   1.00
O79    O     0.17692   0.45724   0.77302   0.00000  Uiso   1.00
O80    O     0.32307   0.04276   0.22698   0.00000  Uiso   1.00
O81    O     0.04275   0.17692   0.77302   0.00000  Uiso   1.00
O82    O     0.45724   0.32307   0.22698   0.00000  Uiso   1.00
O83    O     0.32307   0.04276   0.77302   0.00000  Uiso   1.00
O84    O     0.17692   0.45724   0.22698   0.00000  Uiso   1.00
O85    O     0.45724   0.17693   0.22698   0.00000  Uiso   1.00
O86    O     0.04275   0.32307   0.77302   0.00000  Uiso   1.00
O87    O     0.17692   0.04276   0.22698   0.00000  Uiso   1.00
O88    O     0.32307   0.45724   0.77302   0.00000  Uiso   1.00
O89    O     0.04275   0.32307   0.22698   0.00000  Uiso   1.00
O90    O     0.45724   0.17693   0.77302   0.00000  Uiso   1.00
O91    O     0.32307   0.45724   0.22698   0.00000  Uiso   1.00
O92    O     0.17692   0.04276   0.77302   0.00000  Uiso   1.00
C93    C     0.45583   0.19984   0.47932   0.00000  Uiso   1.00
C94    C     0.03497   0.30734   0.52030   0.00000  Uiso   1.00
C95    C     0.30172   0.45757   0.47982   0.00000  Uiso   1.00
C96    C     0.19604   0.04041   0.51908   0.00000  Uiso   1.00
C97    C     0.03942   0.30478   0.47994   0.00000  Uiso   1.00
C98    C     0.46077   0.19583   0.51943   0.00000  Uiso   1.00
C99    C     0.20023   0.04507   0.47894   0.00000  Uiso   1.00
C100   C     0.30563   0.46310   0.51983   0.00000  Uiso   1.00
C101   C     0.20346   0.45176   0.97949   0.00000  Uiso   1.00
C102   C     0.29180   0.05233   0.01951   0.00000  Uiso   1.00
C103   C     0.05735   0.21454   0.98031   0.00000  Uiso   1.00
C104   C     0.44477   0.28859   0.01892   0.00000  Uiso   1.00
C105   C     0.29655   0.04823   0.97941   0.00000  Uiso   1.00
C106   C     0.20820   0.44766   0.01959   0.00000  Uiso   1.00
C107   C     0.44890   0.29336   0.97877   0.00000  Uiso   1.00
C108   C     0.05976   0.21969   0.02059   0.00000  Uiso   1.00
C109   C     0.25001   0.49998   0.35568   0.00000  Uiso   1.00
C110   C     0.24974   0.00006   0.64410   0.00000  Uiso   1.00
C111   C     0.00001   0.25032   0.35571   0.00000  Uiso   1.00
C112   C     0.49998   0.24991   0.64411   0.00000  Uiso   1.00
C113   C     0.00030   0.24998   0.85571   0.00000  Uiso   1.00
C114   C     0.49966   0.25008   0.14413   0.00000  Uiso   1.00
C115   C     0.25000  -0.00000   0.85569   0.00000  Uiso   1.00
C116   C     0.25000  -0.00000   0.14407   0.00000  Uiso   1.00
C117   C     0.17999   0.07000   0.24999   0.00000  Uiso   1.00
C118   C     0.32000   0.43000   0.75001   0.00000  Uiso   1.00
C119   C     0.42999   0.18000   0.25000   0.00000  Uiso   1.00
C120   C     0.07001   0.31999   0.75000   0.00000  Uiso   1.00
C121   C     0.32000   0.42999   0.25000   0.00000  Uiso   1.00
C122   C     0.18000   0.07001   0.75000   0.00000  Uiso   1.00
C123   C     0.07000   0.32001   0.25000   0.00000  Uiso   1.00
C124   C     0.43000   0.17999   0.75001   0.00000  Uiso   1.00
C125   C     0.17999   0.43000   0.75000   0.00000  Uiso   1.00
C126   C     0.32001   0.06999   0.25000   0.00000  Uiso   1.00
C127   C     0.42999   0.32000   0.74999   0.00000  Uiso   1.00
C128   C     0.07000   0.18000   0.25001   0.00000  Uiso   1.00
C129   C     0.32000   0.07001   0.74999   0.00000  Uiso   1.00
C130   C     0.18000   0.42999   0.25000   0.00000  Uiso   1.00
C131   C     0.07000   0.17999   0.75000   0.00000  Uiso   1.00
C132   C     0.43000   0.32001   0.25000   0.00000  Uiso   1.00
C133   C     0.13811   0.38901   0.21449   0.00000  Uiso   1.00
C134   C     0.36189   0.11099   0.78550   0.00000  Uiso   1.00
C135   C     0.11104   0.13818   0.21449   0.00000  Uiso   1.00
C136   C     0.38896   0.36183   0.78550   0.00000  Uiso   1.00
C137   C     0.36191   0.11101   0.21449   0.00000  Uiso   1.00
C138   C     0.13813   0.38894   0.78551   0.00000  Uiso   1.00
C139   C     0.38896   0.36189   0.21449   0.00000  Uiso   1.00
C140   C     0.11106   0.13812   0.78550   0.00000  Uiso   1.00
C141   C     0.13815   0.11104   0.78551   0.00000  Uiso   1.00
C142   C     0.36187   0.38897   0.21449   0.00000  Uiso   1.00
C143   C     0.11106   0.36184   0.78551   0.00000  Uiso   1.00
C144   C     0.38899   0.13811   0.21449   0.00000  Uiso   1.00
C145   C     0.36190   0.38894   0.78551   0.00000  Uiso   1.00
C146   C     0.13811   0.11107   0.21449   0.00000  Uiso   1.00
C147   C     0.38898   0.13806   0.78551   0.00000  Uiso   1.00
C148   C     0.11102   0.36193   0.21449   0.00000  Uiso   1.00
C149   C     0.38810   0.13902   0.71449   0.00000  Uiso   1.00
C150   C     0.11186   0.36102   0.28550   0.00000  Uiso   1.00
C151   C     0.36103   0.38816   0.71449   0.00000  Uiso   1.00
C152   C     0.13895   0.11182   0.28550   0.00000  Uiso   1.00
C153   C     0.11188   0.36105   0.71450   0.00000  Uiso   1.00
C154   C     0.38811   0.13897   0.28551   0.00000  Uiso   1.00
C155   C     0.13897   0.11190   0.71449   0.00000  Uiso   1.00
C156   C     0.36106   0.38812   0.28551   0.00000  Uiso   1.00
C157   C     0.38816   0.36105   0.28551   0.00000  Uiso   1.00
C158   C     0.11188   0.13897   0.71449   0.00000  Uiso   1.00
C159   C     0.36103   0.11187   0.28551   0.00000  Uiso   1.00
C160   C     0.13895   0.38814   0.71450   0.00000  Uiso   1.00
C161   C     0.11188   0.13892   0.28551   0.00000  Uiso   1.00
C162   C     0.38809   0.36106   0.71449   0.00000  Uiso   1.00
C163   C     0.13896   0.38809   0.28551   0.00000  Uiso   1.00
C164   C     0.36100   0.11195   0.71449   0.00000  Uiso   1.00
C165   C     0.47796   0.22480   0.45844   0.00000  Uiso   1.00
C166   C     0.01855   0.27815   0.54089   0.00000  Uiso   1.00
C167   C     0.27681   0.47944   0.45854   0.00000  Uiso   1.00
C168   C     0.22321   0.02119   0.54041   0.00000  Uiso   1.00
C169   C     0.01877   0.27868   0.45874   0.00000  Uiso   1.00
C170   C     0.47881   0.22369   0.54065   0.00000  Uiso   1.00
C171   C     0.22436   0.02200   0.45825   0.00000  Uiso   1.00
C172   C     0.27749   0.48097   0.54078   0.00000  Uiso   1.00
C173   C     0.22723   0.47502   0.95843   0.00000  Uiso   1.00
C174   C     0.27198   0.02558   0.04057   0.00000  Uiso   1.00
C175   C     0.03000   0.23335   0.95887   0.00000  Uiso   1.00
C176   C     0.47276   0.27075   0.04043   0.00000  Uiso   1.00
C177   C     0.27278   0.02496   0.95839   0.00000  Uiso   1.00
C178   C     0.22801   0.47441   0.04061   0.00000  Uiso   1.00
C179   C     0.47437   0.27164   0.95826   0.00000  Uiso   1.00
C180   C     0.02959   0.23431   0.04108   0.00000  Uiso   1.00
C181   C     0.09808   0.34811   0.24999   0.00000  Uiso   1.00
C182   C     0.40192   0.15190   0.75000   0.00000  Uiso   1.00
C183   C     0.15190   0.09808   0.24999   0.00000  Uiso   1.00
C184   C     0.34810   0.40192   0.75000   0.00000  Uiso   1.00
C185   C     0.40190   0.15192   0.25000   0.00000  Uiso   1.00
C186   C     0.09810   0.34807   0.75000   0.00000  Uiso   1.00
C187   C     0.34809   0.40190   0.25000   0.00000  Uiso   1.00
C188   C     0.15193   0.09811   0.75000   0.00000  Uiso   1.00
C189   C     0.09809   0.15190   0.75000   0.00000  Uiso   1.00
C190   C     0.40193   0.34811   0.25000   0.00000  Uiso   1.00
C191   C     0.15190   0.40191   0.75000   0.00000  Uiso   1.00
C192   C     0.34810   0.09807   0.25000   0.00000  Uiso   1.00
C193   C     0.40189   0.34808   0.74999   0.00000  Uiso   1.00
C194   C     0.09810   0.15193   0.25001   0.00000  Uiso   1.00
C195   C     0.34808   0.09810   0.74999   0.00000  Uiso   1.00
C196   C     0.15191   0.40191   0.25000   0.00000  Uiso   1.00
C197   C     0.49840   0.25158   0.47913   0.00000  Uiso   1.00
C198   C     0.49853   0.25117   0.52021   0.00000  Uiso   1.00
C199   C     0.25057   0.00086   0.47897   0.00000  Uiso   1.00
C200   C     0.25045   0.00105   0.52008   0.00000  Uiso   1.00
C201   C     0.25000   0.49999   0.97896   0.00000  Uiso   1.00
C202   C     0.25000  -0.00000   0.02005   0.00000  Uiso   1.00
C203   C     0.00201   0.25260   0.97912   0.00000  Uiso   1.00
C204   C     0.00150   0.25265   0.02022   0.00000  Uiso   1.00
C205   C     0.42300   0.18134   0.46107   0.00000  Uiso   1.00
H206   H     0.40921   0.20017   0.44052   0.00000  Uiso   1.00
H207   H     0.43082   0.15539   0.44679   0.00000  Uiso   1.00
H208   H     0.40194   0.17480   0.48319   0.00000  Uiso   1.00
C209   C     0.04194   0.34401   0.53941   0.00000  Uiso   1.00
H210   H     0.02059   0.34991   0.56134   0.00000  Uiso   1.00
H211   H     0.06965   0.34510   0.55232   0.00000  Uiso   1.00
H212   H     0.03967   0.36670   0.51816   0.00000  Uiso   1.00
C213   C     0.32045   0.42454   0.46226   0.00000  Uiso   1.00
H214   H     0.30147   0.40990   0.44259   0.00000  Uiso   1.00
H215   H     0.34604   0.43235   0.44723   0.00000  Uiso   1.00
H216   H     0.32776   0.40418   0.48485   0.00000  Uiso   1.00
C217   C     0.16063   0.05347   0.53737   0.00000  Uiso   1.00
H218   H     0.13864   0.05675   0.51547   0.00000  Uiso   1.00
H219   H     0.15009   0.03278   0.55809   0.00000  Uiso   1.00
H220   H     0.16468   0.08021   0.55187   0.00000  Uiso   1.00
C221   C     0.06885   0.32803   0.46110   0.00000  Uiso   1.00
H222   H     0.08473   0.31159   0.43996   0.00000  Uiso   1.00
H223   H     0.05659   0.35232   0.44691   0.00000  Uiso   1.00
H224   H     0.08927   0.33773   0.48254   0.00000  Uiso   1.00
C225   C     0.45182   0.15896   0.53713   0.00000  Uiso   1.00
H226   H     0.47394   0.15026   0.55708   0.00000  Uiso   1.00
H227   H     0.42492   0.15940   0.55185   0.00000  Uiso   1.00
H228   H     0.45072   0.13726   0.51469   0.00000  Uiso   1.00
C229   C     0.18341   0.07867   0.46033   0.00000  Uiso   1.00
H230   H     0.20266   0.09103   0.43923   0.00000  Uiso   1.00
H231   H     0.15687   0.07209   0.44655   0.00000  Uiso   1.00
H232   H     0.17853   0.10048   0.48208   0.00000  Uiso   1.00
C233   C     0.34264   0.45500   0.53765   0.00000  Uiso   1.00
H234   H     0.35074   0.47724   0.55770   0.00000  Uiso   1.00
H235   H     0.34283   0.42805   0.55230   0.00000  Uiso   1.00
H236   H     0.36439   0.45450   0.51521   0.00000  Uiso   1.00
C237   C     0.16942   0.43535   0.96146   0.00000  Uiso   1.00
H238   H     0.15660   0.45510   0.94120   0.00000  Uiso   1.00
H239   H     0.17557   0.40907   0.94695   0.00000  Uiso   1.00
H240   H     0.14819   0.42989   0.98372   0.00000  Uiso   1.00
C241   C     0.30301   0.08846   0.03741   0.00000  Uiso   1.00
H242   H     0.28168   0.09819   0.05778   0.00000  Uiso   1.00
H243   H     0.33002   0.08639   0.05174   0.00000  Uiso   1.00
H244   H     0.30502   0.11026   0.01510   0.00000  Uiso   1.00
C245   C     0.08241   0.18644   0.96186   0.00000  Uiso   1.00
H246   H     0.09381   0.16722   0.98362   0.00000  Uiso   1.00
H247   H     0.06689   0.16899   0.94134   0.00000  Uiso   1.00
H248   H     0.10561   0.20008   0.94706   0.00000  Uiso   1.00
C249   C     0.40874   0.30006   0.03703   0.00000  Uiso   1.00
H250   H     0.38680   0.30289   0.01501   0.00000  Uiso   1.00
H251   H     0.39878   0.27867   0.05726   0.00000  Uiso   1.00
H252   H     0.41169   0.32670   0.05203   0.00000  Uiso   1.00
C253   C     0.33059   0.06463   0.96137   0.00000  Uiso   1.00
H254   H     0.34341   0.04488   0.94115   0.00000  Uiso   1.00
H255   H     0.32445   0.09091   0.94681   0.00000  Uiso   1.00
H256   H     0.35182   0.07009   0.98363   0.00000  Uiso   1.00
C257   C     0.19699   0.41153   0.03756   0.00000  Uiso   1.00
H258   H     0.21832   0.40181   0.05796   0.00000  Uiso   1.00
H259   H     0.16998   0.41361   0.05188   0.00000  Uiso   1.00
H260   H     0.19498   0.38973   0.01529   0.00000  Uiso   1.00
C261   C     0.43048   0.32598   0.95991   0.00000  Uiso   1.00
H262   H     0.44898   0.33896   0.93847   0.00000  Uiso   1.00
H263   H     0.40416   0.31808   0.94643   0.00000  Uiso   1.00
H264   H     0.42483   0.34777   0.98148   0.00000  Uiso   1.00
C265   C     0.09691   0.21556   0.03961   0.00000  Uiso   1.00
H266   H     0.10134   0.23749   0.06128   0.00000  Uiso   1.00
H267   H     0.10006   0.18813   0.05282   0.00000  Uiso   1.00
H268   H     0.11927   0.21927   0.01822   0.00000  Uiso   1.00
N269   N     0.15258   0.40286   0.17865   0.00000  Uiso   1.00
H270   H     0.16396   0.38127   0.16297   0.00000  Uiso   1.00
H271   H     0.13130   0.41427   0.16250   0.00000  Uiso   1.00
N272   N     0.34743   0.09713   0.82134   0.00000  Uiso   1.00
H273   H     0.33604   0.11871   0.83703   0.00000  Uiso   1.00
H274   H     0.36872   0.08573   0.83750   0.00000  Uiso   1.00
N275   N     0.09725   0.15272   0.17866   0.00000  Uiso   1.00
H276   H     0.11886   0.16413   0.16301   0.00000  Uiso   1.00
H277   H     0.08587   0.13147   0.16247   0.00000  Uiso   1.00
N278   N     0.40276   0.34731   0.82134   0.00000  Uiso   1.00
H279   H     0.38116   0.33590   0.83699   0.00000  Uiso   1.00
H280   H     0.41414   0.36856   0.83752   0.00000  Uiso   1.00
N281   N     0.34747   0.09719   0.17865   0.00000  Uiso   1.00
H282   H     0.33609   0.11878   0.16295   0.00000  Uiso   1.00
H283   H     0.36877   0.08580   0.16253   0.00000  Uiso   1.00
N284   N     0.15261   0.40272   0.82135   0.00000  Uiso   1.00
H285   H     0.16402   0.38112   0.83701   0.00000  Uiso   1.00
H286   H     0.13132   0.41407   0.83752   0.00000  Uiso   1.00
N287   N     0.40277   0.34743   0.17866   0.00000  Uiso   1.00
H288   H     0.38117   0.33602   0.16301   0.00000  Uiso   1.00
H289   H     0.41413   0.36871   0.16247   0.00000  Uiso   1.00
N290   N     0.09728   0.15260   0.82134   0.00000  Uiso   1.00
H291   H     0.11889   0.16402   0.83696   0.00000  Uiso   1.00
H292   H     0.08593   0.13132   0.83755   0.00000  Uiso   1.00
N293   N     0.15263   0.09723   0.82135   0.00000  Uiso   1.00
H294   H     0.16400   0.11885   0.83698   0.00000  Uiso   1.00
H295   H     0.13134   0.08586   0.83751   0.00000  Uiso   1.00
N296   N     0.34740   0.40278   0.17865   0.00000  Uiso   1.00
H297   H     0.33603   0.38117   0.16301   0.00000  Uiso   1.00
H298   H     0.36869   0.41416   0.16250   0.00000  Uiso   1.00
N299   N     0.09727   0.34734   0.82135   0.00000  Uiso   1.00
H300   H     0.11890   0.33595   0.83700   0.00000  Uiso   1.00
H301   H     0.08591   0.36862   0.83751   0.00000  Uiso   1.00
N302   N     0.40281   0.15256   0.17865   0.00000  Uiso   1.00
H303   H     0.38120   0.16393   0.16297   0.00000  Uiso   1.00
H304   H     0.41418   0.13126   0.16254   0.00000  Uiso   1.00
N305   N     0.34745   0.40272   0.82135   0.00000  Uiso   1.00
H306   H     0.33607   0.38109   0.83701   0.00000  Uiso   1.00
H307   H     0.36877   0.41405   0.83750   0.00000  Uiso   1.00
N308   N     0.15256   0.09730   0.17865   0.00000  Uiso   1.00
H309   H     0.16394   0.11892   0.16300   0.00000  Uiso   1.00
H310   H     0.13124   0.08597   0.16250   0.00000  Uiso   1.00
N311   N     0.40282   0.15246   0.82135   0.00000  Uiso   1.00
H312   H     0.38121   0.16382   0.83702   0.00000  Uiso   1.00
H313   H     0.41417   0.13113   0.83748   0.00000  Uiso   1.00
N314   N     0.09720   0.34752   0.17864   0.00000  Uiso   1.00
H315   H     0.11881   0.33615   0.16299   0.00000  Uiso   1.00
H316   H     0.08585   0.36885   0.16250   0.00000  Uiso   1.00
N317   N     0.40256   0.15288   0.67865   0.00000  Uiso   1.00
H318   H     0.41393   0.13130   0.66296   0.00000  Uiso   1.00
H319   H     0.38127   0.16430   0.66251   0.00000  Uiso   1.00
N320   N     0.09736   0.34721   0.32134   0.00000  Uiso   1.00
H321   H     0.08595   0.36880   0.33698   0.00000  Uiso   1.00
H322   H     0.11863   0.33582   0.33753   0.00000  Uiso   1.00
N323   N     0.34721   0.40268   0.67865   0.00000  Uiso   1.00
H324   H     0.36882   0.41408   0.66299   0.00000  Uiso   1.00
H325   H     0.33582   0.38142   0.66249   0.00000  Uiso   1.00
N326   N     0.15275   0.09729   0.32134   0.00000  Uiso   1.00
H327   H     0.13114   0.08588   0.33698   0.00000  Uiso   1.00
H328   H     0.16412   0.11854   0.33753   0.00000  Uiso   1.00
N329   N     0.09740   0.34726   0.67866   0.00000  Uiso   1.00
H330   H     0.08599   0.36887   0.66299   0.00000  Uiso   1.00
H331   H     0.11867   0.33590   0.66249   0.00000  Uiso   1.00
N332   N     0.40256   0.15277   0.32135   0.00000  Uiso   1.00
H333   H     0.41397   0.13117   0.33703   0.00000  Uiso   1.00
H334   H     0.38127   0.16413   0.33750   0.00000  Uiso   1.00
N335   N     0.15279   0.09745   0.67865   0.00000  Uiso   1.00
H336   H     0.13120   0.08605   0.66299   0.00000  Uiso   1.00
H337   H     0.16416   0.11874   0.66248   0.00000  Uiso   1.00
N338   N     0.34727   0.40259   0.32135   0.00000  Uiso   1.00
H339   H     0.36888   0.41401   0.33698   0.00000  Uiso   1.00
H340   H     0.33593   0.38131   0.33755   0.00000  Uiso   1.00
N341   N     0.40265   0.34725   0.32135   0.00000  Uiso   1.00
H342   H     0.41403   0.36887   0.33698   0.00000  Uiso   1.00
H343   H     0.38137   0.33588   0.33753   0.00000  Uiso   1.00
N344   N     0.09741   0.15279   0.67864   0.00000  Uiso   1.00
H345   H     0.08604   0.13118   0.66300   0.00000  Uiso   1.00
H346   H     0.11870   0.16417   0.66249   0.00000  Uiso   1.00
N347   N     0.34721   0.09741   0.32135   0.00000  Uiso   1.00
H348   H     0.36882   0.08604   0.33703   0.00000  Uiso   1.00
H349   H     0.33583   0.11871   0.33747   0.00000  Uiso   1.00
N350   N     0.15275   0.40262   0.67865   0.00000  Uiso   1.00
H351   H     0.13113   0.41400   0.66300   0.00000  Uiso   1.00
H352   H     0.16411   0.38133   0.66251   0.00000  Uiso   1.00
N353   N     0.09743   0.15269   0.32135   0.00000  Uiso   1.00
H354   H     0.08604   0.13106   0.33699   0.00000  Uiso   1.00
H355   H     0.11873   0.16402   0.33751   0.00000  Uiso   1.00
N356   N     0.40253   0.34727   0.67864   0.00000  Uiso   1.00
H357   H     0.41391   0.36889   0.66299   0.00000  Uiso   1.00
H358   H     0.38121   0.33594   0.66250   0.00000  Uiso   1.00
N359   N     0.15277   0.40251   0.32135   0.00000  Uiso   1.00
H360   H     0.13115   0.41388   0.33700   0.00000  Uiso   1.00
H361   H     0.16411   0.38119   0.33750   0.00000  Uiso   1.00
N362   N     0.34716   0.09756   0.67864   0.00000  Uiso   1.00
H363   H     0.36876   0.08621   0.66296   0.00000  Uiso   1.00
H364   H     0.33580   0.11890   0.66253   0.00000  Uiso   1.00
N365   N     0.02886   0.31104   0.39641   0.00000  Uiso   1.00
H366   H     0.04993   0.30339   0.37769   0.00000  Uiso   1.00
H367   H     0.00711   0.32135   0.38008   0.00000  Uiso   1.00
N368   N     0.44883   0.20754   0.60358   0.00000  Uiso   1.00
H369   H     0.45631   0.18056   0.60905   0.00000  Uiso   1.00
H370   H     0.42349   0.20978   0.58986   0.00000  Uiso   1.00
N371   N     0.19039   0.02804   0.39553   0.00000  Uiso   1.00
H372   H     0.19057   0.05580   0.38876   0.00000  Uiso   1.00
H373   H     0.16676   0.02033   0.41042   0.00000  Uiso   1.00
N374   N     0.29349   0.45065   0.60353   0.00000  Uiso   1.00
H375   H     0.32027   0.45864   0.60929   0.00000  Uiso   1.00
H376   H     0.29188   0.42538   0.58959   0.00000  Uiso   1.00
N377   N     0.47249   0.19083   0.39569   0.00000  Uiso   1.00
H378   H     0.44462   0.19027   0.38953   0.00000  Uiso   1.00
H379   H     0.48126   0.16734   0.41016   0.00000  Uiso   1.00
N380   N     0.05106   0.29221   0.60284   0.00000  Uiso   1.00
H381   H     0.04330   0.31860   0.61063   0.00000  Uiso   1.00
H382   H     0.07546   0.29179   0.58713   0.00000  Uiso   1.00
N383   N     0.30965   0.47172   0.39524   0.00000  Uiso   1.00
H384   H     0.30986   0.44366   0.39022   0.00000  Uiso   1.00
H385   H     0.33351   0.48089   0.40870   0.00000  Uiso   1.00
N386   N     0.20244   0.04812   0.60240   0.00000  Uiso   1.00
H387   H     0.21882   0.06820   0.61504   0.00000  Uiso   1.00
H388   H     0.18763   0.03420   0.62370   0.00000  Uiso   1.00
N389   N     0.28142   0.05798   0.89538   0.00000  Uiso   1.00
H390   H     0.30934   0.05658   0.88965   0.00000  Uiso   1.00
H391   H     0.27405   0.08215   0.90943   0.00000  Uiso   1.00
N392   N     0.19606   0.46125   0.10311   0.00000  Uiso   1.00
H393   H     0.20162   0.43391   0.10917   0.00000  Uiso   1.00
H394   H     0.17118   0.46494   0.08880   0.00000  Uiso   1.00
N395   N     0.43969   0.27487   0.89579   0.00000  Uiso   1.00
H396   H     0.43830   0.30249   0.88858   0.00000  Uiso   1.00
H397   H     0.41664   0.26613   0.91106   0.00000  Uiso   1.00
N398   N     0.04609   0.20324   0.10325   0.00000  Uiso   1.00
H399   H     0.07185   0.21304   0.11083   0.00000  Uiso   1.00
H400   H     0.04741   0.17874   0.08781   0.00000  Uiso   1.00
N401   N     0.21859   0.44201   0.89547   0.00000  Uiso   1.00
H402   H     0.19068   0.44340   0.88973   0.00000  Uiso   1.00
H403   H     0.22597   0.41784   0.90957   0.00000  Uiso   1.00
N404   N     0.30393   0.03875   0.10305   0.00000  Uiso   1.00
H405   H     0.29837   0.06609   0.10907   0.00000  Uiso   1.00
H406   H     0.32882   0.03506   0.08876   0.00000  Uiso   1.00
N407   N     0.06207   0.22337   0.89629   0.00000  Uiso   1.00
H408   H     0.07154   0.24526   0.87961   0.00000  Uiso   1.00
H409   H     0.05484   0.20191   0.87787   0.00000  Uiso   1.00
N410   N     0.44966   0.29531   0.10273   0.00000  Uiso   1.00
H411   H     0.46468   0.31607   0.11602   0.00000  Uiso   1.00
H412   H     0.43561   0.28011   0.12362   0.00000  Uiso   1.00
Zn413  Zn    0.70659   0.00000   0.21735   0.00000  Uiso   1.00
Zn414  Zn    0.79340   0.00000   0.78265   0.00000  Uiso   1.00
Zn415  Zn    0.50000   0.20660   0.21735   0.00000  Uiso   1.00
Zn416  Zn    0.50000   0.29340   0.78265   0.00000  Uiso   1.00
Zn417  Zn    0.79340   0.00000   0.21735   0.00000  Uiso   1.00
Zn418  Zn    0.70659   0.00000   0.78265   0.00000  Uiso   1.00
Zn419  Zn    0.50000   0.29340   0.21735   0.00000  Uiso   1.00
Zn420  Zn    0.50000   0.20660   0.78265   0.00000  Uiso   1.00
Zn421  Zn    0.95659   0.25000   0.71735   0.00000  Uiso   1.00
Zn422  Zn    0.54340   0.25000   0.28265   0.00000  Uiso   1.00
Zn423  Zn    0.75000   0.45659   0.71735   0.00000  Uiso   1.00
Zn424  Zn    0.75000   0.04341   0.28265   0.00000  Uiso   1.00
Zn425  Zn    0.54340   0.25000   0.71735   0.00000  Uiso   1.00
Zn426  Zn    0.95659   0.25000   0.28265   0.00000  Uiso   1.00
Zn427  Zn    0.75000   0.04341   0.71735   0.00000  Uiso   1.00
Zn428  Zn    0.75000   0.45659   0.28265   0.00000  Uiso   1.00
C429   C     0.51665   0.27962   0.41779   0.00000  Uiso   1.00
C430   C     0.97649   0.22622   0.58163   0.00000  Uiso   1.00
C431   C     0.72235   0.01823   0.41745   0.00000  Uiso   1.00
C432   C     0.77442   0.47813   0.58166   0.00000  Uiso   1.00
C433   C     0.98185   0.22289   0.41761   0.00000  Uiso   1.00
C434   C     0.52245   0.27428   0.58156   0.00000  Uiso   1.00
C435   C     0.77817   0.48218   0.41754   0.00000  Uiso   1.00
C436   C     0.72501   0.02287   0.58137   0.00000  Uiso   1.00
C437   C     0.76959   0.02684   0.91750   0.00000  Uiso   1.00
C438   C     0.72533   0.47767   0.08146   0.00000  Uiso   1.00
C439   C     0.97233   0.26716   0.91754   0.00000  Uiso   1.00
C440   C     0.52593   0.23023   0.08176   0.00000  Uiso   1.00
C441   C     0.73043   0.47314   0.91754   0.00000  Uiso   1.00
C442   C     0.77466   0.02233   0.08143   0.00000  Uiso   1.00
C443   C     0.53049   0.23483   0.91783   0.00000  Uiso   1.00
C444   C     0.97395   0.27188   0.08148   0.00000  Uiso   1.00
C445   C     0.99984   0.25084   0.39792   0.00000  Uiso   1.00
C446   C     0.99982   0.24997   0.60160   0.00000  Uiso   1.00
C447   C     0.75011   0.49999   0.39784   0.00000  Uiso   1.00
C448   C     0.74963   0.00034   0.60156   0.00000  Uiso   1.00
C449   C     0.75001   0.49999   0.89786   0.00000  Uiso   1.00
C450   C     0.75000   0.00000   0.10149   0.00000  Uiso   1.00
C451   C     0.50089   0.25017   0.89792   0.00000  Uiso   1.00
C452   C     0.99960   0.25051   0.10164   0.00000  Uiso   1.00
O453   O     0.75000   0.00000   0.25000   0.00000  Uiso   1.00
O454   O     0.75000   0.00000   0.75000   0.00000  Uiso   1.00
O455   O     0.50000   0.25000   0.25000   0.00000  Uiso   1.00
O456   O     0.50000   0.25000   0.75000   0.00000  Uiso   1.00
O457   O     0.75000   0.46963   0.33755   0.00000  Uiso   1.00
O458   O     0.75000   0.03037   0.66245   0.00000  Uiso   1.00
O459   O     0.53036   0.25000   0.33755   0.00000  Uiso   1.00
O460   O     0.96963   0.25000   0.66245   0.00000  Uiso   1.00
O461   O     0.75000   0.03037   0.33755   0.00000  Uiso   1.00
O462   O     0.75000   0.46963   0.66245   0.00000  Uiso   1.00
O463   O     0.96963   0.25000   0.33755   0.00000  Uiso   1.00
O464   O     0.53036   0.25000   0.66245   0.00000  Uiso   1.00
O465   O     0.50000   0.21964   0.83755   0.00000  Uiso   1.00
O466   O     0.50000   0.28036   0.16245   0.00000  Uiso   1.00
O467   O     0.78036   0.00000   0.83755   0.00000  Uiso   1.00
O468   O     0.71963   0.00000   0.16245   0.00000  Uiso   1.00
O469   O     0.50000   0.28036   0.83755   0.00000  Uiso   1.00
O470   O     0.50000   0.21963   0.16245   0.00000  Uiso   1.00
O471   O     0.71963   0.00000   0.83755   0.00000  Uiso   1.00
O472   O     0.78036   0.00000   0.16245   0.00000  Uiso   1.00
O473   O     0.70724   0.07308   0.27302   0.00000  Uiso   1.00
O474   O     0.79275   0.42692   0.72698   0.00000  Uiso   1.00
O475   O     0.92692   0.20725   0.27302   0.00000  Uiso   1.00
O476   O     0.57307   0.29275   0.72698   0.00000  Uiso   1.00
O477   O     0.79275   0.42692   0.27302   0.00000  Uiso   1.00
O478   O     0.70724   0.07308   0.72698   0.00000  Uiso   1.00
O479   O     0.57307   0.29275   0.27302   0.00000  Uiso   1.00
O480   O     0.92692   0.20725   0.72698   0.00000  Uiso   1.00
O481   O     0.70724   0.42692   0.72698   0.00000  Uiso   1.00
O482   O     0.79275   0.07308   0.27302   0.00000  Uiso   1.00
O483   O     0.92692   0.29275   0.72698   0.00000  Uiso   1.00
O484   O     0.57307   0.20724   0.27302   0.00000  Uiso   1.00
O485   O     0.79275   0.07308   0.72698   0.00000  Uiso   1.00
O486   O     0.70724   0.42692   0.27302   0.00000  Uiso   1.00
O487   O     0.57307   0.20724   0.72698   0.00000  Uiso   1.00
O488   O     0.92692   0.29275   0.27302   0.00000  Uiso   1.00
O489   O     0.95724   0.32307   0.77302   0.00000  Uiso   1.00
O490   O     0.54275   0.17692   0.22698   0.00000  Uiso   1.00
O491   O     0.67692   0.45724   0.77302   0.00000  Uiso   1.00
O492   O     0.82307   0.04276   0.22698   0.00000  Uiso   1.00
O493   O     0.54275   0.17692   0.77302   0.00000  Uiso   1.00
O494   O     0.95724   0.32307   0.22698   0.00000  Uiso   1.00
O495   O     0.82307   0.04276   0.77302   0.00000  Uiso   1.00
O496   O     0.67692   0.45724   0.22698   0.00000  Uiso   1.00
O497   O     0.95724   0.17693   0.22698   0.00000  Uiso   1.00
O498   O     0.54275   0.32307   0.77302   0.00000  Uiso   1.00
O499   O     0.67692   0.04276   0.22698   0.00000  Uiso   1.00
O500   O     0.82307   0.45724   0.77302   0.00000  Uiso   1.00
O501   O     0.54275   0.32307   0.22698   0.00000  Uiso   1.00
O502   O     0.95724   0.17693   0.77302   0.00000  Uiso   1.00
O503   O     0.82307   0.45724   0.22698   0.00000  Uiso   1.00
O504   O     0.67692   0.04276   0.77302   0.00000  Uiso   1.00
C505   C     0.95583   0.19984   0.47932   0.00000  Uiso   1.00
C506   C     0.53497   0.30734   0.52030   0.00000  Uiso   1.00
C507   C     0.80172   0.45757   0.47982   0.00000  Uiso   1.00
C508   C     0.69604   0.04041   0.51908   0.00000  Uiso   1.00
C509   C     0.53942   0.30478   0.47994   0.00000  Uiso   1.00
C510   C     0.96077   0.19583   0.51943   0.00000  Uiso   1.00
C511   C     0.70023   0.04507   0.47894   0.00000  Uiso   1.00
C512   C     0.80563   0.46310   0.51983   0.00000  Uiso   1.00
C513   C     0.70346   0.45176   0.97949   0.00000  Uiso   1.00
C514   C     0.79180   0.05233   0.01951   0.00000  Uiso   1.00
C515   C     0.55735   0.21454   0.98031   0.00000  Uiso   1.00
C516   C     0.94477   0.28859   0.01892   0.00000  Uiso   1.00
C517   C     0.79655   0.04823   0.97941   0.00000  Uiso   1.00
C518   C     0.70820   0.44766   0.01959   0.00000  Uiso   1.00
C519   C     0.94890   0.29336   0.97877   0.00000  Uiso   1.00
C520   C     0.55976   0.21969   0.02059   0.00000  Uiso   1.00
C521   C     0.75001   0.49998   0.35568   0.00000  Uiso   1.00
C522   C     0.74974   0.00006   0.64410   0.00000  Uiso   1.00
C523   C     0.50001   0.25032   0.35571   0.00000  Uiso   1.00
C524   C     0.99998   0.24991   0.64411   0.00000  Uiso   1.00
C525   C     0.50030   0.24998   0.85571   0.00000  Uiso   1.00
C526   C     0.99966   0.25008   0.14413   0.00000  Uiso   1.00
C527   C     0.75000  -0.00000   0.85569   0.00000  Uiso   1.00
C528   C     0.75000  -0.00000   0.14407   0.00000  Uiso   1.00
C529   C     0.67999   0.07000   0.24999   0.00000  Uiso   1.00
C530   C     0.82000   0.43000   0.75001   0.00000  Uiso   1.00
C531   C     0.92999   0.18000   0.25000   0.00000  Uiso   1.00
C532   C     0.57001   0.31999   0.75000   0.00000  Uiso   1.00
C533   C     0.82000   0.42999   0.25000   0.00000  Uiso   1.00
C534   C     0.68000   0.07001   0.75000   0.00000  Uiso   1.00
C535   C     0.57000   0.32001   0.25000   0.00000  Uiso   1.00
C536   C     0.93000   0.17999   0.75001   0.00000  Uiso   1.00
C537   C     0.67999   0.43000   0.75000   0.00000  Uiso   1.00
C538   C     0.82001   0.06999   0.25000   0.00000  Uiso   1.00
C539   C     0.92999   0.32000   0.74999   0.00000  Uiso   1.00
C540   C     0.57000   0.18000   0.25001   0.00000  Uiso   1.00
C541   C     0.82000   0.07001   0.74999   0.00000  Uiso   1.00
C542   C     0.68000   0.42999   0.25000   0.00000  Uiso   1.00
C543   C     0.57000   0.17999   0.75000   0.00000  Uiso   1.00
C544   C     0.93000   0.32001   0.25000   0.00000  Uiso   1.00
C545   C     0.63811   0.38901   0.21449   0.00000  Uiso   1.00
C546   C     0.86189   0.11099   0.78550   0.00000  Uiso   1.00
C547   C     0.61104   0.13818   0.21449   0.00000  Uiso   1.00
C548   C     0.88896   0.36183   0.78550   0.00000  Uiso   1.00
C549   C     0.86191   0.11101   0.21449   0.00000  Uiso   1.00
C550   C     0.63813   0.38894   0.78551   0.00000  Uiso   1.00
C551   C     0.88896   0.36189   0.21449   0.00000  Uiso   1.00
C552   C     0.61106   0.13812   0.78550   0.00000  Uiso   1.00
C553   C     0.63815   0.11104   0.78551   0.00000  Uiso   1.00
C554   C     0.86187   0.38897   0.21449   0.00000  Uiso   1.00
C555   C     0.61106   0.36184   0.78551   0.00000  Uiso   1.00
C556   C     0.88899   0.13811   0.21449   0.00000  Uiso   1.00
C557   C     0.86190   0.38894   0.78551   0.00000  Uiso   1.00
C558   C     0.63811   0.11107   0.21449   0.00000  Uiso   1.00
C559   C     0.88898   0.13806   0.78551   0.00000  Uiso   1.00
C560   C     0.61102   0.36193   0.21449   0.00000  Uiso   1.00
C561   C     0.88810   0.13902   0.71449   0.00000  Uiso   1.00
C562   C     0.61186   0.36102   0.28550   0.00000  Uiso   1.00
C563   C     0.86103   0.38816   0.71449   0.00000  Uiso   1.00
C564   C     0.63895   0.11182   0.28550   0.00000  Uiso   1.00
C565   C     0.61188   0.36105   0.71450   0.00000  Uiso   1.00
C566   C     0.88811   0.13897   0.28551   0.00000  Uiso   1.00
C567   C     0.63897   0.11190   0.71449   0.00000  Uiso   1.00
C568   C     0.86106   0.38812   0.28551   0.00000  Uiso   1.00
C569   C     0.88816   0.36105   0.28551   0.00000  Uiso   1.00
C570   C     0.61188   0.13897   0.71449   0.00000  Uiso   1.00
C571   C     0.86103   0.11187   0.28551   0.00000  Uiso   1.00
C572   C     0.63895   0.38814   0.71450   0.00000  Uiso   1.00
C573   C     0.61188   0.13892   0.28551   0.00000  Uiso   1.00
C574   C     0.88809   0.36106   0.71449   0.00000  Uiso   1.00
C575   C     0.63896   0.38809   0.28551   0.00000  Uiso   1.00
C576   C     0.86100   0.11195   0.71449   0.00000  Uiso   1.00
C577   C     0.97796   0.22480   0.45844   0.00000  Uiso   1.00
C578   C     0.51855   0.27815   0.54089   0.00000  Uiso   1.00
C579   C     0.77681   0.47944   0.45854   0.00000  Uiso   1.00
C580   C     0.72321   0.02119   0.54041   0.00000  Uiso   1.00
C581   C     0.51877   0.27868   0.45874   0.00000  Uiso   1.00
C582   C     0.97881   0.22369   0.54065   0.00000  Uiso   1.00
C583   C     0.72436   0.02200   0.45825   0.00000  Uiso   1.00
C584   C     0.77749   0.48097   0.54078   0.00000  Uiso   1.00
C585   C     0.72723   0.47502   0.95843   0.00000  Uiso   1.00
C586   C     0.77198   0.02558   0.04057   0.00000  Uiso   1.00
C587   C     0.53000   0.23335   0.95887   0.00000  Uiso   1.00
C588   C     0.97276   0.27075   0.04043   0.00000  Uiso   1.00
C589   C     0.77278   0.02496   0.95839   0.00000  Uiso   1.00
C590   C     0.72801   0.47441   0.04061   0.00000  Uiso   1.00
C591   C     0.97437   0.27164   0.95826   0.00000  Uiso   1.00
C592   C     0.52959   0.23431   0.04108   0.00000  Uiso   1.00
C593   C     0.59808   0.34811   0.24999   0.00000  Uiso   1.00
C594   C     0.90192   0.15190   0.75000   0.00000  Uiso   1.00
C595   C     0.65190   0.09808   0.24999   0.00000  Uiso   1.00
C596   C     0.84810   0.40192   0.75000   0.00000  Uiso   1.00
C597   C     0.90190   0.15192   0.25000   0.00000  Uiso   1.00
C598   C     0.59810   0.34807   0.75000   0.00000  Uiso   1.00
C599   C     0.84809   0.40190   0.25000   0.00000  Uiso   1.00
C600   C     0.65193   0.09811   0.75000   0.00000  Uiso   1.00
C601   C     0.59809   0.15190   0.75000   0.00000  Uiso   1.00
C602   C     0.90193   0.34811   0.25000   0.00000  Uiso   1.00
C603   C     0.65190   0.40191   0.75000   0.00000  Uiso   1.00
C604   C     0.84810   0.09807   0.25000   0.00000  Uiso   1.00
C605   C     0.90189   0.34808   0.74999   0.00000  Uiso   1.00
C606   C     0.59810   0.15193   0.25001   0.00000  Uiso   1.00
C607   C     0.84808   0.09810   0.74999   0.00000  Uiso   1.00
C608   C     0.65191   0.40191   0.25000   0.00000  Uiso   1.00
C609   C     0.99840   0.25158   0.47913   0.00000  Uiso   1.00
C610   C     0.99853   0.25117   0.52021   0.00000  Uiso   1.00
C611   C     0.75057   0.00086   0.47897   0.00000  Uiso   1.00
C612   C     0.75045   0.00105   0.52008   0.00000  Uiso   1.00
C613   C     0.75000   0.49999   0.97896   0.00000  Uiso   1.00
C614   C     0.75000  -0.00000   0.02005   0.00000  Uiso   1.00
C615   C     0.50201   0.25260   0.97912   0.00000  Uiso   1.00
C616   C     0.50150   0.25265   0.02022   0.00000  Uiso   1.00
C617   C     0.92300   0.18134   0.46107   0.00000  Uiso   1.00
H618   H     0.90921   0.20017   0.44052   0.00000  Uiso   1.00
H619   H     0.93082   0.15539   0.44679   0.00000  Uiso   1.00
H620   H     0.90194   0.17480   0.48319   0.00000  Uiso   1.00
C621   C     0.54194   0.34401   0.53941   0.00000  Uiso   1.00
H622   H     0.52059   0.34991   0.56134   0.00000  Uiso   1.00
H623   H     0.56965   0.34510   0.55232   0.00000  Uiso   1.00
H624   H     0.53967   0.36670   0.51816   0.00000  Uiso   1.00
C625   C     0.82045   0.42454   0.46226   0.00000  Uiso   1.00
H626   H     0.80147   0.40990   0.44259   0.00000  Uiso   1.00
H627   H     0.84604   0.43235   0.44723   0.00000  Uiso   1.00
H628   H     0.82776   0.40418   0.48485   0.00000  Uiso   1.00
C629   C     0.66063   0.05347   0.53737   0.00000  Uiso   1.00
H630   H     0.63864   0.05675   0.51547   0.00000  Uiso   1.00
H631   H     0.65009   0.03278   0.55809   0.00000  Uiso   1.00
H632   H     0.66468   0.08021   0.55187   0.00000  Uiso   1.00
C633   C     0.56885   0.32803   0.46110   0.00000  Uiso   1.00
H634   H     0.58473   0.31159   0.43996   0.00000  Uiso   1.00
H635   H     0.55659   0.35232   0.44691   0.00000  Uiso   1.00
H636   H     0.58927   0.33773   0.48254   0.00000  Uiso   1.00
C637   C     0.95182   0.15896   0.53713   0.00000  Uiso   1.00
H638   H     0.97394   0.15026   0.55708   0.00000  Uiso   1.00
H639   H     0.92492   0.15940   0.55185   0.00000  Uiso   1.00
H640   H     0.95072   0.13726   0.51469   0.00000  Uiso   1.00
C641   C     0.68341   0.07867   0.46033   0.00000  Uiso   1.00
H642   H     0.70266   0.09103   0.43923   0.00000  Uiso   1.00
H643   H     0.65687   0.07209   0.44655   0.00000  Uiso   1.00
H644   H     0.67853   0.10048   0.48208   0.00000  Uiso   1.00
C645   C     0.84264   0.45500   0.53765   0.00000  Uiso   1.00
H646   H     0.85074   0.47724   0.55770   0.00000  Uiso   1.00
H647   H     0.84283   0.42805   0.55230   0.00000  Uiso   1.00
H648   H     0.86439   0.45450   0.51521   0.00000  Uiso   1.00
C649   C     0.66942   0.43535   0.96146   0.00000  Uiso   1.00
H650   H     0.65660   0.45510   0.94120   0.00000  Uiso   1.00
H651   H     0.67557   0.40907   0.94695   0.00000  Uiso   1.00
H652   H     0.64819   0.42989   0.98372   0.00000  Uiso   1.00
C653   C     0.80301   0.08846   0.03741   0.00000  Uiso   1.00
H654   H     0.78168   0.09819   0.05778   0.00000  Uiso   1.00
H655   H     0.83002   0.08639   0.05174   0.00000  Uiso   1.00
H656   H     0.80502   0.11026   0.01510   0.00000  Uiso   1.00
C657   C     0.58241   0.18644   0.96186   0.00000  Uiso   1.00
H658   H     0.59381   0.16722   0.98362   0.00000  Uiso   1.00
H659   H     0.56689   0.16899   0.94134   0.00000  Uiso   1.00
H660   H     0.60561   0.20008   0.94706   0.00000  Uiso   1.00
C661   C     0.90874   0.30006   0.03703   0.00000  Uiso   1.00
H662   H     0.88680   0.30289   0.01501   0.00000  Uiso   1.00
H663   H     0.89878   0.27867   0.05726   0.00000  Uiso   1.00
H664   H     0.91169   0.32670   0.05203   0.00000  Uiso   1.00
C665   C     0.83059   0.06463   0.96137   0.00000  Uiso   1.00
H666   H     0.84341   0.04488   0.94115   0.00000  Uiso   1.00
H667   H     0.82445   0.09091   0.94681   0.00000  Uiso   1.00
H668   H     0.85182   0.07009   0.98363   0.00000  Uiso   1.00
C669   C     0.69699   0.41153   0.03756   0.00000  Uiso   1.00
H670   H     0.71832   0.40181   0.05796   0.00000  Uiso   1.00
H671   H     0.66998   0.41361   0.05188   0.00000  Uiso   1.00
H672   H     0.69498   0.38973   0.01529   0.00000  Uiso   1.00
C673   C     0.93048   0.32598   0.95991   0.00000  Uiso   1.00
H674   H     0.94898   0.33896   0.93847   0.00000  Uiso   1.00
H675   H     0.90416   0.31808   0.94643   0.00000  Uiso   1.00
H676   H     0.92483   0.34777   0.98148   0.00000  Uiso   1.00
C677   C     0.59691   0.21556   0.03961   0.00000  Uiso   1.00
H678   H     0.60134   0.23749   0.06128   0.00000  Uiso   1.00
H679   H     0.60006   0.18813   0.05282   0.00000  Uiso   1.00
H680   H     0.61927   0.21927   0.01822   0.00000  Uiso   1.00
N681   N     0.65258   0.40286   0.17865   0.00000  Uiso   1.00
H682   H     0.66396   0.38127   0.16297   0.00000  Uiso   1.00
H683   H     0.63130   0.41427   0.16250   0.00000  Uiso   1.00
N684   N     0.84743   0.09713   0.82134   0.00000  Uiso   1.00
H685   H     0.83604   0.11871   0.83703   0.00000  Uiso   1.00
H686   H     0.86872   0.08573   0.83750   0.00000  Uiso   1.00
N687   N     0.59725   0.15272   0.17866   0.00000  Uiso   1.00
H688   H     0.61886   0.16413   0.16301   0.00000  Uiso   1.00
H689   H     0.58587   0.13147   0.16247   0.00000  Uiso   1.00
N690   N     0.90276   0.34731   0.82134   0.00000  Uiso   1.00
H691   H     0.88116   0.33590   0.83699   0.00000  Uiso   1.00
H692   H     0.91414   0.36856   0.83752   0.00000  Uiso   1.00
N693   N     0.84747   0.09719   0.17865   0.00000  Uiso   1.00
H694   H     0.83609   0.11878   0.16295   0.00000  Uiso   1.00
H695   H     0.86877   0.08580   0.16253   0.00000  Uiso   1.00
N696   N     0.65261   0.40272   0.82135   0.00000  Uiso   1.00
H697   H     0.66402   0.38112   0.83701   0.00000  Uiso   1.00
H698   H     0.63132   0.41407   0.83752   0.00000  Uiso   1.00
N699   N     0.90277   0.34743   0.17866   0.00000  Uiso   1.00
H700   H     0.88117   0.33602   0.16301   0.00000  Uiso   1.00
H701   H     0.91413   0.36871   0.16247   0.00000  Uiso   1.00
N702   N     0.59728   0.15260   0.82134   0.00000  Uiso   1.00
H703   H     0.61889   0.16402   0.83696   0.00000  Uiso   1.00
H704   H     0.58593   0.13132   0.83755   0.00000  Uiso   1.00
N705   N     0.65263   0.09723   0.82135   0.00000  Uiso   1.00
H706   H     0.66400   0.11885   0.83698   0.00000  Uiso   1.00
H707   H     0.63134   0.08586   0.83751   0.00000  Uiso   1.00
N708   N     0.84740   0.40278   0.17865   0.00000  Uiso   1.00
H709   H     0.83603   0.38117   0.16301   0.00000  Uiso   1.00
H710   H     0.86869   0.41416   0.16250   0.00000  Uiso   1.00
N711   N     0.59727   0.34734   0.82135   0.00000  Uiso   1.00
H712   H     0.61890   0.33595   0.83700   0.00000  Uiso   1.00
H713   H     0.58591   0.36862   0.83751   0.00000  Uiso   1.00
N714   N     0.90281   0.15256   0.17865   0.00000  Uiso   1.00
H715   H     0.88120   0.16393   0.16297   0.00000  Uiso   1.00
H716   H     0.91418   0.13126   0.16254   0.00000  Uiso   1.00
N717   N     0.84745   0.40272   0.82135   0.00000  Uiso   1.00
H718   H     0.83607   0.38109   0.83701   0.00000  Uiso   1.00
H719   H     0.86877   0.41405   0.83750   0.00000  Uiso   1.00
N720   N     0.65256   0.09730   0.17865   0.00000  Uiso   1.00
H721   H     0.66394   0.11892   0.16300   0.00000  Uiso   1.00
H722   H     0.63124   0.08597   0.16250   0.00000  Uiso   1.00
N723   N     0.90282   0.15246   0.82135   0.00000  Uiso   1.00
H724   H     0.88121   0.16382   0.83702   0.00000  Uiso   1.00
H725   H     0.91417   0.13113   0.83748   0.00000  Uiso   1.00
N726   N     0.59720   0.34752   0.17864   0.00000  Uiso   1.00
H727   H     0.61881   0.33615   0.16299   0.00000  Uiso   1.00
H728   H     0.58585   0.36885   0.16250   0.00000  Uiso   1.00
N729   N     0.90256   0.15288   0.67865   0.00000  Uiso   1.00
H730   H     0.91393   0.13130   0.66296   0.00000  Uiso   1.00
H731   H     0.88127   0.16430   0.66251   0.00000  Uiso   1.00
N732   N     0.59736   0.34721   0.32134   0.00000  Uiso   1.00
H733   H     0.58595   0.36880   0.33698   0.00000  Uiso   1.00
H734   H     0.61863   0.33582   0.33753   0.00000  Uiso   1.00
N735   N     0.84721   0.40268   0.67865   0.00000  Uiso   1.00
H736   H     0.86882   0.41408   0.66299   0.00000  Uiso   1.00
H737   H     0.83582   0.38142   0.66249   0.00000  Uiso   1.00
N738   N     0.65275   0.09729   0.32134   0.00000  Uiso   1.00
H739   H     0.63114   0.08588   0.33698   0.00000  Uiso   1.00
H740   H     0.66412   0.11854   0.33753   0.00000  Uiso   1.00
N741   N     0.59740   0.34726   0.67866   0.00000  Uiso   1.00
H742   H     0.58599   0.36887   0.66299   0.00000  Uiso   1.00
H743   H     0.61867   0.33590   0.66249   0.00000  Uiso   1.00
N744   N     0.90256   0.15277   0.32135   0.00000  Uiso   1.00
H745   H     0.91397   0.13117   0.33703   0.00000  Uiso   1.00
H746   H     0.88127   0.16413   0.33750   0.00000  Uiso   1.00
N747   N     0.65279   0.09745   0.67865   0.00000  Uiso   1.00
H748   H     0.63120   0.08605   0.66299   0.00000  Uiso   1.00
H749   H     0.66416   0.11874   0.66248   0.00000  Uiso   1.00
N750   N     0.84727   0.40259   0.32135   0.00000  Uiso   1.00
H751   H     0.86888   0.41401   0.33698   0.00000  Uiso   1.00
H752   H     0.83593   0.38131   0.33755   0.00000  Uiso   1.00
N753   N     0.90265   0.34725   0.32135   0.00000  Uiso   1.00
H754   H     0.91403   0.36887   0.33698   0.00000  Uiso   1.00
H755   H     0.88137   0.33588   0.33753   0.00000  Uiso   1.00
N756   N     0.59741   0.15279   0.67864   0.00000  Uiso   1.00
H757   H     0.58604   0.13118   0.66300   0.00000  Uiso   1.00
H758   H     0.61870   0.16417   0.66249   0.00000  Uiso   1.00
N759   N     0.84721   0.09741   0.32135   0.00000  Uiso   1.00
H760   H     0.86882   0.08604   0.33703   0.00000  Uiso   1.00
H761   H     0.83583   0.11871   0.33747   0.00000  Uiso   1.00
N762   N     0.65275   0.40262   0.67865   0.00000  Uiso   1.00
H763   H     0.63113   0.41400   0.66300   0.00000  Uiso   1.00
H764   H     0.66411   0.38133   0.66251   0.00000  Uiso   1.00
N765   N     0.59743   0.15269   0.32135   0.00000  Uiso   1.00
H766   H     0.58604   0.13106   0.33699   0.00000  Uiso   1.00
H767   H     0.61873   0.16402   0.33751   0.00000  Uiso   1.00
N768   N     0.90253   0.34727   0.67864   0.00000  Uiso   1.00
H769   H     0.91391   0.36889   0.66299   0.00000  Uiso   1.00
H770   H     0.88121   0.33594   0.66250   0.00000  Uiso   1.00
N771   N     0.65277   0.40251   0.32135   0.00000  Uiso   1.00
H772   H     0.63115   0.41388   0.33700   0.00000  Uiso   1.00
H773   H     0.66411   0.38119   0.33750   0.00000  Uiso   1.00
N774   N     0.84716   0.09756   0.67864   0.00000  Uiso   1.00
H775   H     0.86876   0.08621   0.66296   0.00000  Uiso   1.00
H776   H     0.83580   0.11890   0.66253   0.00000  Uiso   1.00
N777   N     0.52886   0.31104   0.39641   0.00000  Uiso   1.00
H778   H     0.54993   0.30339   0.37769   0.00000  Uiso   1.00
H779   H     0.50711   0.32135   0.38008   0.00000  Uiso   1.00
N780   N     0.94883   0.20754   0.60358   0.00000  Uiso   1.00
H781   H     0.95631   0.18056   0.60905   0.00000  Uiso   1.00
H782   H     0.92349   0.20978   0.58986   0.00000  Uiso   1.00
N783   N     0.69039   0.02804   0.39553   0.00000  Uiso   1.00
H784   H     0.69057   0.05580   0.38876   0.00000  Uiso   1.00
H785   H     0.66676   0.02033   0.41042   0.00000  Uiso   1.00
N786   N     0.79349   0.45065   0.60353   0.00000  Uiso   1.00
H787   H     0.82027   0.45864   0.60929   0.00000  Uiso   1.00
H788   H     0.79188   0.42538   0.58959   0.00000  Uiso   1.00
N789   N     0.97249   0.19083   0.39569   0.00000  Uiso   1.00
H790   H     0.94462   0.19027   0.38953   0.00000  Uiso   1.00
H791   H     0.98126   0.16734   0.41016   0.00000  Uiso   1.00
N792   N     0.55106   0.29221   0.60284   0.00000  Uiso   1.00
H793   H     0.54330   0.31860   0.61063   0.00000  Uiso   1.00
H794   H     0.57546   0.29179   0.58713   0.00000  Uiso   1.00
N795   N     0.80965   0.47172   0.39524   0.00000  Uiso   1.00
H796   H     0.80986   0.44366   0.39022   0.00000  Uiso   1.00
H797   H     0.83351   0.48089   0.40870   0.00000  Uiso   1.00
N798   N     0.70244   0.04812   0.60240   0.00000  Uiso   1.00
H799   H     0.71882   0.06820   0.61504   0.00000  Uiso   1.00
H800   H     0.68763   0.03420   0.62370   0.00000  Uiso   1.00
N801   N     0.78142   0.05798   0.89538   0.00000  Uiso   1.00
H802   H     0.80934   0.05658   0.88965   0.00000  Uiso   1.00
H803   H     0.77405   0.08215   0.90943   0.00000  Uiso   1.00
N804   N     0.69606   0.46125   0.10311   0.00000  Uiso   1.00
H805   H     0.70162   0.43391   0.10917   0.00000  Uiso   1.00
H806   H     0.67118   0.46494   0.08880   0.00000  Uiso   1.00
N807   N     0.93969   0.27487   0.89579   0.00000  Uiso   1.00
H808   H     0.93830   0.30249   0.88858   0.00000  Uiso   1.00
H809   H     0.91664   0.26613   0.91106   0.00000  Uiso   1.00
N810   N     0.54609   0.20324   0.10325   0.00000  Uiso   1.00
H811   H     0.57185   0.21304   0.11083   0.00000  Uiso   1.00
H812   H     0.54741   0.17874   0.08781   0.00000  Uiso   1.00
N813   N     0.71859   0.44201   0.89547   0.00000  Uiso   1.00
H814   H     0.69068   0.44340   0.88973   0.00000  Uiso   1.00
H815   H     0.72597   0.41784   0.90957   0.00000  Uiso   1.00
N816   N     0.80393   0.03875   0.10305   0.00000  Uiso   1.00
H817   H     0.79837   0.06609   0.10907   0.00000  Uiso   1.00
H818   H     0.82882   0.03506   0.08876   0.00000  Uiso   1.00
N819   N     0.56207   0.22337   0.89629   0.00000  Uiso   1.00
H820   H     0.57154   0.24526   0.87961   0.00000  Uiso   1.00
H821   H     0.55484   0.20191   0.87787   0.00000  Uiso   1.00
N822   N     0.94966   0.29531   0.10273   0.00000  Uiso   1.00
H823   H     0.96468   0.31607   0.11602   0.00000  Uiso   1.00
H824   H     0.93561   0.28011   0.12362   0.00000  Uiso   1.00
Zn825  Zn    0.20659   0.50000   0.21735   0.00000  Uiso   1.00
Zn826  Zn    0.29340   0.50000   0.78265   0.00000  Uiso   1.00
Zn827  Zn   -0.00000   0.70660   0.21735   0.00000  Uiso   1.00
Zn828  Zn    0.00000   0.79340   0.78265   0.00000  Uiso   1.00
Zn829  Zn    0.29340   0.50000   0.21735   0.00000  Uiso   1.00
Zn830  Zn    0.20659   0.50000   0.78265   0.00000  Uiso   1.00
Zn831  Zn   -0.00000   0.79340   0.21735   0.00000  Uiso   1.00
Zn832  Zn   -0.00000   0.70660   0.78265   0.00000  Uiso   1.00
Zn833  Zn    0.45659   0.75000   0.71735   0.00000  Uiso   1.00
Zn834  Zn    0.04340   0.75000   0.28265   0.00000  Uiso   1.00
Zn835  Zn    0.25000   0.95659   0.71735   0.00000  Uiso   1.00
Zn836  Zn    0.25000   0.54341   0.28265   0.00000  Uiso   1.00
Zn837  Zn    0.04340   0.75000   0.71735   0.00000  Uiso   1.00
Zn838  Zn    0.45659   0.75000   0.28265   0.00000  Uiso   1.00
Zn839  Zn    0.25000   0.54341   0.71735   0.00000  Uiso   1.00
Zn840  Zn    0.25000   0.95659   0.28265   0.00000  Uiso   1.00
C841   C     0.01665   0.77962   0.41779   0.00000  Uiso   1.00
C842   C     0.47649   0.72622   0.58163   0.00000  Uiso   1.00
C843   C     0.22235   0.51823   0.41745   0.00000  Uiso   1.00
C844   C     0.27442   0.97813   0.58166   0.00000  Uiso   1.00
C845   C     0.48185   0.72289   0.41761   0.00000  Uiso   1.00
C846   C     0.02245   0.77428   0.58156   0.00000  Uiso   1.00
C847   C     0.27817   0.98218   0.41754   0.00000  Uiso   1.00
C848   C     0.22501   0.52287   0.58137   0.00000  Uiso   1.00
C849   C     0.26959   0.52684   0.91750   0.00000  Uiso   1.00
C850   C     0.22533   0.97767   0.08146   0.00000  Uiso   1.00
C851   C     0.47233   0.76716   0.91754   0.00000  Uiso   1.00
C852   C     0.02593   0.73023   0.08176   0.00000  Uiso   1.00
C853   C     0.23043   0.97314   0.91754   0.00000  Uiso   1.00
C854   C     0.27466   0.52233   0.08143   0.00000  Uiso   1.00
C855   C     0.03049   0.73483   0.91783   0.00000  Uiso   1.00
C856   C     0.47395   0.77188   0.08148   0.00000  Uiso   1.00
C857   C     0.49984   0.75084   0.39792   0.00000  Uiso   1.00
C858   C     0.49982   0.74997   0.60160   0.00000  Uiso   1.00
C859   C     0.25011   0.99999   0.39784   0.00000  Uiso   1.00
C860   C     0.24963   0.50034   0.60156   0.00000  Uiso   1.00
C861   C     0.25001   0.99999   0.89786   0.00000  Uiso   1.00
C862   C     0.25000   0.50000   0.10149   0.00000  Uiso   1.00
C863   C     0.00089   0.75017   0.89792   0.00000  Uiso   1.00
C864   C     0.49960   0.75051   0.10164   0.00000  Uiso   1.00
O865   O     0.25000   0.50000   0.25000   0.00000  Uiso   1.00
O866   O     0.25000   0.50000   0.75000   0.00000  Uiso   1.00
O867   O     0.00000   0.75000   0.25000   0.00000  Uiso   1.00
O868   O     0.00000   0.75000   0.75000   0.00000  Uiso   1.00
O869   O     0.25000   0.96963   0.33755   0.00000  Uiso   1.00
O870   O     0.25000   0.53037   0.66245   0.00000  Uiso   1.00
O871   O     0.03036   0.75000   0.33755   0.00000  Uiso   1.00
O872   O     0.46963   0.75000   0.66245   0.00000  Uiso   1.00
O873   O     0.25000   0.53037   0.33755   0.00000  Uiso   1.00
O874   O     0.25000   0.96963   0.66245   0.00000  Uiso   1.00
O875   O     0.46963   0.75000   0.33755   0.00000  Uiso   1.00
O876   O     0.03036   0.75000   0.66245   0.00000  Uiso   1.00
O877   O    -0.00000   0.71964   0.83755   0.00000  Uiso   1.00
O878   O     0.00000   0.78036   0.16245   0.00000  Uiso   1.00
O879   O     0.28036   0.50000   0.83755   0.00000  Uiso   1.00
O880   O     0.21963   0.50000   0.16245   0.00000  Uiso   1.00
O881   O    -0.00000   0.78036   0.83755   0.00000  Uiso   1.00
O882   O     0.00000   0.71963   0.16245   0.00000  Uiso   1.00
O883   O     0.21963   0.50000   0.83755   0.00000  Uiso   1.00
O884   O     0.28036   0.50000   0.16245   0.00000  Uiso   1.00
O885   O     0.20724   0.57308   0.27302   0.00000  Uiso   1.00
O886   O     0.29275   0.92692   0.72698   0.00000  Uiso   1.00
O887   O     0.42692   0.70725   0.27302   0.00000  Uiso   1.00
O888   O     0.07307   0.79275   0.72698   0.00000  Uiso   1.00
O889   O     0.29275   0.92692   0.27302   0.00000  Uiso   1.00
O890   O     0.20724   0.57308   0.72698   0.00000  Uiso   1.00
O891   O     0.07307   0.79275   0.27302   0.00000  Uiso   1.00
O892   O     0.42692   0.70725   0.72698   0.00000  Uiso   1.00
O893   O     0.20724   0.92692   0.72698   0.00000  Uiso   1.00
O894   O     0.29275   0.57308   0.27302   0.00000  Uiso   1.00
O895   O     0.42692   0.79275   0.72698   0.00000  Uiso   1.00
O896   O     0.07307   0.70724   0.27302   0.00000  Uiso   1.00
O897   O     0.29275   0.57308   0.72698   0.00000  Uiso   1.00
O898   O     0.20724   0.92692   0.27302   0.00000  Uiso   1.00
O899   O     0.07307   0.70724   0.72698   0.00000  Uiso   1.00
O900   O     0.42692   0.79275   0.27302   0.00000  Uiso   1.00
O901   O     0.45724   0.82307   0.77302   0.00000  Uiso   1.00
O902   O     0.04275   0.67692   0.22698   0.00000  Uiso   1.00
O903   O     0.17692   0.95724   0.77302   0.00000  Uiso   1.00
O904   O     0.32307   0.54276   0.22698   0.00000  Uiso   1.00
O905   O     0.04275   0.67692   0.77302   0.00000  Uiso   1.00
O906   O     0.45724   0.82307   0.22698   0.00000  Uiso   1.00
O907   O     0.32307   0.54276   0.77302   0.00000  Uiso   1.00
O908   O     0.17692   0.95724   0.22698   0.00000  Uiso   1.00
O909   O     0.45724   0.67693   0.22698   0.00000  Uiso   1.00
O910   O     0.04275   0.82307   0.77302   0.00000  Uiso   1.00
O911   O     0.17692   0.54276   0.22698   0.00000  Uiso   1.00
O912   O     0.32307   0.95724   0.77302   0.00000  Uiso   1.00
O913   O     0.04275   0.82307   0.22698   0.00000  Uiso   1.00
O914   O     0.45724   0.67693   0.77302   0.00000  Uiso   1.00
O915   O     0.32307   0.95724   0.22698   0.00000  Uiso   1.00
O916   O     0.17692   0.54276   0.77302   0.00000  Uiso   1.00
C917   C     0.45583   0.69984   0.47932   0.00000  Uiso   1.00
C918   C     0.03497   0.80734   0.52030   0.00000  Uiso   1.00
C919   C     0.30172   0.95757   0.47982   0.00000  Uiso   1.00
C920   C     0.19604   0.54041   0.51908   0.00000  Uiso   1.00
C921   C     0.03942   0.80478   0.47994   0.00000  Uiso   1.00
C922   C     0.46077   0.69583   0.51943   0.00000  Uiso   1.00
C923   C     0.20023   0.54507   0.47894   0.00000  Uiso   1.00
C924   C     0.30563   0.96310   0.51983   0.00000  Uiso   1.00
C925   C     0.20346   0.95176   0.97949   0.00000  Uiso   1.00
C926   C     0.29180   0.55233   0.01951   0.00000  Uiso   1.00
C927   C     0.05735   0.71454   0.98031   0.00000  Uiso   1.00
C928   C     0.44477   0.78859   0.01892   0.00000  Uiso   1.00
C929   C     0.29655   0.54823   0.97941   0.00000  Uiso   1.00
C930   C     0.20820   0.94766   0.01959   0.00000  Uiso   1.00
C931   C     0.44890   0.79336   0.97877   0.00000  Uiso   1.00
C932   C     0.05976   0.71969   0.02059   0.00000  Uiso   1.00
C933   C     0.25001   0.99998   0.35568   0.00000  Uiso   1.00
C934   C     0.24974   0.50006   0.64410   0.00000  Uiso   1.00
C935   C     0.00001   0.75032   0.35571   0.00000  Uiso   1.00
C936   C     0.49998   0.74991   0.64411   0.00000  Uiso   1.00
C937   C     0.00030   0.74998   0.85571   0.00000  Uiso   1.00
C938   C     0.49966   0.75008   0.14413   0.00000  Uiso   1.00
C939   C     0.25000   0.50000   0.85569   0.00000  Uiso   1.00
C940   C     0.25000   0.50000   0.14407   0.00000  Uiso   1.00
C941   C     0.17999   0.57000   0.24999   0.00000  Uiso   1.00
C942   C     0.32000   0.93000   0.75001   0.00000  Uiso   1.00
C943   C     0.42999   0.68000   0.25000   0.00000  Uiso   1.00
C944   C     0.07001   0.81999   0.75000   0.00000  Uiso   1.00
C945   C     0.32000   0.92999   0.25000   0.00000  Uiso   1.00
C946   C     0.18000   0.57001   0.75000   0.00000  Uiso   1.00
C947   C     0.07000   0.82001   0.25000   0.00000  Uiso   1.00
C948   C     0.43000   0.67999   0.75001   0.00000  Uiso   1.00
C949   C     0.17999   0.93000   0.75000   0.00000  Uiso   1.00
C950   C     0.32001   0.56999   0.25000   0.00000  Uiso   1.00
C951   C     0.42999   0.82000   0.74999   0.00000  Uiso   1.00
C952   C     0.07000   0.68000   0.25001   0.00000  Uiso   1.00
C953   C     0.32000   0.57001   0.74999   0.00000  Uiso   1.00
C954   C     0.18000   0.92999   0.25000   0.00000  Uiso   1.00
C955   C     0.07000   0.67999   0.75000   0.00000  Uiso   1.00
C956   C     0.43000   0.82001   0.25000   0.00000  Uiso   1.00
C957   C     0.13811   0.88901   0.21449   0.00000  Uiso   1.00
C958   C     0.36189   0.61099   0.78550   0.00000  Uiso   1.00
C959   C     0.11104   0.63818   0.21449   0.00000  Uiso   1.00
C960   C     0.38896   0.86183   0.78550   0.00000  Uiso   1.00
C961   C     0.36191   0.61101   0.21449   0.00000  Uiso   1.00
C962   C     0.13813   0.88894   0.78551   0.00000  Uiso   1.00
C963   C     0.38896   0.86189   0.21449   0.00000  Uiso   1.00
C964   C     0.11106   0.63812   0.78550   0.00000  Uiso   1.00
C965   C     0.13815   0.61104   0.78551   0.00000  Uiso   1.00
C966   C     0.36187   0.88897   0.21449   0.00000  Uiso   1.00
C967   C     0.11106   0.86184   0.78551   0.00000  Uiso   1.00
C968   C     0.38899   0.63811   0.21449   0.00000  Uiso   1.00
C969   C     0.36190   0.88894   0.78551   0.00000  Uiso   1.00
C970   C     0.13811   0.61107   0.21449   0.00000  Uiso   1.00
C971   C     0.38898   0.63806   0.78551   0.00000  Uiso   1.00
C972   C     0.11102   0.86193   0.21449   0.00000  Uiso   1.00
C973   C     0.38810   0.63902   0.71449   0.00000  Uiso   1.00
C974   C     0.11186   0.86102   0.28550   0.00000  Uiso   1.00
C975   C     0.36103   0.88816   0.71449   0.00000  Uiso   1.00
C976   C     0.13895   0.61182   0.28550   0.00000  Uiso   1.00
C977   C     0.11188   0.86105   0.71450   0.00000  Uiso   1.00
C978   C     0.38811   0.63897   0.28551   0.00000  Uiso   1.00
C979   C     0.13897   0.61190   0.71449   0.00000  Uiso   1.00
C980   C     0.36106   0.88812   0.28551   0.00000  Uiso   1.00
C981   C     0.38816   0.86105   0.28551   0.00000  Uiso   1.00
C982   C     0.11188   0.63897   0.71449   0.00000  Uiso   1.00
C983   C     0.36103   0.61187   0.28551   0.00000  Uiso   1.00
C984   C     0.13895   0.88814   0.71450   0.00000  Uiso   1.00
C985   C     0.11188   0.63892   0.28551   0.00000  Uiso   1.00
C986   C     0.38809   0.86106   0.71449   0.00000  Uiso   1.00
C987   C     0.13896   0.88809   0.28551   0.00000  Uiso   1.00
C988   C     0.36100   0.61195   0.71449   0.00000  Uiso   1.00
C989   C     0.47796   0.72480   0.45844   0.00000  Uiso   1.00
C990   C     0.01855   0.77815   0.54089   0.00000  Uiso   1.00
C991   C     0.27681   0.97944   0.45854   0.00000  Uiso   1.00
C992   C     0.22321   0.52119   0.54041   0.00000  Uiso   1.00
C993   C     0.01877   0.77868   0.45874   0.00000  Uiso   1.00
C994   C     0.47881   0.72369   0.54065   0.00000  Uiso   1.00
C995   C     0.22436   0.52200   0.45825   0.00000  Uiso   1.00
C996   C     0.27749   0.98097   0.54078   0.00000  Uiso   1.00
C997   C     0.22723   0.97502   0.95843   0.00000  Uiso   1.00
C998   C     0.27198   0.52558   0.04057   0.00000  Uiso   1.00
C999   C     0.03000   0.73335   0.95887   0.00000  Uiso   1.00
C1000  C     0.47276   0.77075   0.04043   0.00000  Uiso   1.00
C1001  C     0.27278   0.52496   0.95839   0.00000  Uiso   1.00
C1002  C     0.22801   0.97441   0.04061   0.00000  Uiso   1.00
C1003  C     0.47437   0.77164   0.95826   0.00000  Uiso   1.00
C1004  C     0.02959   0.73431   0.04108   0.00000  Uiso   1.00
C1005  C     0.09808   0.84811   0.24999   0.00000  Uiso   1.00
C1006  C     0.40192   0.65190   0.75000   0.00000  Uiso   1.00
C1007  C     0.15190   0.59808   0.24999   0.00000  Uiso   1.00
C1008  C     0.34810   0.90192   0.75000   0.00000  Uiso   1.00
C1009  C     0.40190   0.65192   0.25000   0.00000  Uiso   1.00
C1010  C     0.09810   0.84807   0.75000   0.00000  Uiso   1.00
C1011  C     0.34809   0.90190   0.25000   0.00000  Uiso   1.00
C1012  C     0.15193   0.59811   0.75000   0.00000  Uiso   1.00
C1013  C     0.09809   0.65190   0.75000   0.00000  Uiso   1.00
C1014  C     0.40193   0.84811   0.25000   0.00000  Uiso   1.00
C1015  C     0.15190   0.90191   0.75000   0.00000  Uiso   1.00
C1016  C     0.34810   0.59807   0.25000   0.00000  Uiso   1.00
C1017  C     0.40189   0.84808   0.74999   0.00000  Uiso   1.00
C1018  C     0.09810   0.65193   0.25001   0.00000  Uiso   1.00
C1019  C     0.34808   0.59810   0.74999   0.00000  Uiso   1.00
C1020  C     0.15191   0.90191   0.25000   0.00000  Uiso   1.00
C1021  C     0.49840   0.75158   0.47913   0.00000  Uiso   1.00
C1022  C     0.49853   0.75117   0.52021   0.00000  Uiso   1.00
C1023  C     0.25057   0.50086   0.47897   0.00000  Uiso   1.00
C1024  C     0.25045   0.50105   0.52008   0.00000  Uiso   1.00
C1025  C     0.25000   0.99999   0.97896   0.00000  Uiso   1.00
C1026  C     0.25000   0.50000   0.02005   0.00000  Uiso   1.00
C1027  C     0.00201   0.75260   0.97912   0.00000  Uiso   1.00
C1028  C     0.00150   0.75265   0.02022   0.00000  Uiso   1.00
C1029  C     0.42300   0.68134   0.46107   0.00000  Uiso   1.00
H1030  H     0.40921   0.70017   0.44052   0.00000  Uiso   1.00
H1031  H     0.43082   0.65539   0.44679   0.00000  Uiso   1.00
H1032  H     0.40194   0.67480   0.48319   0.00000  Uiso   1.00
C1033  C     0.04194   0.84401   0.53941   0.00000  Uiso   1.00
H1034  H     0.02059   0.84991   0.56134   0.00000  Uiso   1.00
H1035  H     0.06965   0.84510   0.55232   0.00000  Uiso   1.00
H1036  H     0.03967   0.86670   0.51816   0.00000  Uiso   1.00
C1037  C     0.32045   0.92454   0.46226   0.00000  Uiso   1.00
H1038  H     0.30147   0.90990   0.44259   0.00000  Uiso   1.00
H1039  H     0.34604   0.93235   0.44723   0.00000  Uiso   1.00
H1040  H     0.32776   0.90418   0.48485   0.00000  Uiso   1.00
C1041  C     0.16063   0.55347   0.53737   0.00000  Uiso   1.00
H1042  H     0.13864   0.55675   0.51547   0.00000  Uiso   1.00
H1043  H     0.15009   0.53278   0.55809   0.00000  Uiso   1.00
H1044  H     0.16468   0.58021   0.55187   0.00000  Uiso   1.00
C1045  C     0.06885   0.82803   0.46110   0.00000  Uiso   1.00
H1046  H     0.08473   0.81159   0.43996   0.00000  Uiso   1.00
H1047  H     0.05659   0.85232   0.44691   0.00000  Uiso   1.00
H1048  H     0.08927   0.83773   0.48254   0.00000  Uiso   1.00
C1049  C     0.45182   0.65896   0.53713   0.00000  Uiso   1.00
H1050  H     0.47394   0.65026   0.55708   0.00000  Uiso   1.00
H1051  H     0.42492   0.65940   0.55185   0.00000  Uiso   1.00
H1052  H     0.45072   0.63726   0.51469   0.00000  Uiso   1.00
C1053  C     0.18341   0.57867   0.46033   0.00000  Uiso   1.00
H1054  H     0.20266   0.59103   0.43923   0.00000  Uiso   1.00
H1055  H     0.15687   0.57209   0.44655   0.00000  Uiso   1.00
H1056  H     0.17853   0.60048   0.48208   0.00000  Uiso   1.00
C1057  C     0.34264   0.95500   0.53765   0.00000  Uiso   1.00
H1058  H     0.35074   0.97724   0.55770   0.00000  Uiso   1.00
H1059  H     0.34283   0.92805   0.55230   0.00000  Uiso   1.00
H1060  H     0.36439   0.95450   0.51521   0.00000  Uiso   1.00
C1061  C     0.16942   0.93535   0.96146   0.00000  Uiso   1.00
H1062  H     0.15660   0.95510   0.94120   0.00000  Uiso   1.00
H1063  H     0.17557   0.90907   0.94695   0.00000  Uiso   1.00
H1064  H     0.14819   0.92989   0.98372   0.00000  Uiso   1.00
C1065  C     0.30301   0.58846   0.03741   0.00000  Uiso   1.00
H1066  H     0.28168   0.59819   0.05778   0.00000  Uiso   1.00
H1067  H     0.33002   0.58639   0.05174   0.00000  Uiso   1.00
H1068  H     0.30502   0.61026   0.01510   0.00000  Uiso   1.00
C1069  C     0.08241   0.68644   0.96186   0.00000  Uiso   1.00
H1070  H     0.09381   0.66722   0.98362   0.00000  Uiso   1.00
H1071  H     0.06689   0.66899   0.94134   0.00000  Uiso   1.00
H1072  H     0.10561   0.70008   0.94706   0.00000  Uiso   1.00
C1073  C     0.40874   0.80006   0.03703   0.00000  Uiso   1.00
H1074  H     0.38680   0.80289   0.01501   0.00000  Uiso   1.00
H1075  H     0.39878   0.77867   0.05726   0.00000  Uiso   1.00
H1076  H     0.41169   0.82670   0.05203   0.00000  Uiso   1.00
C1077  C     0.33059   0.56463   0.96137   0.00000  Uiso   1.00
H1078  H     0.34341   0.54488   0.94115   0.00000  Uiso   1.00
H1079  H     0.32445   0.59091   0.94681   0.00000  Uiso   1.00
H1080  H     0.35182   0.57009   0.98363   0.00000  Uiso   1.00
C1081  C     0.19699   0.91153   0.03756   0.00000  Uiso   1.00
H1082  H     0.21832   0.90181   0.05796   0.00000  Uiso   1.00
H1083  H     0.16998   0.91361   0.05188   0.00000  Uiso   1.00
H1084  H     0.19498   0.88973   0.01529   0.00000  Uiso   1.00
C1085  C     0.43048   0.82598   0.95991   0.00000  Uiso   1.00
H1086  H     0.44898   0.83896   0.93847   0.00000  Uiso   1.00
H1087  H     0.40416   0.81808   0.94643   0.00000  Uiso   1.00
H1088  H     0.42483   0.84777   0.98148   0.00000  Uiso   1.00
C1089  C     0.09691   0.71556   0.03961   0.00000  Uiso   1.00
H1090  H     0.10134   0.73749   0.06128   0.00000  Uiso   1.00
H1091  H     0.10006   0.68813   0.05282   0.00000  Uiso   1.00
H1092  H     0.11927   0.71927   0.01822   0.00000  Uiso   1.00
N1093  N     0.15258   0.90286   0.17865   0.00000  Uiso   1.00
H1094  H     0.16396   0.88127   0.16297   0.00000  Uiso   1.00
H1095  H     0.13130   0.91427   0.16250   0.00000  Uiso   1.00
N1096  N     0.34743   0.59713   0.82134   0.00000  Uiso   1.00
H1097  H     0.33604   0.61871   0.83703   0.00000  Uiso   1.00
H1098  H     0.36872   0.58573   0.83750   0.00000  Uiso   1.00
N1099  N     0.09725   0.65272   0.17866   0.00000  Uiso   1.00
H1100  H     0.11886   0.66413   0.16301   0.00000  Uiso   1.00
H1101  H     0.08587   0.63147   0.16247   0.00000  Uiso   1.00
N1102  N     0.40276   0.84731   0.82134   0.00000  Uiso   1.00
H1103  H     0.38116   0.83590   0.83699   0.00000  Uiso   1.00
H1104  H     0.41414   0.86856   0.83752   0.00000  Uiso   1.00
N1105  N     0.34747   0.59719   0.17865   0.00000  Uiso   1.00
H1106  H     0.33609   0.61878   0.16295   0.00000  Uiso   1.00
H1107  H     0.36877   0.58580   0.16253   0.00000  Uiso   1.00
N1108  N     0.15261   0.90272   0.82135   0.00000  Uiso   1.00
H1109  H     0.16402   0.88112   0.83701   0.00000  Uiso   1.00
H1110  H     0.13132   0.91407   0.83752   0.00000  Uiso   1.00
N1111  N     0.40277   0.84743   0.17866   0.00000  Uiso   1.00
H1112  H     0.38117   0.83602   0.16301   0.00000  Uiso   1.00
H1113  H     0.41413   0.86871   0.16247   0.00000  Uiso   1.00
N1114  N     0.09728   0.65260   0.82134   0.00000  Uiso   1.00
H1115  H     0.11889   0.66402   0.83696   0.00000  Uiso   1.00
H1116  H     0.08593   0.63132   0.83755   0.00000  Uiso   1.00
N1117  N     0.15263   0.59723   0.82135   0.00000  Uiso   1.00
H1118  H     0.16400   0.61885   0.83698   0.00000  Uiso   1.00
H1119  H     0.13134   0.58586   0.83751   0.00000  Uiso   1.00
N1120  N     0.34740   0.90278   0.17865   0.00000  Uiso   1.00
H1121  H     0.33603   0.88117   0.16301   0.00000  Uiso   1.00
H1122  H     0.36869   0.91416   0.16250   0.00000  Uiso   1.00
N1123  N     0.09727   0.84734   0.82135   0.00000  Uiso   1.00
H1124  H     0.11890   0.83595   0.83700   0.00000  Uiso   1.00
H1125  H     0.08591   0.86862   0.83751   0.00000  Uiso   1.00
N1126  N     0.40281   0.65256   0.17865   0.00000  Uiso   1.00
H1127  H     0.38120   0.66393   0.16297   0.00000  Uiso   1.00
H1128  H     0.41418   0.63126   0.16254   0.00000  Uiso   1.00
N1129  N     0.34745   0.90272   0.82135   0.00000  Uiso   1.00
H1130  H     0.33607   0.88109   0.83701   0.00000  Uiso   1.00
H1131  H     0.36877   0.91405   0.83750   0.00000  Uiso   1.00
N1132  N     0.15256   0.59730   0.17865   0.00000  Uiso   1.00
H1133  H     0.16394   0.61892   0.16300   0.00000  Uiso   1.00
H1134  H     0.13124   0.58597   0.16250   0.00000  Uiso   1.00
N1135  N     0.40282   0.65246   0.82135   0.00000  Uiso   1.00
H1136  H     0.38121   0.66382   0.83702   0.00000  Uiso   1.00
H1137  H     0.41417   0.63113   0.83748   0.00000  Uiso   1.00
N1138  N     0.09720   0.84752   0.17864   0.00000  Uiso   1.00
H1139  H     0.11881   0.83615   0.16299   0.00000  Uiso   1.00
H1140  H     0.08585   0.86885   0.16250   0.00000  Uiso   1.00
N1141  N     0.40256   0.65288   0.67865   0.00000  Uiso   1.00
H1142  H     0.41393   0.63130   0.66296   0.00000  Uiso   1.00
H1143  H     0.38127   0.66430   0.66251   0.00000  Uiso   1.00
N1144  N     0.09736   0.84721   0.32134   0.00000  Uiso   1.00
H1145  H     0.08595   0.86880   0.33698   0.00000  Uiso   1.00
H1146  H     0.11863   0.83582   0.33753   0.00000  Uiso   1.00
N1147  N     0.34721   0.90268   0.67865   0.00000  Uiso   1.00
H1148  H     0.36882   0.91408   0.66299   0.00000  Uiso   1.00
H1149  H     0.33582   0.88142   0.66249   0.00000  Uiso   1.00
N1150  N     0.15275   0.59729   0.32134   0.00000  Uiso   1.00
H1151  H     0.13114   0.58588   0.33698   0.00000  Uiso   1.00
H1152  H     0.16412   0.61854   0.33753   0.00000  Uiso   1.00
N1153  N     0.09740   0.84726   0.67866   0.00000  Uiso   1.00
H1154  H     0.08599   0.86887   0.66299   0.00000  Uiso   1.00
H1155  H     0.11867   0.83590   0.66249   0.00000  Uiso   1.00
N1156  N     0.40256   0.65277   0.32135   0.00000  Uiso   1.00
H1157  H     0.41397   0.63117   0.33703   0.00000  Uiso   1.00
H1158  H     0.38127   0.66413   0.33750   0.00000  Uiso   1.00
N1159  N     0.15279   0.59745   0.67865   0.00000  Uiso   1.00
H1160  H     0.13120   0.58605   0.66299   0.00000  Uiso   1.00
H1161  H     0.16416   0.61874   0.66248   0.00000  Uiso   1.00
N1162  N     0.34727   0.90259   0.32135   0.00000  Uiso   1.00
H1163  H     0.36888   0.91401   0.33698   0.00000  Uiso   1.00
H1164  H     0.33593   0.88131   0.33755   0.00000  Uiso   1.00
N1165  N     0.40265   0.84725   0.32135   0.00000  Uiso   1.00
H1166  H     0.41403   0.86887   0.33698   0.00000  Uiso   1.00
H1167  H     0.38137   0.83588   0.33753   0.00000  Uiso   1.00
N1168  N     0.09741   0.65279   0.67864   0.00000  Uiso   1.00
H1169  H     0.08604   0.63118   0.66300   0.00000  Uiso   1.00
H1170  H     0.11870   0.66417   0.66249   0.00000  Uiso   1.00
N1171  N     0.34721   0.59741   0.32135   0.00000  Uiso   1.00
H1172  H     0.36882   0.58604   0.33703   0.00000  Uiso   1.00
H1173  H     0.33583   0.61871   0.33747   0.00000  Uiso   1.00
N1174  N     0.15275   0.90262   0.67865   0.00000  Uiso   1.00
H1175  H     0.13113   0.91400   0.66300   0.00000  Uiso   1.00
H1176  H     0.16411   0.88133   0.66251   0.00000  Uiso   1.00
N1177  N     0.09743   0.65269   0.32135   0.00000  Uiso   1.00
H1178  H     0.08604   0.63106   0.33699   0.00000  Uiso   1.00
H1179  H     0.11873   0.66402   0.33751   0.00000  Uiso   1.00
N1180  N     0.40253   0.84727   0.67864   0.00000  Uiso   1.00
H1181  H     0.41391   0.86889   0.66299   0.00000  Uiso   1.00
H1182  H     0.38121   0.83594   0.66250   0.00000  Uiso   1.00
N1183  N     0.15277   0.90251   0.32135   0.00000  Uiso   1.00
H1184  H     0.13115   0.91388   0.33700   0.00000  Uiso   1.00
H1185  H     0.16411   0.88119   0.33750   0.00000  Uiso   1.00
N1186  N     0.34716   0.59756   0.67864   0.00000  Uiso   1.00
H1187  H     0.36876   0.58621   0.66296   0.00000  Uiso   1.00
H1188  H     0.33580   0.61890   0.66253   0.00000  Uiso   1.00
N1189  N     0.02886   0.81104   0.39641   0.00000  Uiso   1.00
H1190  H     0.04993   0.80339   0.37769   0.00000  Uiso   1.00
H1191  H     0.00711   0.82135   0.38008   0.00000  Uiso   1.00
N1192  N     0.44883   0.70754   0.60358   0.00000  Uiso   1.00
H1193  H     0.45631   0.68056   0.60905   0.00000  Uiso   1.00
H1194  H     0.42349   0.70978   0.58986   0.00000  Uiso   1.00
N1195  N     0.19039   0.52804   0.39553   0.00000  Uiso   1.00
H1196  H     0.19057   0.55580   0.38876   0.00000  Uiso   1.00
H1197  H     0.16676   0.52033   0.41042   0.00000  Uiso   1.00
N1198  N     0.29349   0.95065   0.60353   0.00000  Uiso   1.00
H1199  H     0.32027   0.95864   0.60929   0.00000  Uiso   1.00
H1200  H     0.29188   0.92538   0.58959   0.00000  Uiso   1.00
N1201  N     0.47249   0.69083   0.39569   0.00000  Uiso   1.00
H1202  H     0.44462   0.69027   0.38953   0.00000  Uiso   1.00
H1203  H     0.48126   0.66734   0.41016   0.00000  Uiso   1.00
N1204  N     0.05106   0.79221   0.60284   0.00000  Uiso   1.00
H1205  H     0.04330   0.81860   0.61063   0.00000  Uiso   1.00
H1206  H     0.07546   0.79179   0.58713   0.00000  Uiso   1.00
N1207  N     0.30965   0.97172   0.39524   0.00000  Uiso   1.00
H1208  H     0.30986   0.94366   0.39022   0.00000  Uiso   1.00
H1209  H     0.33351   0.98089   0.40870   0.00000  Uiso   1.00
N1210  N     0.20244   0.54812   0.60240   0.00000  Uiso   1.00
H1211  H     0.21882   0.56820   0.61504   0.00000  Uiso   1.00
H1212  H     0.18763   0.53420   0.62370   0.00000  Uiso   1.00
N1213  N     0.28142   0.55798   0.89538   0.00000  Uiso   1.00
H1214  H     0.30934   0.55658   0.88965   0.00000  Uiso   1.00
H1215  H     0.27405   0.58215   0.90943   0.00000  Uiso   1.00
N1216  N     0.19606   0.96125   0.10311   0.00000  Uiso   1.00
H1217  H     0.20162   0.93391   0.10917   0.00000  Uiso   1.00
H1218  H     0.17118   0.96494   0.08880   0.00000  Uiso   1.00
N1219  N     0.43969   0.77487   0.89579   0.00000  Uiso   1.00
H1220  H     0.43830   0.80249   0.88858   0.00000  Uiso   1.00
H1221  H     0.41664   0.76613   0.91106   0.00000  Uiso   1.00
N1222  N     0.04609   0.70324   0.10325   0.00000  Uiso   1.00
H1223  H     0.07185   0.71304   0.11083   0.00000  Uiso   1.00
H1224  H     0.04741   0.67874   0.08781   0.00000  Uiso   1.00
N1225  N     0.21859   0.94201   0.89547   0.00000  Uiso   1.00
H1226  H     0.19068   0.94340   0.88973   0.00000  Uiso   1.00
H1227  H     0.22597   0.91784   0.90957   0.00000  Uiso   1.00
N1228  N     0.30393   0.53875   0.10305   0.00000  Uiso   1.00
H1229  H     0.29837   0.56609   0.10907   0.00000  Uiso   1.00
H1230  H     0.32882   0.53506   0.08876   0.00000  Uiso   1.00
N1231  N     0.06207   0.72337   0.89629   0.00000  Uiso   1.00
H1232  H     0.07154   0.74526   0.87961   0.00000  Uiso   1.00
H1233  H     0.05484   0.70191   0.87787   0.00000  Uiso   1.00
N1234  N     0.44966   0.79531   0.10273   0.00000  Uiso   1.00
H1235  H     0.46468   0.81607   0.11602   0.00000  Uiso   1.00
H1236  H     0.43561   0.78011   0.12362   0.00000  Uiso   1.00
Zn1237 Zn    0.70659   0.50000   0.21735   0.00000  Uiso   1.00
Zn1238 Zn    0.79340   0.50000   0.78265   0.00000  Uiso   1.00
Zn1239 Zn    0.50000   0.70660   0.21735   0.00000  Uiso   1.00
Zn1240 Zn    0.50000   0.79340   0.78265   0.00000  Uiso   1.00
Zn1241 Zn    0.79340   0.50000   0.21735   0.00000  Uiso   1.00
Zn1242 Zn    0.70659   0.50000   0.78265   0.00000  Uiso   1.00
Zn1243 Zn    0.50000   0.79340   0.21735   0.00000  Uiso   1.00
Zn1244 Zn    0.50000   0.70660   0.78265   0.00000  Uiso   1.00
Zn1245 Zn    0.95659   0.75000   0.71735   0.00000  Uiso   1.00
Zn1246 Zn    0.54340   0.75000   0.28265   0.00000  Uiso   1.00
Zn1247 Zn    0.75000   0.95659   0.71735   0.00000  Uiso   1.00
Zn1248 Zn    0.75000   0.54341   0.28265   0.00000  Uiso   1.00
Zn1249 Zn    0.54340   0.75000   0.71735   0.00000  Uiso   1.00
Zn1250 Zn    0.95659   0.75000   0.28265   0.00000  Uiso   1.00
Zn1251 Zn    0.75000   0.54341   0.71735   0.00000  Uiso   1.00
Zn1252 Zn    0.75000   0.95659   0.28265   0.00000  Uiso   1.00
C1253  C     0.51665   0.77962   0.41779   0.00000  Uiso   1.00
C1254  C     0.97649   0.72622   0.58163   0.00000  Uiso   1.00
C1255  C     0.72235   0.51823   0.41745   0.00000  Uiso   1.00
C1256  C     0.77442   0.97813   0.58166   0.00000  Uiso   1.00
C1257  C     0.98185   0.72289   0.41761   0.00000  Uiso   1.00
C1258  C     0.52245   0.77428   0.58156   0.00000  Uiso   1.00
C1259  C     0.77817   0.98218   0.41754   0.00000  Uiso   1.00
C1260  C     0.72501   0.52287   0.58137   0.00000  Uiso   1.00
C1261  C     0.76959   0.52684   0.91750   0.00000  Uiso   1.00
C1262  C     0.72533   0.97767   0.08146   0.00000  Uiso   1.00
C1263  C     0.97233   0.76716   0.91754   0.00000  Uiso   1.00
C1264  C     0.52593   0.73023   0.08176   0.00000  Uiso   1.00
C1265  C     0.73043   0.97314   0.91754   0.00000  Uiso   1.00
C1266  C     0.77466   0.52233   0.08143   0.00000  Uiso   1.00
C1267  C     0.53049   0.73483   0.91783   0.00000  Uiso   1.00
C1268  C     0.97395   0.77188   0.08148   0.00000  Uiso   1.00
C1269  C     0.99984   0.75084   0.39792   0.00000  Uiso   1.00
C1270  C     0.99982   0.74997   0.60160   0.00000  Uiso   1.00
C1271  C     0.75011   0.99999   0.39784   0.00000  Uiso   1.00
C1272  C     0.74963   0.50034   0.60156   0.00000  Uiso   1.00
C1273  C     0.75001   0.99999   0.89786   0.00000  Uiso   1.00
C1274  C     0.75000   0.50000   0.10149   0.00000  Uiso   1.00
C1275  C     0.50089   0.75017   0.89792   0.00000  Uiso   1.00
C1276  C     0.99960   0.75051   0.10164   0.00000  Uiso   1.00
O1277  O     0.75000   0.50000   0.25000   0.00000  Uiso   1.00
O1278  O     0.75000   0.50000   0.75000   0.00000  Uiso   1.00
O1279  O     0.50000   0.75000   0.25000   0.00000  Uiso   1.00
O1280  O     0.50000   0.75000   0.75000   0.00000  Uiso   1.00
O1281  O     0.75000   0.96963   0.33755   0.00000  Uiso   1.00
O1282  O     0.75000   0.53037   0.66245   0.00000  Uiso   1.00
O1283  O     0.53036   0.75000   0.33755   0.00000  Uiso   1.00
O1284  O     0.96963   0.75000   0.66245   0.00000  Uiso   1.00
O1285  O     0.75000   0.53037   0.33755   0.00000  Uiso   1.00
O1286  O     0.75000   0.96963   0.66245   0.00000  Uiso   1.00
O1287  O     0.96963   0.75000   0.33755   0.00000  Uiso   1.00
O1288  O     0.53036   0.75000   0.66245   0.00000  Uiso   1.00
O1289  O     0.50000   0.71964   0.83755   0.00000  Uiso   1.00
O1290  O     0.50000   0.78036   0.16245   0.00000  Uiso   1.00
O1291  O     0.78036   0.50000   0.83755   0.00000  Uiso   1.00
O1292  O     0.71963   0.50000   0.16245   0.00000  Uiso   1.00
O1293  O     0.50000   0.78036   0.83755   0.00000  Uiso   1.00
O1294  O     0.50000   0.71963   0.16245   0.00000  Uiso   1.00
O1295  O     0.71963   0.50000   0.83755   0.00000  Uiso   1.00
O1296  O     0.78036   0.50000   0.16245   0.00000  Uiso   1.00
O1297  O     0.70724   0.57308   0.27302   0.00000  Uiso   1.00
O1298  O     0.79275   0.92692   0.72698   0.00000  Uiso   1.00
O1299  O     0.92692   0.70725   0.27302   0.00000  Uiso   1.00
O1300  O     0.57307   0.79275   0.72698   0.00000  Uiso   1.00
O1301  O     0.79275   0.92692   0.27302   0.00000  Uiso   1.00
O1302  O     0.70724   0.57308   0.72698   0.00000  Uiso   1.00
O1303  O     0.57307   0.79275   0.27302   0.00000  Uiso   1.00
O1304  O     0.92692   0.70725   0.72698   0.00000  Uiso   1.00
O1305  O     0.70724   0.92692   0.72698   0.00000  Uiso   1.00
O1306  O     0.79275   0.57308   0.27302   0.00000  Uiso   1.00
O1307  O     0.92692   0.79275   0.72698   0.00000  Uiso   1.00
O1308  O     0.57307   0.70724   0.27302   0.00000  Uiso   1.00
O1309  O     0.79275   0.57308   0.72698   0.00000  Uiso   1.00
O1310  O     0.70724   0.92692   0.27302   0.00000  Uiso   1.00
O1311  O     0.57307   0.70724   0.72698   0.00000  Uiso   1.00
O1312  O     0.92692   0.79275   0.27302   0.00000  Uiso   1.00
O1313  O     0.95724   0.82307   0.77302   0.00000  Uiso   1.00
O1314  O     0.54275   0.67692   0.22698   0.00000  Uiso   1.00
O1315  O     0.67692   0.95724   0.77302   0.00000  Uiso   1.00
O1316  O     0.82307   0.54276   0.22698   0.00000  Uiso   1.00
O1317  O     0.54275   0.67692   0.77302   0.00000  Uiso   1.00
O1318  O     0.95724   0.82307   0.22698   0.00000  Uiso   1.00
O1319  O     0.82307   0.54276   0.77302   0.00000  Uiso   1.00
O1320  O     0.67692   0.95724   0.22698   0.00000  Uiso   1.00
O1321  O     0.95724   0.67693   0.22698   0.00000  Uiso   1.00
O1322  O     0.54275   0.82307   0.77302   0.00000  Uiso   1.00
O1323  O     0.67692   0.54276   0.22698   0.00000  Uiso   1.00
O1324  O     0.82307   0.95724   0.77302   0.00000  Uiso   1.00
O1325  O     0.54275   0.82307   0.22698   0.00000  Uiso   1.00
O1326  O     0.95724   0.67693   0.77302   0.00000  Uiso   1.00
O1327  O     0.82307   0.95724   0.22698   0.00000  Uiso   1.00
O1328  O     0.67692   0.54276   0.77302   0.00000  Uiso   1.00
C1329  C     0.95583   0.69984   0.47932   0.00000  Uiso   1.00
C1330  C     0.53497   0.80734   0.52030   0.00000  Uiso   1.00
C1331  C     0.80172   0.95757   0.47982   0.00000  Uiso   1.00
C1332  C     0.69604   0.54041   0.51908   0.00000  Uiso   1.00
C1333  C     0.53942   0.80478   0.47994   0.00000  Uiso   1.00
C1334  C     0.96077   0.69583   0.51943   0.00000  Uiso   1.00
C1335  C     0.70023   0.54507   0.47894   0.00000  Uiso   1.00
C1336  C     0.80563   0.96310   0.51983   0.00000  Uiso   1.00
C1337  C     0.70346   0.95176   0.97949   0.00000  Uiso   1.00
C1338  C     0.79180   0.55233   0.01951   0.00000  Uiso   1.00
C1339  C     0.55735   0.71454   0.98031   0.00000  Uiso   1.00
C1340  C     0.94477   0.78859   0.01892   0.00000  Uiso   1.00
C1341  C     0.79655   0.54823   0.97941   0.00000  Uiso   1.00
C1342  C     0.70820   0.94766   0.01959   0.00000  Uiso   1.00
C1343  C     0.94890   0.79336   0.97877   0.00000  Uiso   1.00
C1344  C     0.55976   0.71969   0.02059   0.00000  Uiso   1.00
C1345  C     0.75001   0.99998   0.35568   0.00000  Uiso   1.00
C1346  C     0.74974   0.50006   0.64410   0.00000  Uiso   1.00
C1347  C     0.50001   0.75032   0.35571   0.00000  Uiso   1.00
C1348  C     0.99998   0.74991   0.64411   0.00000  Uiso   1.00
C1349  C     0.50030   0.74998   0.85571   0.00000  Uiso   1.00
C1350  C     0.99966   0.75008   0.14413   0.00000  Uiso   1.00
C1351  C     0.75000   0.50000   0.85569   0.00000  Uiso   1.00
C1352  C     0.75000   0.50000   0.14407   0.00000  Uiso   1.00
C1353  C     0.67999   0.57000   0.24999   0.00000  Uiso   1.00
C1354  C     0.82000   0.93000   0.75001   0.00000  Uiso   1.00
C1355  C     0.92999   0.68000   0.25000   0.00000  Uiso   1.00
C1356  C     0.57001   0.81999   0.75000   0.00000  Uiso   1.00
C1357  C     0.82000   0.92999   0.25000   0.00000  Uiso   1.00
C1358  C     0.68000   0.57001   0.75000   0.00000  Uiso   1.00
C1359  C     0.57000   0.82001   0.25000   0.00000  Uiso   1.00
C1360  C     0.93000   0.67999   0.75001   0.00000  Uiso   1.00
C1361  C     0.67999   0.93000   0.75000   0.00000  Uiso   1.00
C1362  C     0.82001   0.56999   0.25000   0.00000  Uiso   1.00
C1363  C     0.92999   0.82000   0.74999   0.00000  Uiso   1.00
C1364  C     0.57000   0.68000   0.25001   0.00000  Uiso   1.00
C1365  C     0.82000   0.57001   0.74999   0.00000  Uiso   1.00
C1366  C     0.68000   0.92999   0.25000   0.00000  Uiso   1.00
C1367  C     0.57000   0.67999   0.75000   0.00000  Uiso   1.00
C1368  C     0.93000   0.82001   0.25000   0.00000  Uiso   1.00
C1369  C     0.63811   0.88901   0.21449   0.00000  Uiso   1.00
C1370  C     0.86189   0.61099   0.78550   0.00000  Uiso   1.00
C1371  C     0.61104   0.63818   0.21449   0.00000  Uiso   1.00
C1372  C     0.88896   0.86183   0.78550   0.00000  Uiso   1.00
C1373  C     0.86191   0.61101   0.21449   0.00000  Uiso   1.00
C1374  C     0.63813   0.88894   0.78551   0.00000  Uiso   1.00
C1375  C     0.88896   0.86189   0.21449   0.00000  Uiso   1.00
C1376  C     0.61106   0.63812   0.78550   0.00000  Uiso   1.00
C1377  C     0.63815   0.61104   0.78551   0.00000  Uiso   1.00
C1378  C     0.86187   0.88897   0.21449   0.00000  Uiso   1.00
C1379  C     0.61106   0.86184   0.78551   0.00000  Uiso   1.00
C1380  C     0.88899   0.63811   0.21449   0.00000  Uiso   1.00
C1381  C     0.86190   0.88894   0.78551   0.00000  Uiso   1.00
C1382  C     0.63811   0.61107   0.21449   0.00000  Uiso   1.00
C1383  C     0.88898   0.63806   0.78551   0.00000  Uiso   1.00
C1384  C     0.61102   0.86193   0.21449   0.00000  Uiso   1.00
C1385  C     0.88810   0.63902   0.71449   0.00000  Uiso   1.00
C1386  C     0.61186   0.86102   0.28550   0.00000  Uiso   1.00
C1387  C     0.86103   0.88816   0.71449   0.00000  Uiso   1.00
C1388  C     0.63895   0.61182   0.28550   0.00000  Uiso   1.00
C1389  C     0.61188   0.86105   0.71450   0.00000  Uiso   1.00
C1390  C     0.88811   0.63897   0.28551   0.00000  Uiso   1.00
C1391  C     0.63897   0.61190   0.71449   0.00000  Uiso   1.00
C1392  C     0.86106   0.88812   0.28551   0.00000  Uiso   1.00
C1393  C     0.88816   0.86105   0.28551   0.00000  Uiso   1.00
C1394  C     0.61188   0.63897   0.71449   0.00000  Uiso   1.00
C1395  C     0.86103   0.61187   0.28551   0.00000  Uiso   1.00
C1396  C     0.63895   0.88814   0.71450   0.00000  Uiso   1.00
C1397  C     0.61188   0.63892   0.28551   0.00000  Uiso   1.00
C1398  C     0.88809   0.86106   0.71449   0.00000  Uiso   1.00
C1399  C     0.63896   0.88809   0.28551   0.00000  Uiso   1.00
C1400  C     0.86100   0.61195   0.71449   0.00000  Uiso   1.00
C1401  C     0.97796   0.72480   0.45844   0.00000  Uiso   1.00
C1402  C     0.51855   0.77815   0.54089   0.00000  Uiso   1.00
C1403  C     0.77681   0.97944   0.45854   0.00000  Uiso   1.00
C1404  C     0.72321   0.52119   0.54041   0.00000  Uiso   1.00
C1405  C     0.51877   0.77868   0.45874   0.00000  Uiso   1.00
C1406  C     0.97881   0.72369   0.54065   0.00000  Uiso   1.00
C1407  C     0.72436   0.52200   0.45825   0.00000  Uiso   1.00
C1408  C     0.77749   0.98097   0.54078   0.00000  Uiso   1.00
C1409  C     0.72723   0.97502   0.95843   0.00000  Uiso   1.00
C1410  C     0.77198   0.52558   0.04057   0.00000  Uiso   1.00
C1411  C     0.53000   0.73335   0.95887   0.00000  Uiso   1.00
C1412  C     0.97276   0.77075   0.04043   0.00000  Uiso   1.00
C1413  C     0.77278   0.52496   0.95839   0.00000  Uiso   1.00
C1414  C     0.72801   0.97441   0.04061   0.00000  Uiso   1.00
C1415  C     0.97437   0.77164   0.95826   0.00000  Uiso   1.00
C1416  C     0.52959   0.73431   0.04108   0.00000  Uiso   1.00
C1417  C     0.59808   0.84811   0.24999   0.00000  Uiso   1.00
C1418  C     0.90192   0.65190   0.75000   0.00000  Uiso   1.00
C1419  C     0.65190   0.59808   0.24999   0.00000  Uiso   1.00
C1420  C     0.84810   0.90192   0.75000   0.00000  Uiso   1.00
C1421  C     0.90190   0.65192   0.25000   0.00000  Uiso   1.00
C1422  C     0.59810   0.84807   0.75000   0.00000  Uiso   1.00
C1423  C     0.84809   0.90190   0.25000   0.00000  Uiso   1.00
C1424  C     0.65193   0.59811   0.75000   0.00000  Uiso   1.00
C1425  C     0.59809   0.65190   0.75000   0.00000  Uiso   1.00
C1426  C     0.90193   0.84811   0.25000   0.00000  Uiso   1.00
C1427  C     0.65190   0.90191   0.75000   0.00000  Uiso   1.00
C1428  C     0.84810   0.59807   0.25000   0.00000  Uiso   1.00
C1429  C     0.90189   0.84808   0.74999   0.00000  Uiso   1.00
C1430  C     0.59810   0.65193   0.25001   0.00000  Uiso   1.00
C1431  C     0.84808   0.59810   0.74999   0.00000  Uiso   1.00
C1432  C     0.65191   0.90191   0.25000   0.00000  Uiso   1.00
C1433  C     0.99840   0.75158   0.47913   0.00000  Uiso   1.00
C1434  C     0.99853   0.75117   0.52021   0.00000  Uiso   1.00
C1435  C     0.75057   0.50086   0.47897   0.00000  Uiso   1.00
C1436  C     0.75045   0.50105   0.52008   0.00000  Uiso   1.00
C1437  C     0.75000   0.99999   0.97896   0.00000  Uiso   1.00
C1438  C     0.75000   0.50000   0.02005   0.00000  Uiso   1.00
C1439  C     0.50201   0.75260   0.97912   0.00000  Uiso   1.00
C1440  C     0.50150   0.75265   0.02022   0.00000  Uiso   1.00
C1441  C     0.92300   0.68134   0.46107   0.00000  Uiso   1.00
H1442  H     0.90921   0.70017   0.44052   0.00000  Uiso   1.00
H1443  H     0.93082   0.65539   0.44679   0.00000  Uiso   1.00
H1444  H     0.90194   0.67480   0.48319   0.00000  Uiso   1.00
C1445  C     0.54194   0.84401   0.53941   0.00000  Uiso   1.00
H1446  H     0.52059   0.84991   0.56134   0.00000  Uiso   1.00
H1447  H     0.56965   0.84510   0.55232   0.00000  Uiso   1.00
H1448  H     0.53967   0.86670   0.51816   0.00000  Uiso   1.00
C1449  C     0.82045   0.92454   0.46226   0.00000  Uiso   1.00
H1450  H     0.80147   0.90990   0.44259   0.00000  Uiso   1.00
H1451  H     0.84604   0.93235   0.44723   0.00000  Uiso   1.00
H1452  H     0.82776   0.90418   0.48485   0.00000  Uiso   1.00
C1453  C     0.66063   0.55347   0.53737   0.00000  Uiso   1.00
H1454  H     0.63864   0.55675   0.51547   0.00000  Uiso   1.00
H1455  H     0.65009   0.53278   0.55809   0.00000  Uiso   1.00
H1456  H     0.66468   0.58021   0.55187   0.00000  Uiso   1.00
C1457  C     0.56885   0.82803   0.46110   0.00000  Uiso   1.00
H1458  H     0.58473   0.81159   0.43996   0.00000  Uiso   1.00
H1459  H     0.55659   0.85232   0.44691   0.00000  Uiso   1.00
H1460  H     0.58927   0.83773   0.48254   0.00000  Uiso   1.00
C1461  C     0.95182   0.65896   0.53713   0.00000  Uiso   1.00
H1462  H     0.97394   0.65026   0.55708   0.00000  Uiso   1.00
H1463  H     0.92492   0.65940   0.55185   0.00000  Uiso   1.00
H1464  H     0.95072   0.63726   0.51469   0.00000  Uiso   1.00
C1465  C     0.68341   0.57867   0.46033   0.00000  Uiso   1.00
H1466  H     0.70266   0.59103   0.43923   0.00000  Uiso   1.00
H1467  H     0.65687   0.57209   0.44655   0.00000  Uiso   1.00
H1468  H     0.67853   0.60048   0.48208   0.00000  Uiso   1.00
C1469  C     0.84264   0.95500   0.53765   0.00000  Uiso   1.00
H1470  H     0.85074   0.97724   0.55770   0.00000  Uiso   1.00
H1471  H     0.84283   0.92805   0.55230   0.00000  Uiso   1.00
H1472  H     0.86439   0.95450   0.51521   0.00000  Uiso   1.00
C1473  C     0.66942   0.93535   0.96146   0.00000  Uiso   1.00
H1474  H     0.65660   0.95510   0.94120   0.00000  Uiso   1.00
H1475  H     0.67557   0.90907   0.94695   0.00000  Uiso   1.00
H1476  H     0.64819   0.92989   0.98372   0.00000  Uiso   1.00
C1477  C     0.80301   0.58846   0.03741   0.00000  Uiso   1.00
H1478  H     0.78168   0.59819   0.05778   0.00000  Uiso   1.00
H1479  H     0.83002   0.58639   0.05174   0.00000  Uiso   1.00
H1480  H     0.80502   0.61026   0.01510   0.00000  Uiso   1.00
C1481  C     0.58241   0.68644   0.96186   0.00000  Uiso   1.00
H1482  H     0.59381   0.66722   0.98362   0.00000  Uiso   1.00
H1483  H     0.56689   0.66899   0.94134   0.00000  Uiso   1.00
H1484  H     0.60561   0.70008   0.94706   0.00000  Uiso   1.00
C1485  C     0.90874   0.80006   0.03703   0.00000  Uiso   1.00
H1486  H     0.88680   0.80289   0.01501   0.00000  Uiso   1.00
H1487  H     0.89878   0.77867   0.05726   0.00000  Uiso   1.00
H1488  H     0.91169   0.82670   0.05203   0.00000  Uiso   1.00
C1489  C     0.83059   0.56463   0.96137   0.00000  Uiso   1.00
H1490  H     0.84341   0.54488   0.94115   0.00000  Uiso   1.00
H1491  H     0.82445   0.59091   0.94681   0.00000  Uiso   1.00
H1492  H     0.85182   0.57009   0.98363   0.00000  Uiso   1.00
C1493  C     0.69699   0.91153   0.03756   0.00000  Uiso   1.00
H1494  H     0.71832   0.90181   0.05796   0.00000  Uiso   1.00
H1495  H     0.66998   0.91361   0.05188   0.00000  Uiso   1.00
H1496  H     0.69498   0.88973   0.01529   0.00000  Uiso   1.00
C1497  C     0.93048   0.82598   0.95991   0.00000  Uiso   1.00
H1498  H     0.94898   0.83896   0.93847   0.00000  Uiso   1.00
H1499  H     0.90416   0.81808   0.94643   0.00000  Uiso   1.00
H1500  H     0.92483   0.84777   0.98148   0.00000  Uiso   1.00
C1501  C     0.59691   0.71556   0.03961   0.00000  Uiso   1.00
H1502  H     0.60134   0.73749   0.06128   0.00000  Uiso   1.00
H1503  H     0.60006   0.68813   0.05282   0.00000  Uiso   1.00
H1504  H     0.61927   0.71927   0.01822   0.00000  Uiso   1.00
N1505  N     0.65258   0.90286   0.17865   0.00000  Uiso   1.00
H1506  H     0.66396   0.88127   0.16297   0.00000  Uiso   1.00
H1507  H     0.63130   0.91427   0.16250   0.00000  Uiso   1.00
N1508  N     0.84743   0.59713   0.82134   0.00000  Uiso   1.00
H1509  H     0.83604   0.61871   0.83703   0.00000  Uiso   1.00
H1510  H     0.86872   0.58573   0.83750   0.00000  Uiso   1.00
N1511  N     0.59725   0.65272   0.17866   0.00000  Uiso   1.00
H1512  H     0.61886   0.66413   0.16301   0.00000  Uiso   1.00
H1513  H     0.58587   0.63147   0.16247   0.00000  Uiso   1.00
N1514  N     0.90276   0.84731   0.82134   0.00000  Uiso   1.00
H1515  H     0.88116   0.83590   0.83699   0.00000  Uiso   1.00
H1516  H     0.91414   0.86856   0.83752   0.00000  Uiso   1.00
N1517  N     0.84747   0.59719   0.17865   0.00000  Uiso   1.00
H1518  H     0.83609   0.61878   0.16295   0.00000  Uiso   1.00
H1519  H     0.86877   0.58580   0.16253   0.00000  Uiso   1.00
N1520  N     0.65261   0.90272   0.82135   0.00000  Uiso   1.00
H1521  H     0.66402   0.88112   0.83701   0.00000  Uiso   1.00
H1522  H     0.63132   0.91407   0.83752   0.00000  Uiso   1.00
N1523  N     0.90277   0.84743   0.17866   0.00000  Uiso   1.00
H1524  H     0.88117   0.83602   0.16301   0.00000  Uiso   1.00
H1525  H     0.91413   0.86871   0.16247   0.00000  Uiso   1.00
N1526  N     0.59728   0.65260   0.82134   0.00000  Uiso   1.00
H1527  H     0.61889   0.66402   0.83696   0.00000  Uiso   1.00
H1528  H     0.58593   0.63132   0.83755   0.00000  Uiso   1.00
N1529  N     0.65263   0.59723   0.82135   0.00000  Uiso   1.00
H1530  H     0.66400   0.61885   0.83698   0.00000  Uiso   1.00
H1531  H     0.63134   0.58586   0.83751   0.00000  Uiso   1.00
N1532  N     0.84740   0.90278   0.17865   0.00000  Uiso   1.00
H1533  H     0.83603   0.88117   0.16301   0.00000  Uiso   1.00
H1534  H     0.86869   0.91416   0.16250   0.00000  Uiso   1.00
N1535  N     0.59727   0.84734   0.82135   0.00000  Uiso   1.00
H1536  H     0.61890   0.83595   0.83700   0.00000  Uiso   1.00
H1537  H     0.58591   0.86862   0.83751   0.00000  Uiso   1.00
N1538  N     0.90281   0.65256   0.17865   0.00000  Uiso   1.00
H1539  H     0.88120   0.66393   0.16297   0.00000  Uiso   1.00
H1540  H     0.91418   0.63126   0.16254   0.00000  Uiso   1.00
N1541  N     0.84745   0.90272   0.82135   0.00000  Uiso   1.00
H1542  H     0.83607   0.88109   0.83701   0.00000  Uiso   1.00
H1543  H     0.86877   0.91405   0.83750   0.00000  Uiso   1.00
N1544  N     0.65256   0.59730   0.17865   0.00000  Uiso   1.00
H1545  H     0.66394   0.61892   0.16300   0.00000  Uiso   1.00
H1546  H     0.63124   0.58597   0.16250   0.00000  Uiso   1.00
N1547  N     0.90282   0.65246   0.82135   0.00000  Uiso   1.00
H1548  H     0.88121   0.66382   0.83702   0.00000  Uiso   1.00
H1549  H     0.91417   0.63113   0.83748   0.00000  Uiso   1.00
N1550  N     0.59720   0.84752   0.17864   0.00000  Uiso   1.00
H1551  H     0.61881   0.83615   0.16299   0.00000  Uiso   1.00
H1552  H     0.58585   0.86885   0.16250   0.00000  Uiso   1.00
N1553  N     0.90256   0.65288   0.67865   0.00000  Uiso   1.00
H1554  H     0.91393   0.63130   0.66296   0.00000  Uiso   1.00
H1555  H     0.88127   0.66430   0.66251   0.00000  Uiso   1.00
N1556  N     0.59736   0.84721   0.32134   0.00000  Uiso   1.00
H1557  H     0.58595   0.86880   0.33698   0.00000  Uiso   1.00
H1558  H     0.61863   0.83582   0.33753   0.00000  Uiso   1.00
N1559  N     0.84721   0.90268   0.67865   0.00000  Uiso   1.00
H1560  H     0.86882   0.91408   0.66299   0.00000  Uiso   1.00
H1561  H     0.83582   0.88142   0.66249   0.00000  Uiso   1.00
N1562  N     0.65275   0.59729   0.32134   0.00000  Uiso   1.00
H1563  H     0.63114   0.58588   0.33698   0.00000  Uiso   1.00
H1564  H     0.66412   0.61854   0.33753   0.00000  Uiso   1.00
N1565  N     0.59740   0.84726   0.67866   0.00000  Uiso   1.00
H1566  H     0.58599   0.86887   0.66299   0.00000  Uiso   1.00
H1567  H     0.61867   0.83590   0.66249   0.00000  Uiso   1.00
N1568  N     0.90256   0.65277   0.32135   0.00000  Uiso   1.00
H1569  H     0.91397   0.63117   0.33703   0.00000  Uiso   1.00
H1570  H     0.88127   0.66413   0.33750   0.00000  Uiso   1.00
N1571  N     0.65279   0.59745   0.67865   0.00000  Uiso   1.00
H1572  H     0.63120   0.58605   0.66299   0.00000  Uiso   1.00
H1573  H     0.66416   0.61874   0.66248   0.00000  Uiso   1.00
N1574  N     0.84727   0.90259   0.32135   0.00000  Uiso   1.00
H1575  H     0.86888   0.91401   0.33698   0.00000  Uiso   1.00
H1576  H     0.83593   0.88131   0.33755   0.00000  Uiso   1.00
N1577  N     0.90265   0.84725   0.32135   0.00000  Uiso   1.00
H1578  H     0.91403   0.86887   0.33698   0.00000  Uiso   1.00
H1579  H     0.88137   0.83588   0.33753   0.00000  Uiso   1.00
N1580  N     0.59741   0.65279   0.67864   0.00000  Uiso   1.00
H1581  H     0.58604   0.63118   0.66300   0.00000  Uiso   1.00
H1582  H     0.61870   0.66417   0.66249   0.00000  Uiso   1.00
N1583  N     0.84721   0.59741   0.32135   0.00000  Uiso   1.00
H1584  H     0.86882   0.58604   0.33703   0.00000  Uiso   1.00
H1585  H     0.83583   0.61871   0.33747   0.00000  Uiso   1.00
N1586  N     0.65275   0.90262   0.67865   0.00000  Uiso   1.00
H1587  H     0.63113   0.91400   0.66300   0.00000  Uiso   1.00
H1588  H     0.66411   0.88133   0.66251   0.00000  Uiso   1.00
N1589  N     0.59743   0.65269   0.32135   0.00000  Uiso   1.00
H1590  H     0.58604   0.63106   0.33699   0.00000  Uiso   1.00
H1591  H     0.61873   0.66402   0.33751   0.00000  Uiso   1.00
N1592  N     0.90253   0.84727   0.67864   0.00000  Uiso   1.00
H1593  H     0.91391   0.86889   0.66299   0.00000  Uiso   1.00
H1594  H     0.88121   0.83594   0.66250   0.00000  Uiso   1.00
N1595  N     0.65277   0.90251   0.32135   0.00000  Uiso   1.00
H1596  H     0.63115   0.91388   0.33700   0.00000  Uiso   1.00
H1597  H     0.66411   0.88119   0.33750   0.00000  Uiso   1.00
N1598  N     0.84716   0.59756   0.67864   0.00000  Uiso   1.00
H1599  H     0.86876   0.58621   0.66296   0.00000  Uiso   1.00
H1600  H     0.83580   0.61890   0.66253   0.00000  Uiso   1.00
N1601  N     0.52886   0.81104   0.39641   0.00000  Uiso   1.00
H1602  H     0.54993   0.80339   0.37769   0.00000  Uiso   1.00
H1603  H     0.50711   0.82135   0.38008   0.00000  Uiso   1.00
N1604  N     0.94883   0.70754   0.60358   0.00000  Uiso   1.00
H1605  H     0.95631   0.68056   0.60905   0.00000  Uiso   1.00
H1606  H     0.92349   0.70978   0.58986   0.00000  Uiso   1.00
N1607  N     0.69039   0.52804   0.39553   0.00000  Uiso   1.00
H1608  H     0.69057   0.55580   0.38876   0.00000  Uiso   1.00
H1609  H     0.66676   0.52033   0.41042   0.00000  Uiso   1.00
N1610  N     0.79349   0.95065   0.60353   0.00000  Uiso   1.00
H1611  H     0.82027   0.95864   0.60929   0.00000  Uiso   1.00
H1612  H     0.79188   0.92538   0.58959   0.00000  Uiso   1.00
N1613  N     0.97249   0.69083   0.39569   0.00000  Uiso   1.00
H1614  H     0.94462   0.69027   0.38953   0.00000  Uiso   1.00
H1615  H     0.98126   0.66734   0.41016   0.00000  Uiso   1.00
N1616  N     0.55106   0.79221   0.60284   0.00000  Uiso   1.00
H1617  H     0.54330   0.81860   0.61063   0.00000  Uiso   1.00
H1618  H     0.57546   0.79179   0.58713   0.00000  Uiso   1.00
N1619  N     0.80965   0.97172   0.39524   0.00000  Uiso   1.00
H1620  H     0.80986   0.94366   0.39022   0.00000  Uiso   1.00
H1621  H     0.83351   0.98089   0.40870   0.00000  Uiso   1.00
N1622  N     0.70244   0.54812   0.60240   0.00000  Uiso   1.00
H1623  H     0.71882   0.56820   0.61504   0.00000  Uiso   1.00
H1624  H     0.68763   0.53420   0.62370   0.00000  Uiso   1.00
N1625  N     0.78142   0.55798   0.89538   0.00000  Uiso   1.00
H1626  H     0.80934   0.55658   0.88965   0.00000  Uiso   1.00
H1627  H     0.77405   0.58215   0.90943   0.00000  Uiso   1.00
N1628  N     0.69606   0.96125   0.10311   0.00000  Uiso   1.00
H1629  H     0.70162   0.93391   0.10917   0.00000  Uiso   1.00
H1630  H     0.67118   0.96494   0.08880   0.00000  Uiso   1.00
N1631  N     0.93969   0.77487   0.89579   0.00000  Uiso   1.00
H1632  H     0.93830   0.80249   0.88858   0.00000  Uiso   1.00
H1633  H     0.91664   0.76613   0.91106   0.00000  Uiso   1.00
N1634  N     0.54609   0.70324   0.10325   0.00000  Uiso   1.00
H1635  H     0.57185   0.71304   0.11083   0.00000  Uiso   1.00
H1636  H     0.54741   0.67874   0.08781   0.00000  Uiso   1.00
N1637  N     0.71859   0.94201   0.89547   0.00000  Uiso   1.00
H1638  H     0.69068   0.94340   0.88973   0.00000  Uiso   1.00
H1639  H     0.72597   0.91784   0.90957   0.00000  Uiso   1.00
N1640  N     0.80393   0.53875   0.10305   0.00000  Uiso   1.00
H1641  H     0.79837   0.56609   0.10907   0.00000  Uiso   1.00
H1642  H     0.82882   0.53506   0.08876   0.00000  Uiso   1.00
N1643  N     0.56207   0.72337   0.89629   0.00000  Uiso   1.00
H1644  H     0.57154   0.74526   0.87961   0.00000  Uiso   1.00
H1645  H     0.55484   0.70191   0.87787   0.00000  Uiso   1.00
N1646  N     0.94966   0.79531   0.10273   0.00000  Uiso   1.00
H1647  H     0.96468   0.81607   0.11602   0.00000  Uiso   1.00
H1648  H     0.93561   0.78011   0.12362   0.00000  Uiso   1.00
loop_
_geom_bond_atom_site_label_1
_geom_bond_atom_site_label_2
_geom_bond_distance
_geom_bond_site_symmetry_2
_ccdc_geom_bond_type
Zn1    O87     1.935   .     S
Zn1    O56     1.952   .     S
Zn1    O41     1.948   .     S
Zn1    O908    1.935   1_545 S
Zn2    O83     1.935   .     S
Zn2    O55     1.952   .     S
Zn2    O42     1.948   .     S
Zn2    O912    1.935   1_545 S
Zn3    O497    1.935   1_455 S
Zn3    O43     1.949   .     S
Zn3    O58     1.952   .     S
Zn3    O78     1.935   .     S
Zn4    O86     1.935   .     S
Zn4    O44     1.949   .     S
Zn4    O57     1.952   .     S
Zn4    O489    1.935   1_455 S
Zn5    O60     1.952   .     S
Zn5    O80     1.935   .     S
Zn5    O41     1.948   .     S
Zn5    O915    1.935   1_545 S
Zn6    O42     1.948   .     S
Zn6    O92     1.935   .     S
Zn6    O59     1.952   .     S
Zn6    O903    1.935   1_545 S
Zn7    O494    1.935   1_455 S
Zn7    O43     1.947   .     S
Zn7    O54     1.953   .     S
Zn7    O89     1.935   .     S
Zn8    O53     1.953   .     S
Zn8    O502    1.935   1_455 S
Zn8    O44     1.947   .     S
Zn8    O81     1.935   .     S
Zn9    O48     1.952   .     S
Zn9    O71     1.935   .     S
Zn9    O68     1.935   .     S
Zn9    O456    1.948   .     S
Zn10   O47     1.952   .     S
Zn10   O72     1.935   .     S
Zn10   O67     1.935   .     S
Zn10   O43     1.948   .     S
Zn11   O62     1.935   .     S
Zn11   O69     1.935   .     S
Zn11   O50     1.952   .     S
Zn11   O866    1.949   .     S
Zn12   O49     1.952   .     S
Zn12   O70     1.935   .     S
Zn12   O41     1.949   .     S
Zn12   O61     1.935   .     S
Zn13   O75     1.935   .     S
Zn13   O52     1.952   .     S
Zn13   O64     1.935   .     S
Zn13   O44     1.948   .     S
Zn14   O76     1.935   .     S
Zn14   O51     1.952   .     S
Zn14   O63     1.935   .     S
Zn14   O455    1.948   .     S
Zn15   O66     1.935   .     S
Zn15   O73     1.935   .     S
Zn15   O42     1.947   .     S
Zn15   O46     1.953   .     S
Zn16   O45     1.953   .     S
Zn16   O65     1.935   .     S
Zn16   O74     1.935   .     S
Zn16   O865    1.947   .     S
C17    N365    1.438   .     S
C17    C169    1.414   .     A
C17    C445    1.400   1_455 S
C18    C170    1.419   .     A
C18    C34     1.401   .     A
C18    N368    1.438   .     S
C19    N371    1.439   .     S
C19    C171    1.416   .     A
C19    C859    1.392   1_545 S
C20    N374    1.438   .     S
C20    C172    1.418   .     A
C20    C860    1.400   .     S
C21    C33     1.394   .     A
C21    C165    1.417   .     A
C21    N377    1.439   .     S
C22    C166    1.417   .     A
C22    N380    1.439   .     S
C22    C446    1.399   1_455 S
C23    C167    1.418   .     A
C23    N383    1.438   .     S
C23    C35     1.394   .     A
C24    C36     1.407   .     A
C24    C168    1.415   .     A
C24    N386    1.437   .     S
C25    N389    1.438   .     S
C25    C177    1.417   .     A
C25    C861    1.393   1_545 S
C26    N392    1.438   .     S
C26    C178    1.417   .     A
C26    C862    1.401   .     S
C27    C179    1.416   .     A
C27    N395    1.439   .     S
C27    C451    1.393   .     S
C28    C180    1.417   .     A
C28    N398    1.439   .     S
C28    C452    1.398   1_455 S
C29    N401    1.438   .     S
C29    C37     1.393   .     A
C29    C173    1.417   .     A
C30    C38     1.401   .     A
C30    C174    1.417   .     A
C30    N404    1.438   .     S
C31    N407    1.438   .     S
C31    C39     1.401   .     A
C31    C175    1.416   .     A
C32    C176    1.417   .     A
C32    N410    1.437   .     S
C32    C40     1.406   .     A
C33    C429    1.400   .     S
C33    C523    1.456   .     S
C34    C112    1.466   .     S
C34    C434    1.399   .     S
C35    C109    1.454   .     S
C35    C843    1.392   .     S
C36    C110    1.467   .     S
C36    C844    1.400   1_545 S
C37    C939    1.454   .     S
C37    C849    1.393   .     S
C38    C850    1.401   1_545 S
C38    C116    1.468   .     S
C39    C113    1.456   .     S
C39    C439    1.393   1_455 S
C40    C114    1.465   .     S
C40    C440    1.398   .     S
O41    Zn840   1.947   1_545 S
O42    Zn835   1.949   1_545 S
O43    Zn426   1.948   1_455 S
O44    Zn421   1.948   1_455 S
O45    C109    1.276   .     A
O46    C110    1.278   .     A
O47    C111    1.276   .     A
O48    C112    1.279   .     A
O49    C933    1.276   1_545 S
O50    C934    1.281   .     S
O51    C523    1.277   .     S
O52    C524    1.280   1_455 S
O53    C113    1.276   .     S
O54    C526    1.277   1_455 S
O55    C115    1.276   .     S
O56    C116    1.280   .     S
O57    C113    1.277   .     S
O58    C526    1.281   1_455 S
O59    C115    1.276   .     S
O60    C116    1.280   .     S
O61    C117    1.280   .     A
O62    C118    1.280   .     A
O63    C119    1.281   .     A
O64    C120    1.281   .     A
O65    C121    1.280   .     A
O66    C122    1.280   .     A
O67    C123    1.280   .     A
O68    C124    1.280   .     A
O69    C125    1.280   .     A
O70    C126    1.280   .     A
O71    C127    1.280   .     A
O72    C128    1.280   .     A
O73    C129    1.280   .     A
O74    C130    1.280   .     A
O75    C131    1.280   .     A
O76    C132    1.280   .     A
O77    C127    1.280   .     A
O77    Zn416   1.935   .     S
O78    C128    1.280   .     A
O79    C125    1.281   .     A
O79    Zn830   1.935   .     S
O80    C126    1.281   .     A
O81    C131    1.280   .     A
O82    C132    1.280   .     A
O82    Zn419   1.935   .     S
O83    C129    1.280   .     A
O84    C130    1.280   .     A
O84    Zn825   1.935   .     S
O85    Zn415   1.935   .     S
O85    C119    1.280   .     A
O86    C120    1.280   .     A
O87    C117    1.280   .     A
O88    C118    1.280   .     A
O88    Zn826   1.935   .     S
O89    C123    1.280   .     A
O90    C124    1.280   .     A
O90    Zn420   1.935   .     S
O91    C121    1.280   .     A
O91    Zn829   1.935   .     S
O92    C122    1.280   .     A
C93    C205    1.517   .     S
C93    C165    1.418   .     A
C93    C98     1.402   .     A
C94    C97     1.404   .     A
C94    C166    1.417   .     A
C94    C209    1.518   .     S
C95    C167    1.418   .     A
C95    C100    1.402   .     A
C95    C213    1.517   .     S
C96    C99     1.403   .     A
C96    C168    1.423   .     A
C96    C217    1.520   .     S
C97    C169    1.422   .     A
C97    C221    1.519   .     S
C98    C170    1.419   .     A
C98    C225    1.517   .     S
C99    C229    1.518   .     S
C99    C171    1.416   .     A
C100   C172    1.419   .     A
C100   C233    1.517   .     S
C101   C173    1.418   .     A
C101   C237    1.517   .     S
C101   C106    1.402   1_556 S
C102   C241    1.517   .     S
C102   C174    1.419   .     A
C102   C105    1.402   1_554 S
C103   C175    1.422   .     A
C103   C245    1.519   .     S
C103   C108    1.404   1_556 S
C104   C176    1.424   .     A
C104   C249    1.520   .     S
C104   C107    1.404   1_554 S
C105   C253    1.517   .     S
C105   C177    1.418   .     A
C105   C102    1.402   1_556 S
C106   C178    1.419   .     A
C106   C257    1.517   .     S
C106   C101    1.402   1_554 S
C107   C179    1.416   .     A
C107   C261    1.518   .     S
C107   C104    1.404   1_556 S
C108   C265    1.518   .     S
C108   C180    1.417   .     A
C108   C103    1.404   1_554 S
C109   O873    1.276   .     S
C110   O874    1.281   1_545 S
C111   C445    1.456   1_455 S
C111   O463    1.277   1_455 S
C112   O464    1.280   .     S
C114   O466    1.277   .     S
C114   O470    1.281   .     S
C115   C861    1.454   1_545 S
C117   C183    1.455   .     S
C118   C184    1.455   .     S
C119   C185    1.455   .     S
C120   C186    1.455   .     S
C121   C187    1.455   .     S
C122   C188    1.455   .     S
C123   C181    1.455   .     S
C124   C182    1.455   .     S
C125   C191    1.455   .     S
C126   C192    1.455   .     S
C127   C193    1.455   .     S
C128   C194    1.455   .     S
C129   C195    1.455   .     S
C130   C196    1.455   .     S
C131   C189    1.455   .     S
C132   C190    1.455   .     S
C133   C196    1.407   .     A
C133   N269    1.437   .     S
C133   C148    1.403   .     A
C134   N272    1.437   .     S
C134   C147    1.403   .     A
C134   C195    1.407   .     A
C135   C146    1.403   .     A
C135   N275    1.437   .     S
C135   C194    1.407   .     A
C136   N278    1.437   .     S
C136   C145    1.403   .     A
C136   C193    1.407   .     A
C137   N281    1.437   .     S
C137   C144    1.403   .     A
C137   C192    1.407   .     A
C138   C143    1.403   .     A
C138   C191    1.407   .     A
C138   N284    1.437   .     S
C139   C142    1.403   .     A
C139   C190    1.407   .     A
C139   N287    1.437   .     S
C140   C141    1.403   .     A
C140   C189    1.407   .     A
C140   N290    1.437   .     S
C141   N293    1.437   .     S
C141   C188    1.407   .     A
C142   N296    1.437   .     S
C142   C187    1.407   .     A
C143   N299    1.437   .     S
C143   C186    1.407   .     A
C144   C185    1.407   .     A
C144   N302    1.437   .     S
C145   C184    1.407   .     A
C145   N305    1.437   .     S
C146   C183    1.407   .     A
C146   N308    1.436   .     S
C147   N311    1.437   .     S
C147   C182    1.407   .     A
C148   N314    1.437   .     S
C148   C181    1.407   .     A
C149   C182    1.407   .     A
C149   N317    1.437   .     S
C149   C164    1.403   .     A
C150   C163    1.403   .     A
C150   C181    1.407   .     A
C150   N320    1.437   .     S
C151   C184    1.407   .     A
C151   N323    1.437   .     S
C151   C162    1.403   .     A
C152   C161    1.403   .     A
C152   N326    1.437   .     S
C152   C183    1.407   .     A
C153   N329    1.437   .     S
C153   C160    1.403   .     A
C153   C186    1.407   .     A
C154   C159    1.403   .     A
C154   C185    1.407   .     A
C154   N332    1.437   .     S
C155   C158    1.403   .     A
C155   N335    1.437   .     S
C155   C188    1.407   .     A
C156   N338    1.437   .     S
C156   C187    1.407   .     A
C156   C157    1.403   .     A
C157   N341    1.437   .     S
C157   C190    1.407   .     A
C158   C189    1.407   .     A
C158   N344    1.437   .     S
C159   C192    1.407   .     A
C159   N347    1.437   .     S
C160   C191    1.407   .     A
C160   N350    1.437   .     S
C161   N353    1.437   .     S
C161   C194    1.407   .     A
C162   C193    1.407   .     A
C162   N356    1.437   .     S
C163   C196    1.407   .     A
C163   N359    1.437   .     S
C164   C195    1.407   .     A
C164   N362    1.437   .     S
C165   C197    1.426   .     A
C166   C610    1.423   1_455 S
C167   C1023   1.427   .     S
C168   C200    1.426   .     A
C169   C609    1.427   1_455 S
C170   C198    1.425   .     A
C171   C199    1.425   .     A
C172   C1024   1.425   .     S
C173   C201    1.427   .     A
C174   C202    1.424   .     S
C175   C203    1.427   .     A
C176   C616    1.426   .     S
C177   C1025   1.427   1_545 S
C178   C1026   1.424   .     A
C179   C615    1.424   .     S
C180   C204    1.423   .     A
C197   C198    1.417   .     A
C197   C581    1.427   .     S
C198   C578    1.423   .     S
C199   C200    1.417   .     A
C199   C991    1.427   1_545 S
C200   C996    1.425   1_545 S
C201   C1001   1.427   .     S
C201   C1026   1.417   1_556 S
C202   C1002   1.424   1_545 A
C202   C1025   1.417   1_544 S
C203   C591    1.424   1_455 S
C203   C204    1.417   1_556 S
C204   C588    1.426   1_455 S
C204   C203    1.417   1_554 S
C205   H207    1.109   .     S
C205   H206    1.110   .     S
C205   H208    1.111   .     S
C209   H210    1.110   .     S
C209   H212    1.111   .     S
C209   H211    1.109   .     S
C213   H215    1.108   .     S
C213   H214    1.110   .     S
C213   H216    1.111   .     S
C217   H218    1.110   .     S
C217   H220    1.110   .     S
C217   H219    1.110   .     S
C221   H222    1.110   .     S
C221   H224    1.110   .     S
C221   H223    1.110   .     S
C225   H228    1.111   .     S
C225   H227    1.108   .     S
C225   H226    1.109   .     S
C229   H230    1.110   .     S
C229   H232    1.111   .     S
C229   H231    1.109   .     S
C233   H234    1.110   .     S
C233   H236    1.111   .     S
C233   H235    1.109   .     S
C237   H238    1.110   .     S
C237   H240    1.111   .     S
C237   H239    1.108   .     S
C241   H243    1.109   .     S
C241   H242    1.110   .     S
C241   H244    1.111   .     S
C245   H246    1.110   .     S
C245   H248    1.110   .     S
C245   H247    1.110   .     S
C249   H250    1.110   .     S
C249   H252    1.110   .     S
C249   H251    1.110   .     S
C253   H255    1.108   .     S
C253   H256    1.111   .     S
C253   H254    1.110   .     S
C257   H260    1.111   .     S
C257   H258    1.110   .     S
C257   H259    1.109   .     S
C261   H262    1.110   .     S
C261   H264    1.111   .     S
C261   H263    1.109   .     S
C265   H267    1.109   .     S
C265   H266    1.110   .     S
C265   H268    1.111   .     S
N269   H271    1.045   .     S
N269   H270    1.045   .     S
N272   H273    1.045   .     S
N272   H274    1.045   .     S
N275   H276    1.045   .     S
N275   H277    1.045   .     S
N278   H279    1.045   .     S
N278   H280    1.045   .     S
N281   H283    1.045   .     S
N281   H282    1.045   .     S
N284   H285    1.045   .     S
N284   H286    1.045   .     S
N287   H288    1.045   .     S
N287   H289    1.045   .     S
N290   H291    1.045   .     S
N290   H292    1.045   .     S
N293   H294    1.045   .     S
N293   H295    1.045   .     S
N296   H297    1.045   .     S
N296   H298    1.045   .     S
N299   H301    1.045   .     S
N299   H300    1.045   .     S
N302   H304    1.045   .     S
N302   H303    1.045   .     S
N305   H306    1.045   .     S
N305   H307    1.045   .     S
N308   H310    1.045   .     S
N308   H309    1.045   .     S
N311   H313    1.045   .     S
N311   H312    1.045   .     S
N314   H315    1.045   .     S
N314   H316    1.045   .     S
N317   H319    1.045   .     S
N317   H318    1.045   .     S
N320   H322    1.045   .     S
N320   H321    1.045   .     S
N323   H325    1.045   .     S
N323   H324    1.045   .     S
N326   H327    1.045   .     S
N326   H328    1.045   .     S
N329   H331    1.045   .     S
N329   H330    1.045   .     S
N332   H333    1.045   .     S
N332   H334    1.045   .     S
N335   H337    1.045   .     S
N335   H336    1.045   .     S
N338   H340    1.045   .     S
N338   H339    1.045   .     S
N341   H343    1.045   .     S
N341   H342    1.045   .     S
N344   H346    1.045   .     S
N344   H345    1.045   .     S
N347   H348    1.045   .     S
N347   H349    1.045   .     S
N350   H351    1.045   .     S
N350   H352    1.045   .     S
N353   H354    1.045   .     S
N353   H355    1.045   .     S
N356   H358    1.045   .     S
N356   H357    1.045   .     S
N359   H360    1.045   .     S
N359   H361    1.045   .     S
N362   H364    1.045   .     S
N362   H363    1.045   .     S
N365   H366    1.045   .     S
N365   H367    1.046   .     S
N368   H369    1.043   .     S
N368   H370    1.045   .     S
N371   H372    1.043   .     S
N371   H373    1.045   .     S
N374   H375    1.043   .     S
N374   H376    1.045   .     S
N377   H379    1.045   .     S
N377   H378    1.043   .     S
N380   H381    1.043   .     S
N380   H382    1.045   .     S
N383   H384    1.043   .     S
N383   H385    1.045   .     S
N386   H388    1.046   .     S
N386   H387    1.045   .     S
N389   H391    1.045   .     S
N389   H390    1.043   .     S
N392   H394    1.045   .     S
N392   H393    1.043   .     S
N395   H396    1.043   .     S
N395   H397    1.045   .     S
N398   H400    1.045   .     S
N398   H399    1.043   .     S
N401   H402    1.043   .     S
N401   H403    1.045   .     S
N404   H406    1.045   .     S
N404   H405    1.043   .     S
N407   H409    1.045   .     S
N407   H408    1.046   .     S
N410   H411    1.045   .     S
N410   H412    1.046   .     S
Zn413  O499    1.935   .     S
Zn413  O468    1.952   .     S
Zn413  O453    1.948   .     S
Zn413  O1320   1.935   1_545 S
Zn414  O495    1.935   .     S
Zn414  O467    1.952   .     S
Zn414  O454    1.948   .     S
Zn414  O1324   1.935   1_545 S
Zn415  O455    1.949   .     S
Zn415  O470    1.952   .     S
Zn415  O490    1.935   .     S
Zn416  O498    1.935   .     S
Zn416  O456    1.949   .     S
Zn416  O469    1.952   .     S
Zn417  O472    1.952   .     S
Zn417  O492    1.935   .     S
Zn417  O453    1.948   .     S
Zn417  O1327   1.935   1_545 S
Zn418  O454    1.948   .     S
Zn418  O504    1.935   .     S
Zn418  O471    1.952   .     S
Zn418  O1315   1.935   1_545 S
Zn419  O455    1.947   .     S
Zn419  O466    1.953   .     S
Zn419  O501    1.935   .     S
Zn420  O465    1.953   .     S
Zn420  O456    1.947   .     S
Zn420  O493    1.935   .     S
Zn421  O460    1.952   .     S
Zn421  O483    1.935   .     S
Zn421  O480    1.935   .     S
Zn421  O44     1.948   1_655 S
Zn422  O459    1.952   .     S
Zn422  O484    1.935   .     S
Zn422  O479    1.935   .     S
Zn422  O455    1.948   .     S
Zn423  O474    1.935   .     S
Zn423  O481    1.935   .     S
Zn423  O462    1.952   .     S
Zn423  O1278   1.949   .     S
Zn424  O461    1.952   .     S
Zn424  O482    1.935   .     S
Zn424  O453    1.949   .     S
Zn424  O473    1.935   .     S
Zn425  O487    1.935   .     S
Zn425  O464    1.952   .     S
Zn425  O476    1.935   .     S
Zn425  O456    1.948   .     S
Zn426  O488    1.935   .     S
Zn426  O463    1.952   .     S
Zn426  O475    1.935   .     S
Zn426  O43     1.948   1_655 S
Zn427  O478    1.935   .     S
Zn427  O485    1.935   .     S
Zn427  O454    1.947   .     S
Zn427  O458    1.953   .     S
Zn428  O457    1.953   .     S
Zn428  O477    1.935   .     S
Zn428  O486    1.935   .     S
Zn428  O1277   1.947   .     S
C429   N777    1.438   .     S
C429   C581    1.414   .     A
C430   C582    1.419   .     A
C430   C446    1.401   .     A
C430   N780    1.438   .     S
C431   N783    1.439   .     S
C431   C583    1.416   .     A
C431   C1271   1.392   1_545 S
C432   N786    1.438   .     S
C432   C584    1.418   .     A
C432   C1272   1.400   .     S
C433   C445    1.394   .     A
C433   C577    1.417   .     A
C433   N789    1.439   .     S
C434   C578    1.417   .     A
C434   N792    1.439   .     S
C435   C579    1.418   .     A
C435   N795    1.438   .     S
C435   C447    1.394   .     A
C436   C448    1.407   .     A
C436   C580    1.415   .     A
C436   N798    1.437   .     S
C437   N801    1.438   .     S
C437   C589    1.417   .     A
C437   C1273   1.393   1_545 S
C438   N804    1.438   .     S
C438   C590    1.417   .     A
C438   C1274   1.401   .     S
C439   C591    1.416   .     A
C439   N807    1.439   .     S
C439   C39     1.393   1_655 S
C440   C592    1.417   .     A
C440   N810    1.439   .     S
C441   N813    1.438   .     S
C441   C449    1.393   .     A
C441   C585    1.417   .     A
C442   C450    1.401   .     A
C442   C586    1.417   .     A
C442   N816    1.438   .     S
C443   N819    1.438   .     S
C443   C451    1.401   .     A
C443   C587    1.416   .     A
C444   C588    1.417   .     A
C444   N822    1.437   .     S
C444   C452    1.406   .     A
C445   C17     1.400   1_655 S
C445   C111    1.456   1_655 S
C446   C524    1.466   .     S
C446   C22     1.399   1_655 S
C447   C521    1.454   .     S
C447   C1255   1.392   .     S
C448   C522    1.467   .     S
C448   C1256   1.400   1_545 S
C449   C1351   1.454   .     S
C449   C1261   1.393   .     S
C450   C1262   1.401   1_545 S
C450   C528    1.468   .     S
C451   C525    1.456   .     S
C452   C526    1.465   .     S
C452   C28     1.398   1_655 S
O453   Zn1252  1.947   1_545 S
O454   Zn1247  1.949   1_545 S
O457   C521    1.276   .     A
O458   C522    1.278   .     A
O459   C523    1.276   .     A
O460   C524    1.279   .     A
O461   C1345   1.276   1_545 S
O462   C1346   1.281   .     S
O463   C111    1.277   1_655 S
O465   C525    1.276   .     S
O467   C527    1.276   .     S
O468   C528    1.280   .     S
O469   C525    1.277   .     S
O471   C527    1.276   .     S
O472   C528    1.280   .     S
O473   C529    1.280   .     A
O474   C530    1.280   .     A
O475   C531    1.281   .     A
O476   C532    1.281   .     A
O477   C533    1.280   .     A
O478   C534    1.280   .     A
O479   C535    1.280   .     A
O480   C536    1.280   .     A
O481   C537    1.280   .     A
O482   C538    1.280   .     A
O483   C539    1.280   .     A
O484   C540    1.280   .     A
O485   C541    1.280   .     A
O486   C542    1.280   .     A
O487   C543    1.280   .     A
O488   C544    1.280   .     A
O489   C539    1.280   .     A
O489   Zn4     1.935   1_655 S
O490   C540    1.280   .     A
O491   C537    1.281   .     A
O491   Zn1242  1.935   .     S
O492   C538    1.281   .     A
O493   C543    1.280   .     A
O494   C544    1.280   .     A
O494   Zn7     1.935   1_655 S
O495   C541    1.280   .     A
O496   C542    1.280   .     A
O496   Zn1237  1.935   .     S
O497   Zn3     1.935   1_655 S
O497   C531    1.280   .     A
O498   C532    1.280   .     A
O499   C529    1.280   .     A
O500   C530    1.280   .     A
O500   Zn1238  1.935   .     S
O501   C535    1.280   .     A
O502   C536    1.280   .     A
O502   Zn8     1.935   1_655 S
O503   C533    1.280   .     A
O503   Zn1241  1.935   .     S
O504   C534    1.280   .     A
C505   C617    1.517   .     S
C505   C577    1.418   .     A
C505   C510    1.402   .     A
C506   C509    1.404   .     A
C506   C578    1.417   .     A
C506   C621    1.518   .     S
C507   C579    1.418   .     A
C507   C512    1.402   .     A
C507   C625    1.517   .     S
C508   C511    1.403   .     A
C508   C580    1.423   .     A
C508   C629    1.520   .     S
C509   C581    1.422   .     A
C509   C633    1.519   .     S
C510   C582    1.419   .     A
C510   C637    1.517   .     S
C511   C641    1.518   .     S
C511   C583    1.416   .     A
C512   C584    1.419   .     A
C512   C645    1.517   .     S
C513   C585    1.418   .     A
C513   C649    1.517   .     S
C513   C518    1.402   1_556 S
C514   C653    1.517   .     S
C514   C586    1.419   .     A
C514   C517    1.402   1_554 S
C515   C587    1.422   .     A
C515   C657    1.519   .     S
C515   C520    1.404   1_556 S
C516   C588    1.424   .     A
C516   C661    1.520   .     S
C516   C519    1.404   1_554 S
C517   C665    1.517   .     S
C517   C589    1.418   .     A
C517   C514    1.402   1_556 S
C518   C590    1.419   .     A
C518   C669    1.517   .     S
C518   C513    1.402   1_554 S
C519   C591    1.416   .     A
C519   C673    1.518   .     S
C519   C516    1.404   1_556 S
C520   C677    1.518   .     S
C520   C592    1.417   .     A
C520   C515    1.404   1_554 S
C521   O1285   1.276   .     S
C522   O1286   1.281   1_545 S
C524   O52     1.280   1_655 S
C526   O54     1.277   1_655 S
C526   O58     1.281   1_655 S
C527   C1273   1.454   1_545 S
C529   C595    1.455   .     S
C530   C596    1.455   .     S
C531   C597    1.455   .     S
C532   C598    1.455   .     S
C533   C599    1.455   .     S
C534   C600    1.455   .     S
C535   C593    1.455   .     S
C536   C594    1.455   .     S
C537   C603    1.455   .     S
C538   C604    1.455   .     S
C539   C605    1.455   .     S
C540   C606    1.455   .     S
C541   C607    1.455   .     S
C542   C608    1.455   .     S
C543   C601    1.455   .     S
C544   C602    1.455   .     S
C545   C608    1.407   .     A
C545   N681    1.437   .     S
C545   C560    1.403   .     A
C546   N684    1.437   .     S
C546   C559    1.403   .     A
C546   C607    1.407   .     A
C547   C558    1.403   .     A
C547   N687    1.437   .     S
C547   C606    1.407   .     A
C548   N690    1.437   .     S
C548   C557    1.403   .     A
C548   C605    1.407   .     A
C549   N693    1.437   .     S
C549   C556    1.403   .     A
C549   C604    1.407   .     A
C550   C555    1.403   .     A
C550   C603    1.407   .     A
C550   N696    1.437   .     S
C551   C554    1.403   .     A
C551   C602    1.407   .     A
C551   N699    1.437   .     S
C552   C553    1.403   .     A
C552   C601    1.407   .     A
C552   N702    1.437   .     S
C553   N705    1.437   .     S
C553   C600    1.407   .     A
C554   N708    1.437   .     S
C554   C599    1.407   .     A
C555   N711    1.437   .     S
C555   C598    1.407   .     A
C556   C597    1.407   .     A
C556   N714    1.437   .     S
C557   C596    1.407   .     A
C557   N717    1.437   .     S
C558   C595    1.407   .     A
C558   N720    1.436   .     S
C559   N723    1.437   .     S
C559   C594    1.407   .     A
C560   N726    1.437   .     S
C560   C593    1.407   .     A
C561   C594    1.407   .     A
C561   N729    1.437   .     S
C561   C576    1.403   .     A
C562   C575    1.403   .     A
C562   C593    1.407   .     A
C562   N732    1.437   .     S
C563   C596    1.407   .     A
C563   N735    1.437   .     S
C563   C574    1.403   .     A
C564   C573    1.403   .     A
C564   N738    1.437   .     S
C564   C595    1.407   .     A
C565   N741    1.437   .     S
C565   C572    1.403   .     A
C565   C598    1.407   .     A
C566   C571    1.403   .     A
C566   C597    1.407   .     A
C566   N744    1.437   .     S
C567   C570    1.403   .     A
C567   N747    1.437   .     S
C567   C600    1.407   .     A
C568   N750    1.437   .     S
C568   C599    1.407   .     A
C568   C569    1.403   .     A
C569   N753    1.437   .     S
C569   C602    1.407   .     A
C570   C601    1.407   .     A
C570   N756    1.437   .     S
C571   C604    1.407   .     A
C571   N759    1.437   .     S
C572   C603    1.407   .     A
C572   N762    1.437   .     S
C573   N765    1.437   .     S
C573   C606    1.407   .     A
C574   C605    1.407   .     A
C574   N768    1.437   .     S
C575   C608    1.407   .     A
C575   N771    1.437   .     S
C576   C607    1.407   .     A
C576   N774    1.437   .     S
C577   C609    1.426   .     A
C579   C1435   1.427   .     S
C580   C612    1.426   .     A
C582   C610    1.425   .     A
C583   C611    1.425   .     A
C584   C1436   1.425   .     S
C585   C613    1.427   .     A
C586   C614    1.424   .     S
C587   C615    1.427   .     A
C588   C204    1.426   1_655 S
C589   C1437   1.427   1_545 S
C590   C1438   1.424   .     A
C591   C203    1.424   1_655 S
C592   C616    1.423   .     A
C609   C610    1.417   .     A
C609   C169    1.427   1_655 S
C610   C166    1.423   1_655 S
C611   C612    1.417   .     A
C611   C1403   1.427   1_545 S
C612   C1408   1.425   1_545 S
C613   C1413   1.427   .     S
C613   C1438   1.417   1_556 S
C614   C1414   1.424   1_545 A
C614   C1437   1.417   1_544 S
C615   C616    1.417   1_556 S
C616   C615    1.417   1_554 S
C617   H619    1.109   .     S
C617   H618    1.110   .     S
C617   H620    1.111   .     S
C621   H622    1.110   .     S
C621   H624    1.111   .     S
C621   H623    1.109   .     S
C625   H627    1.108   .     S
C625   H626    1.110   .     S
C625   H628    1.111   .     S
C629   H630    1.110   .     S
C629   H632    1.110   .     S
C629   H631    1.110   .     S
C633   H634    1.110   .     S
C633   H636    1.110   .     S
C633   H635    1.110   .     S
C637   H640    1.111   .     S
C637   H639    1.108   .     S
C637   H638    1.109   .     S
C641   H642    1.110   .     S
C641   H644    1.111   .     S
C641   H643    1.109   .     S
C645   H646    1.110   .     S
C645   H648    1.111   .     S
C645   H647    1.109   .     S
C649   H650    1.110   .     S
C649   H652    1.111   .     S
C649   H651    1.108   .     S
C653   H655    1.109   .     S
C653   H654    1.110   .     S
C653   H656    1.111   .     S
C657   H658    1.110   .     S
C657   H660    1.110   .     S
C657   H659    1.110   .     S
C661   H662    1.110   .     S
C661   H664    1.110   .     S
C661   H663    1.110   .     S
C665   H667    1.108   .     S
C665   H668    1.111   .     S
C665   H666    1.110   .     S
C669   H672    1.111   .     S
C669   H670    1.110   .     S
C669   H671    1.109   .     S
C673   H674    1.110   .     S
C673   H676    1.111   .     S
C673   H675    1.109   .     S
C677   H679    1.109   .     S
C677   H678    1.110   .     S
C677   H680    1.111   .     S
N681   H683    1.045   .     S
N681   H682    1.045   .     S
N684   H685    1.045   .     S
N684   H686    1.045   .     S
N687   H688    1.045   .     S
N687   H689    1.045   .     S
N690   H691    1.045   .     S
N690   H692    1.045   .     S
N693   H695    1.045   .     S
N693   H694    1.045   .     S
N696   H697    1.045   .     S
N696   H698    1.045   .     S
N699   H700    1.045   .     S
N699   H701    1.045   .     S
N702   H703    1.045   .     S
N702   H704    1.045   .     S
N705   H706    1.045   .     S
N705   H707    1.045   .     S
N708   H709    1.045   .     S
N708   H710    1.045   .     S
N711   H713    1.045   .     S
N711   H712    1.045   .     S
N714   H716    1.045   .     S
N714   H715    1.045   .     S
N717   H718    1.045   .     S
N717   H719    1.045   .     S
N720   H722    1.045   .     S
N720   H721    1.045   .     S
N723   H725    1.045   .     S
N723   H724    1.045   .     S
N726   H727    1.045   .     S
N726   H728    1.045   .     S
N729   H731    1.045   .     S
N729   H730    1.045   .     S
N732   H734    1.045   .     S
N732   H733    1.045   .     S
N735   H737    1.045   .     S
N735   H736    1.045   .     S
N738   H739    1.045   .     S
N738   H740    1.045   .     S
N741   H743    1.045   .     S
N741   H742    1.045   .     S
N744   H745    1.045   .     S
N744   H746    1.045   .     S
N747   H749    1.045   .     S
N747   H748    1.045   .     S
N750   H752    1.045   .     S
N750   H751    1.045   .     S
N753   H755    1.045   .     S
N753   H754    1.045   .     S
N756   H758    1.045   .     S
N756   H757    1.045   .     S
N759   H760    1.045   .     S
N759   H761    1.045   .     S
N762   H763    1.045   .     S
N762   H764    1.045   .     S
N765   H766    1.045   .     S
N765   H767    1.045   .     S
N768   H770    1.045   .     S
N768   H769    1.045   .     S
N771   H772    1.045   .     S
N771   H773    1.045   .     S
N774   H776    1.045   .     S
N774   H775    1.045   .     S
N777   H778    1.045   .     S
N777   H779    1.046   .     S
N780   H781    1.043   .     S
N780   H782    1.045   .     S
N783   H784    1.043   .     S
N783   H785    1.045   .     S
N786   H787    1.043   .     S
N786   H788    1.045   .     S
N789   H791    1.045   .     S
N789   H790    1.043   .     S
N792   H793    1.043   .     S
N792   H794    1.045   .     S
N795   H796    1.043   .     S
N795   H797    1.045   .     S
N798   H800    1.046   .     S
N798   H799    1.045   .     S
N801   H803    1.045   .     S
N801   H802    1.043   .     S
N804   H806    1.045   .     S
N804   H805    1.043   .     S
N807   H808    1.043   .     S
N807   H809    1.045   .     S
N810   H812    1.045   .     S
N810   H811    1.043   .     S
N813   H814    1.043   .     S
N813   H815    1.045   .     S
N816   H818    1.045   .     S
N816   H817    1.043   .     S
N819   H821    1.045   .     S
N819   H820    1.046   .     S
N822   H823    1.045   .     S
N822   H824    1.046   .     S
Zn825  O911    1.935   .     S
Zn825  O880    1.952   .     S
Zn825  O865    1.948   .     S
Zn826  O907    1.935   .     S
Zn826  O879    1.952   .     S
Zn826  O866    1.948   .     S
Zn827  O1321   1.935   1_455 S
Zn827  O867    1.949   .     S
Zn827  O882    1.952   .     S
Zn827  O902    1.935   .     S
Zn828  O910    1.935   .     S
Zn828  O868    1.949   .     S
Zn828  O881    1.952   .     S
Zn828  O1313   1.935   1_455 S
Zn829  O884    1.952   .     S
Zn829  O904    1.935   .     S
Zn829  O865    1.948   .     S
Zn830  O866    1.948   .     S
Zn830  O916    1.935   .     S
Zn830  O883    1.952   .     S
Zn831  O1318   1.935   1_455 S
Zn831  O867    1.947   .     S
Zn831  O878    1.953   .     S
Zn831  O913    1.935   .     S
Zn832  O877    1.953   .     S
Zn832  O1326   1.935   1_455 S
Zn832  O868    1.947   .     S
Zn832  O905    1.935   .     S
Zn833  O872    1.952   .     S
Zn833  O895    1.935   .     S
Zn833  O892    1.935   .     S
Zn833  O1280   1.948   .     S
Zn834  O871    1.952   .     S
Zn834  O896    1.935   .     S
Zn834  O891    1.935   .     S
Zn834  O867    1.948   .     S
Zn835  O886    1.935   .     S
Zn835  O893    1.935   .     S
Zn835  O874    1.952   .     S
Zn835  O42     1.949   1_565 S
Zn836  O873    1.952   .     S
Zn836  O894    1.935   .     S
Zn836  O865    1.949   .     S
Zn836  O885    1.935   .     S
Zn837  O899    1.935   .     S
Zn837  O876    1.952   .     S
Zn837  O888    1.935   .     S
Zn837  O868    1.948   .     S
Zn838  O900    1.935   .     S
Zn838  O875    1.952   .     S
Zn838  O887    1.935   .     S
Zn838  O1279   1.948   .     S
Zn839  O890    1.935   .     S
Zn839  O897    1.935   .     S
Zn839  O866    1.947   .     S
Zn839  O870    1.953   .     S
Zn840  O869    1.953   .     S
Zn840  O889    1.935   .     S
Zn840  O898    1.935   .     S
Zn840  O41     1.947   1_565 S
C841   N1189   1.438   .     S
C841   C993    1.414   .     A
C841   C1269   1.400   1_455 S
C842   C994    1.419   .     A
C842   C858    1.401   .     A
C842   N1192   1.438   .     S
C843   N1195   1.439   .     S
C843   C995    1.416   .     A
C844   N1198   1.438   .     S
C844   C996    1.418   .     A
C844   C36     1.400   1_565 S
C845   C857    1.394   .     A
C845   C989    1.417   .     A
C845   N1201   1.439   .     S
C846   C990    1.417   .     A
C846   N1204   1.439   .     S
C846   C1270   1.399   1_455 S
C847   C991    1.418   .     A
C847   N1207   1.438   .     S
C847   C859    1.394   .     A
C848   C860    1.407   .     A
C848   C992    1.415   .     A
C848   N1210   1.437   .     S
C849   N1213   1.438   .     S
C849   C1001   1.417   .     A
C850   N1216   1.438   .     S
C850   C1002   1.417   .     A
C850   C38     1.401   1_565 S
C851   C1003   1.416   .     A
C851   N1219   1.439   .     S
C851   C1275   1.393   .     S
C852   C1004   1.417   .     A
C852   N1222   1.439   .     S
C852   C1276   1.398   1_455 S
C853   N1225   1.438   .     S
C853   C861    1.393   .     A
C853   C997    1.417   .     A
C854   C862    1.401   .     A
C854   C998    1.417   .     A
C854   N1228   1.438   .     S
C855   N1231   1.438   .     S
C855   C863    1.401   .     A
C855   C999    1.416   .     A
C856   C1000   1.417   .     A
C856   N1234   1.437   .     S
C856   C864    1.406   .     A
C857   C1253   1.400   .     S
C857   C1347   1.456   .     S
C858   C936    1.466   .     S
C858   C1258   1.399   .     S
C859   C933    1.454   .     S
C859   C19     1.392   1_565 S
C860   C934    1.467   .     S
C861   C115    1.454   1_565 S
C861   C25     1.393   1_565 S
C862   C940    1.468   .     S
C863   C937    1.456   .     S
C863   C1263   1.393   1_455 S
C864   C938    1.465   .     S
C864   C1264   1.398   .     S
O867   Zn1250  1.948   1_455 S
O868   Zn1245  1.948   1_455 S
O869   C933    1.276   .     A
O870   C934    1.278   .     A
O871   C935    1.276   .     A
O872   C936    1.279   .     A
O874   C110    1.281   1_565 S
O875   C1347   1.277   .     S
O876   C1348   1.280   1_455 S
O877   C937    1.276   .     S
O878   C1350   1.277   1_455 S
O879   C939    1.276   .     S
O880   C940    1.280   .     S
O881   C937    1.277   .     S
O882   C1350   1.281   1_455 S
O883   C939    1.276   .     S
O884   C940    1.280   .     S
O885   C941    1.280   .     A
O886   C942    1.280   .     A
O887   C943    1.281   .     A
O888   C944    1.281   .     A
O889   C945    1.280   .     A
O890   C946    1.280   .     A
O891   C947    1.280   .     A
O892   C948    1.280   .     A
O893   C949    1.280   .     A
O894   C950    1.280   .     A
O895   C951    1.280   .     A
O896   C952    1.280   .     A
O897   C953    1.280   .     A
O898   C954    1.280   .     A
O899   C955    1.280   .     A
O900   C956    1.280   .     A
O901   C951    1.280   .     A
O901   Zn1240  1.935   .     S
O902   C952    1.280   .     A
O903   C949    1.281   .     A
O903   Zn6     1.935   1_565 S
O904   C950    1.281   .     A
O905   C955    1.280   .     A
O906   C956    1.280   .     A
O906   Zn1243  1.935   .     S
O907   C953    1.280   .     A
O908   C954    1.280   .     A
O908   Zn1     1.935   1_565 S
O909   Zn1239  1.935   .     S
O909   C943    1.280   .     A
O910   C944    1.280   .     A
O911   C941    1.280   .     A
O912   C942    1.280   .     A
O912   Zn2     1.935   1_565 S
O913   C947    1.280   .     A
O914   C948    1.280   .     A
O914   Zn1244  1.935   .     S
O915   C945    1.280   .     A
O915   Zn5     1.935   1_565 S
O916   C946    1.280   .     A
C917   C1029   1.517   .     S
C917   C989    1.418   .     A
C917   C922    1.402   .     A
C918   C921    1.404   .     A
C918   C990    1.417   .     A
C918   C1033   1.518   .     S
C919   C991    1.418   .     A
C919   C924    1.402   .     A
C919   C1037   1.517   .     S
C920   C923    1.403   .     A
C920   C992    1.423   .     A
C920   C1041   1.520   .     S
C921   C993    1.422   .     A
C921   C1045   1.519   .     S
C922   C994    1.419   .     A
C922   C1049   1.517   .     S
C923   C1053   1.518   .     S
C923   C995    1.416   .     A
C924   C996    1.419   .     A
C924   C1057   1.517   .     S
C925   C997    1.418   .     A
C925   C1061   1.517   .     S
C925   C930    1.402   1_556 S
C926   C1065   1.517   .     S
C926   C998    1.419   .     A
C926   C929    1.402   1_554 S
C927   C999    1.422   .     A
C927   C1069   1.519   .     S
C927   C932    1.404   1_556 S
C928   C1000   1.424   .     A
C928   C1073   1.520   .     S
C928   C931    1.404   1_554 S
C929   C1077   1.517   .     S
C929   C1001   1.418   .     A
C929   C926    1.402   1_556 S
C930   C1002   1.419   .     A
C930   C1081   1.517   .     S
C930   C925    1.402   1_554 S
C931   C1003   1.416   .     A
C931   C1085   1.518   .     S
C931   C928    1.404   1_556 S
C932   C1089   1.518   .     S
C932   C1004   1.417   .     A
C932   C927    1.404   1_554 S
C933   O49     1.276   1_565 S
C935   C1269   1.456   1_455 S
C935   O1287   1.277   1_455 S
C936   O1288   1.280   .     S
C938   O1290   1.277   .     S
C938   O1294   1.281   .     S
C941   C1007   1.455   .     S
C942   C1008   1.455   .     S
C943   C1009   1.455   .     S
C944   C1010   1.455   .     S
C945   C1011   1.455   .     S
C946   C1012   1.455   .     S
C947   C1005   1.455   .     S
C948   C1006   1.455   .     S
C949   C1015   1.455   .     S
C950   C1016   1.455   .     S
C951   C1017   1.455   .     S
C952   C1018   1.455   .     S
C953   C1019   1.455   .     S
C954   C1020   1.455   .     S
C955   C1013   1.455   .     S
C956   C1014   1.455   .     S
C957   C1020   1.407   .     A
C957   N1093   1.437   .     S
C957   C972    1.403   .     A
C958   N1096   1.437   .     S
C958   C971    1.403   .     A
C958   C1019   1.407   .     A
C959   C970    1.403   .     A
C959   N1099   1.437   .     S
C959   C1018   1.407   .     A
C960   N1102   1.437   .     S
C960   C969    1.403   .     A
C960   C1017   1.407   .     A
C961   N1105   1.437   .     S
C961   C968    1.403   .     A
C961   C1016   1.407   .     A
C962   C967    1.403   .     A
C962   C1015   1.407   .     A
C962   N1108   1.437   .     S
C963   C966    1.403   .     A
C963   C1014   1.407   .     A
C963   N1111   1.437   .     S
C964   C965    1.403   .     A
C964   C1013   1.407   .     A
C964   N1114   1.437   .     S
C965   N1117   1.437   .     S
C965   C1012   1.407   .     A
C966   N1120   1.437   .     S
C966   C1011   1.407   .     A
C967   N1123   1.437   .     S
C967   C1010   1.407   .     A
C968   C1009   1.407   .     A
C968   N1126   1.437   .     S
C969   C1008   1.407   .     A
C969   N1129   1.437   .     S
C970   C1007   1.407   .     A
C970   N1132   1.436   .     S
C971   N1135   1.437   .     S
C971   C1006   1.407   .     A
C972   N1138   1.437   .     S
C972   C1005   1.407   .     A
C973   C1006   1.407   .     A
C973   N1141   1.437   .     S
C973   C988    1.403   .     A
C974   C987    1.403   .     A
C974   C1005   1.407   .     A
C974   N1144   1.437   .     S
C975   C1008   1.407   .     A
C975   N1147   1.437   .     S
C975   C986    1.403   .     A
C976   C985    1.403   .     A
C976   N1150   1.437   .     S
C976   C1007   1.407   .     A
C977   N1153   1.437   .     S
C977   C984    1.403   .     A
C977   C1010   1.407   .     A
C978   C983    1.403   .     A
C978   C1009   1.407   .     A
C978   N1156   1.437   .     S
C979   C982    1.403   .     A
C979   N1159   1.437   .     S
C979   C1012   1.407   .     A
C980   N1162   1.437   .     S
C980   C1011   1.407   .     A
C980   C981    1.403   .     A
C981   N1165   1.437   .     S
C981   C1014   1.407   .     A
C982   C1013   1.407   .     A
C982   N1168   1.437   .     S
C983   C1016   1.407   .     A
C983   N1171   1.437   .     S
C984   C1015   1.407   .     A
C984   N1174   1.437   .     S
C985   N1177   1.437   .     S
C985   C1018   1.407   .     A
C986   C1017   1.407   .     A
C986   N1180   1.437   .     S
C987   C1020   1.407   .     A
C987   N1183   1.437   .     S
C988   C1019   1.407   .     A
C988   N1186   1.437   .     S
C989   C1021   1.426   .     A
C990   C1434   1.423   1_455 S
C991   C199    1.427   1_565 S
C992   C1024   1.426   .     A
C993   C1433   1.427   1_455 S
C994   C1022   1.425   .     A
C995   C1023   1.425   .     A
C996   C200    1.425   1_565 S
C997   C1025   1.427   .     A
C998   C1026   1.424   .     S
C999   C1027   1.427   .     A
C1000  C1440   1.426   .     S
C1002  C202    1.424   1_565 A
C1003  C1439   1.424   .     S
C1004  C1028   1.423   .     A
C1021  C1022   1.417   .     A
C1021  C1405   1.427   .     S
C1022  C1402   1.423   .     S
C1023  C1024   1.417   .     A
C1025  C177    1.427   1_565 S
C1025  C202    1.417   1_566 S
C1026  C201    1.417   1_554 S
C1027  C1415   1.424   1_455 S
C1027  C1028   1.417   1_556 S
C1028  C1412   1.426   1_455 S
C1028  C1027   1.417   1_554 S
C1029  H1031   1.109   .     S
C1029  H1030   1.110   .     S
C1029  H1032   1.111   .     S
C1033  H1034   1.110   .     S
C1033  H1036   1.111   .     S
C1033  H1035   1.109   .     S
C1037  H1039   1.108   .     S
C1037  H1038   1.110   .     S
C1037  H1040   1.111   .     S
C1041  H1042   1.110   .     S
C1041  H1044   1.110   .     S
C1041  H1043   1.110   .     S
C1045  H1046   1.110   .     S
C1045  H1048   1.110   .     S
C1045  H1047   1.110   .     S
C1049  H1052   1.111   .     S
C1049  H1051   1.108   .     S
C1049  H1050   1.109   .     S
C1053  H1054   1.110   .     S
C1053  H1056   1.111   .     S
C1053  H1055   1.109   .     S
C1057  H1058   1.110   .     S
C1057  H1060   1.111   .     S
C1057  H1059   1.109   .     S
C1061  H1062   1.110   .     S
C1061  H1064   1.111   .     S
C1061  H1063   1.108   .     S
C1065  H1067   1.109   .     S
C1065  H1066   1.110   .     S
C1065  H1068   1.111   .     S
C1069  H1070   1.110   .     S
C1069  H1072   1.110   .     S
C1069  H1071   1.110   .     S
C1073  H1074   1.110   .     S
C1073  H1076   1.110   .     S
C1073  H1075   1.110   .     S
C1077  H1079   1.108   .     S
C1077  H1080   1.111   .     S
C1077  H1078   1.110   .     S
C1081  H1084   1.111   .     S
C1081  H1082   1.110   .     S
C1081  H1083   1.109   .     S
C1085  H1086   1.110   .     S
C1085  H1088   1.111   .     S
C1085  H1087   1.109   .     S
C1089  H1091   1.109   .     S
C1089  H1090   1.110   .     S
C1089  H1092   1.111   .     S
N1093  H1095   1.045   .     S
N1093  H1094   1.045   .     S
N1096  H1097   1.045   .     S
N1096  H1098   1.045   .     S
N1099  H1100   1.045   .     S
N1099  H1101   1.045   .     S
N1102  H1103   1.045   .     S
N1102  H1104   1.045   .     S
N1105  H1107   1.045   .     S
N1105  H1106   1.045   .     S
N1108  H1109   1.045   .     S
N1108  H1110   1.045   .     S
N1111  H1112   1.045   .     S
N1111  H1113   1.045   .     S
N1114  H1115   1.045   .     S
N1114  H1116   1.045   .     S
N1117  H1118   1.045   .     S
N1117  H1119   1.045   .     S
N1120  H1121   1.045   .     S
N1120  H1122   1.045   .     S
N1123  H1125   1.045   .     S
N1123  H1124   1.045   .     S
N1126  H1128   1.045   .     S
N1126  H1127   1.045   .     S
N1129  H1130   1.045   .     S
N1129  H1131   1.045   .     S
N1132  H1134   1.045   .     S
N1132  H1133   1.045   .     S
N1135  H1137   1.045   .     S
N1135  H1136   1.045   .     S
N1138  H1139   1.045   .     S
N1138  H1140   1.045   .     S
N1141  H1143   1.045   .     S
N1141  H1142   1.045   .     S
N1144  H1146   1.045   .     S
N1144  H1145   1.045   .     S
N1147  H1149   1.045   .     S
N1147  H1148   1.045   .     S
N1150  H1151   1.045   .     S
N1150  H1152   1.045   .     S
N1153  H1155   1.045   .     S
N1153  H1154   1.045   .     S
N1156  H1157   1.045   .     S
N1156  H1158   1.045   .     S
N1159  H1161   1.045   .     S
N1159  H1160   1.045   .     S
N1162  H1164   1.045   .     S
N1162  H1163   1.045   .     S
N1165  H1167   1.045   .     S
N1165  H1166   1.045   .     S
N1168  H1170   1.045   .     S
N1168  H1169   1.045   .     S
N1171  H1172   1.045   .     S
N1171  H1173   1.045   .     S
N1174  H1175   1.045   .     S
N1174  H1176   1.045   .     S
N1177  H1178   1.045   .     S
N1177  H1179   1.045   .     S
N1180  H1182   1.045   .     S
N1180  H1181   1.045   .     S
N1183  H1184   1.045   .     S
N1183  H1185   1.045   .     S
N1186  H1188   1.045   .     S
N1186  H1187   1.045   .     S
N1189  H1190   1.045   .     S
N1189  H1191   1.046   .     S
N1192  H1193   1.043   .     S
N1192  H1194   1.045   .     S
N1195  H1196   1.043   .     S
N1195  H1197   1.045   .     S
N1198  H1199   1.043   .     S
N1198  H1200   1.045   .     S
N1201  H1203   1.045   .     S
N1201  H1202   1.043   .     S
N1204  H1205   1.043   .     S
N1204  H1206   1.045   .     S
N1207  H1208   1.043   .     S
N1207  H1209   1.045   .     S
N1210  H1212   1.046   .     S
N1210  H1211   1.045   .     S
N1213  H1215   1.045   .     S
N1213  H1214   1.043   .     S
N1216  H1218   1.045   .     S
N1216  H1217   1.043   .     S
N1219  H1220   1.043   .     S
N1219  H1221   1.045   .     S
N1222  H1224   1.045   .     S
N1222  H1223   1.043   .     S
N1225  H1226   1.043   .     S
N1225  H1227   1.045   .     S
N1228  H1230   1.045   .     S
N1228  H1229   1.043   .     S
N1231  H1233   1.045   .     S
N1231  H1232   1.046   .     S
N1234  H1235   1.045   .     S
N1234  H1236   1.046   .     S
Zn1237 O1323   1.935   .     S
Zn1237 O1292   1.952   .     S
Zn1237 O1277   1.948   .     S
Zn1238 O1319   1.935   .     S
Zn1238 O1291   1.952   .     S
Zn1238 O1278   1.948   .     S
Zn1239 O1279   1.949   .     S
Zn1239 O1294   1.952   .     S
Zn1239 O1314   1.935   .     S
Zn1240 O1322   1.935   .     S
Zn1240 O1280   1.949   .     S
Zn1240 O1293   1.952   .     S
Zn1241 O1296   1.952   .     S
Zn1241 O1316   1.935   .     S
Zn1241 O1277   1.948   .     S
Zn1242 O1278   1.948   .     S
Zn1242 O1328   1.935   .     S
Zn1242 O1295   1.952   .     S
Zn1243 O1279   1.947   .     S
Zn1243 O1290   1.953   .     S
Zn1243 O1325   1.935   .     S
Zn1244 O1289   1.953   .     S
Zn1244 O1280   1.947   .     S
Zn1244 O1317   1.935   .     S
Zn1245 O1284   1.952   .     S
Zn1245 O1307   1.935   .     S
Zn1245 O1304   1.935   .     S
Zn1245 O868    1.948   1_655 S
Zn1246 O1283   1.952   .     S
Zn1246 O1308   1.935   .     S
Zn1246 O1303   1.935   .     S
Zn1246 O1279   1.948   .     S
Zn1247 O1298   1.935   .     S
Zn1247 O1305   1.935   .     S
Zn1247 O1286   1.952   .     S
Zn1247 O454    1.949   1_565 S
Zn1248 O1285   1.952   .     S
Zn1248 O1306   1.935   .     S
Zn1248 O1277   1.949   .     S
Zn1248 O1297   1.935   .     S
Zn1249 O1311   1.935   .     S
Zn1249 O1288   1.952   .     S
Zn1249 O1300   1.935   .     S
Zn1249 O1280   1.948   .     S
Zn1250 O1312   1.935   .     S
Zn1250 O1287   1.952   .     S
Zn1250 O1299   1.935   .     S
Zn1250 O867    1.948   1_655 S
Zn1251 O1302   1.935   .     S
Zn1251 O1309   1.935   .     S
Zn1251 O1278   1.947   .     S
Zn1251 O1282   1.953   .     S
Zn1252 O1281   1.953   .     S
Zn1252 O1301   1.935   .     S
Zn1252 O1310   1.935   .     S
Zn1252 O453    1.947   1_565 S
C1253  N1601   1.438   .     S
C1253  C1405   1.414   .     A
C1254  C1406   1.419   .     A
C1254  C1270   1.401   .     A
C1254  N1604   1.438   .     S
C1255  N1607   1.439   .     S
C1255  C1407   1.416   .     A
C1256  N1610   1.438   .     S
C1256  C1408   1.418   .     A
C1256  C448    1.400   1_565 S
C1257  C1269   1.394   .     A
C1257  C1401   1.417   .     A
C1257  N1613   1.439   .     S
C1258  C1402   1.417   .     A
C1258  N1616   1.439   .     S
C1259  C1403   1.418   .     A
C1259  N1619   1.438   .     S
C1259  C1271   1.394   .     A
C1260  C1272   1.407   .     A
C1260  C1404   1.415   .     A
C1260  N1622   1.437   .     S
C1261  N1625   1.438   .     S
C1261  C1413   1.417   .     A
C1262  N1628   1.438   .     S
C1262  C1414   1.417   .     A
C1262  C450    1.401   1_565 S
C1263  C1415   1.416   .     A
C1263  N1631   1.439   .     S
C1263  C863    1.393   1_655 S
C1264  C1416   1.417   .     A
C1264  N1634   1.439   .     S
C1265  N1637   1.438   .     S
C1265  C1273   1.393   .     A
C1265  C1409   1.417   .     A
C1266  C1274   1.401   .     A
C1266  C1410   1.417   .     A
C1266  N1640   1.438   .     S
C1267  N1643   1.438   .     S
C1267  C1275   1.401   .     A
C1267  C1411   1.416   .     A
C1268  C1412   1.417   .     A
C1268  N1646   1.437   .     S
C1268  C1276   1.406   .     A
C1269  C841    1.400   1_655 S
C1269  C935    1.456   1_655 S
C1270  C1348   1.466   .     S
C1270  C846    1.399   1_655 S
C1271  C1345   1.454   .     S
C1271  C431    1.392   1_565 S
C1272  C1346   1.467   .     S
C1273  C527    1.454   1_565 S
C1273  C437    1.393   1_565 S
C1274  C1352   1.468   .     S
C1275  C1349   1.456   .     S
C1276  C1350   1.465   .     S
C1276  C852    1.398   1_655 S
O1281  C1345   1.276   .     A
O1282  C1346   1.278   .     A
O1283  C1347   1.276   .     A
O1284  C1348   1.279   .     A
O1286  C522    1.281   1_565 S
O1287  C935    1.277   1_655 S
O1289  C1349   1.276   .     S
O1291  C1351   1.276   .     S
O1292  C1352   1.280   .     S
O1293  C1349   1.277   .     S
O1295  C1351   1.276   .     S
O1296  C1352   1.280   .     S
O1297  C1353   1.280   .     A
O1298  C1354   1.280   .     A
O1299  C1355   1.281   .     A
O1300  C1356   1.281   .     A
O1301  C1357   1.280   .     A
O1302  C1358   1.280   .     A
O1303  C1359   1.280   .     A
O1304  C1360   1.280   .     A
O1305  C1361   1.280   .     A
O1306  C1362   1.280   .     A
O1307  C1363   1.280   .     A
O1308  C1364   1.280   .     A
O1309  C1365   1.280   .     A
O1310  C1366   1.280   .     A
O1311  C1367   1.280   .     A
O1312  C1368   1.280   .     A
O1313  C1363   1.280   .     A
O1313  Zn828   1.935   1_655 S
O1314  C1364   1.280   .     A
O1315  C1361   1.281   .     A
O1315  Zn418   1.935   1_565 S
O1316  C1362   1.281   .     A
O1317  C1367   1.280   .     A
O1318  C1368   1.280   .     A
O1318  Zn831   1.935   1_655 S
O1319  C1365   1.280   .     A
O1320  C1366   1.280   .     A
O1320  Zn413   1.935   1_565 S
O1321  Zn827   1.935   1_655 S
O1321  C1355   1.280   .     A
O1322  C1356   1.280   .     A
O1323  C1353   1.280   .     A
O1324  C1354   1.280   .     A
O1324  Zn414   1.935   1_565 S
O1325  C1359   1.280   .     A
O1326  C1360   1.280   .     A
O1326  Zn832   1.935   1_655 S
O1327  C1357   1.280   .     A
O1327  Zn417   1.935   1_565 S
O1328  C1358   1.280   .     A
C1329  C1441   1.517   .     S
C1329  C1401   1.418   .     A
C1329  C1334   1.402   .     A
C1330  C1333   1.404   .     A
C1330  C1402   1.417   .     A
C1330  C1445   1.518   .     S
C1331  C1403   1.418   .     A
C1331  C1336   1.402   .     A
C1331  C1449   1.517   .     S
C1332  C1335   1.403   .     A
C1332  C1404   1.423   .     A
C1332  C1453   1.520   .     S
C1333  C1405   1.422   .     A
C1333  C1457   1.519   .     S
C1334  C1406   1.419   .     A
C1334  C1461   1.517   .     S
C1335  C1465   1.518   .     S
C1335  C1407   1.416   .     A
C1336  C1408   1.419   .     A
C1336  C1469   1.517   .     S
C1337  C1409   1.418   .     A
C1337  C1473   1.517   .     S
C1337  C1342   1.402   1_556 S
C1338  C1477   1.517   .     S
C1338  C1410   1.419   .     A
C1338  C1341   1.402   1_554 S
C1339  C1411   1.422   .     A
C1339  C1481   1.519   .     S
C1339  C1344   1.404   1_556 S
C1340  C1412   1.424   .     A
C1340  C1485   1.520   .     S
C1340  C1343   1.404   1_554 S
C1341  C1489   1.517   .     S
C1341  C1413   1.418   .     A
C1341  C1338   1.402   1_556 S
C1342  C1414   1.419   .     A
C1342  C1493   1.517   .     S
C1342  C1337   1.402   1_554 S
C1343  C1415   1.416   .     A
C1343  C1497   1.518   .     S
C1343  C1340   1.404   1_556 S
C1344  C1501   1.518   .     S
C1344  C1416   1.417   .     A
C1344  C1339   1.404   1_554 S
C1345  O461    1.276   1_565 S
C1348  O876    1.280   1_655 S
C1350  O878    1.277   1_655 S
C1350  O882    1.281   1_655 S
C1353  C1419   1.455   .     S
C1354  C1420   1.455   .     S
C1355  C1421   1.455   .     S
C1356  C1422   1.455   .     S
C1357  C1423   1.455   .     S
C1358  C1424   1.455   .     S
C1359  C1417   1.455   .     S
C1360  C1418   1.455   .     S
C1361  C1427   1.455   .     S
C1362  C1428   1.455   .     S
C1363  C1429   1.455   .     S
C1364  C1430   1.455   .     S
C1365  C1431   1.455   .     S
C1366  C1432   1.455   .     S
C1367  C1425   1.455   .     S
C1368  C1426   1.455   .     S
C1369  C1432   1.407   .     A
C1369  N1505   1.437   .     S
C1369  C1384   1.403   .     A
C1370  N1508   1.437   .     S
C1370  C1383   1.403   .     A
C1370  C1431   1.407   .     A
C1371  C1382   1.403   .     A
C1371  N1511   1.437   .     S
C1371  C1430   1.407   .     A
C1372  N1514   1.437   .     S
C1372  C1381   1.403   .     A
C1372  C1429   1.407   .     A
C1373  N1517   1.437   .     S
C1373  C1380   1.403   .     A
C1373  C1428   1.407   .     A
C1374  C1379   1.403   .     A
C1374  C1427   1.407   .     A
C1374  N1520   1.437   .     S
C1375  C1378   1.403   .     A
C1375  C1426   1.407   .     A
C1375  N1523   1.437   .     S
C1376  C1377   1.403   .     A
C1376  C1425   1.407   .     A
C1376  N1526   1.437   .     S
C1377  N1529   1.437   .     S
C1377  C1424   1.407   .     A
C1378  N1532   1.437   .     S
C1378  C1423   1.407   .     A
C1379  N1535   1.437   .     S
C1379  C1422   1.407   .     A
C1380  C1421   1.407   .     A
C1380  N1538   1.437   .     S
C1381  C1420   1.407   .     A
C1381  N1541   1.437   .     S
C1382  C1419   1.407   .     A
C1382  N1544   1.436   .     S
C1383  N1547   1.437   .     S
C1383  C1418   1.407   .     A
C1384  N1550   1.437   .     S
C1384  C1417   1.407   .     A
C1385  C1418   1.407   .     A
C1385  N1553   1.437   .     S
C1385  C1400   1.403   .     A
C1386  C1399   1.403   .     A
C1386  C1417   1.407   .     A
C1386  N1556   1.437   .     S
C1387  C1420   1.407   .     A
C1387  N1559   1.437   .     S
C1387  C1398   1.403   .     A
C1388  C1397   1.403   .     A
C1388  N1562   1.437   .     S
C1388  C1419   1.407   .     A
C1389  N1565   1.437   .     S
C1389  C1396   1.403   .     A
C1389  C1422   1.407   .     A
C1390  C1395   1.403   .     A
C1390  C1421   1.407   .     A
C1390  N1568   1.437   .     S
C1391  C1394   1.403   .     A
C1391  N1571   1.437   .     S
C1391  C1424   1.407   .     A
C1392  N1574   1.437   .     S
C1392  C1423   1.407   .     A
C1392  C1393   1.403   .     A
C1393  N1577   1.437   .     S
C1393  C1426   1.407   .     A
C1394  C1425   1.407   .     A
C1394  N1580   1.437   .     S
C1395  C1428   1.407   .     A
C1395  N1583   1.437   .     S
C1396  C1427   1.407   .     A
C1396  N1586   1.437   .     S
C1397  N1589   1.437   .     S
C1397  C1430   1.407   .     A
C1398  C1429   1.407   .     A
C1398  N1592   1.437   .     S
C1399  C1432   1.407   .     A
C1399  N1595   1.437   .     S
C1400  C1431   1.407   .     A
C1400  N1598   1.437   .     S
C1401  C1433   1.426   .     A
C1403  C611    1.427   1_565 S
C1404  C1436   1.426   .     A
C1406  C1434   1.425   .     A
C1407  C1435   1.425   .     A
C1408  C612    1.425   1_565 S
C1409  C1437   1.427   .     A
C1410  C1438   1.424   .     S
C1411  C1439   1.427   .     A
C1412  C1028   1.426   1_655 S
C1414  C614    1.424   1_565 A
C1415  C1027   1.424   1_655 S
C1416  C1440   1.423   .     A
C1433  C1434   1.417   .     A
C1433  C993    1.427   1_655 S
C1434  C990    1.423   1_655 S
C1435  C1436   1.417   .     A
C1437  C589    1.427   1_565 S
C1437  C614    1.417   1_566 S
C1438  C613    1.417   1_554 S
C1439  C1440   1.417   1_556 S
C1440  C1439   1.417   1_554 S
C1441  H1443   1.109   .     S
C1441  H1442   1.110   .     S
C1441  H1444   1.111   .     S
C1445  H1446   1.110   .     S
C1445  H1448   1.111   .     S
C1445  H1447   1.109   .     S
C1449  H1451   1.108   .     S
C1449  H1450   1.110   .     S
C1449  H1452   1.111   .     S
C1453  H1454   1.110   .     S
C1453  H1456   1.110   .     S
C1453  H1455   1.110   .     S
C1457  H1458   1.110   .     S
C1457  H1460   1.110   .     S
C1457  H1459   1.110   .     S
C1461  H1464   1.111   .     S
C1461  H1463   1.108   .     S
C1461  H1462   1.109   .     S
C1465  H1466   1.110   .     S
C1465  H1468   1.111   .     S
C1465  H1467   1.109   .     S
C1469  H1470   1.110   .     S
C1469  H1472   1.111   .     S
C1469  H1471   1.109   .     S
C1473  H1474   1.110   .     S
C1473  H1476   1.111   .     S
C1473  H1475   1.108   .     S
C1477  H1479   1.109   .     S
C1477  H1478   1.110   .     S
C1477  H1480   1.111   .     S
C1481  H1482   1.110   .     S
C1481  H1484   1.110   .     S
C1481  H1483   1.110   .     S
C1485  H1486   1.110   .     S
C1485  H1488   1.110   .     S
C1485  H1487   1.110   .     S
C1489  H1491   1.108   .     S
C1489  H1492   1.111   .     S
C1489  H1490   1.110   .     S
C1493  H1496   1.111   .     S
C1493  H1494   1.110   .     S
C1493  H1495   1.109   .     S
C1497  H1498   1.110   .     S
C1497  H1500   1.111   .     S
C1497  H1499   1.109   .     S
C1501  H1503   1.109   .     S
C1501  H1502   1.110   .     S
C1501  H1504   1.111   .     S
N1505  H1507   1.045   .     S
N1505  H1506   1.045   .     S
N1508  H1509   1.045   .     S
N1508  H1510   1.045   .     S
N1511  H1512   1.045   .     S
N1511  H1513   1.045   .     S
N1514  H1515   1.045   .     S
N1514  H1516   1.045   .     S
N1517  H1519   1.045   .     S
N1517  H1518   1.045   .     S
N1520  H1521   1.045   .     S
N1520  H1522   1.045   .     S
N1523  H1524   1.045   .     S
N1523  H1525   1.045   .     S
N1526  H1527   1.045   .     S
N1526  H1528   1.045   .     S
N1529  H1530   1.045   .     S
N1529  H1531   1.045   .     S
N1532  H1533   1.045   .     S
N1532  H1534   1.045   .     S
N1535  H1537   1.045   .     S
N1535  H1536   1.045   .     S
N1538  H1540   1.045   .     S
N1538  H1539   1.045   .     S
N1541  H1542   1.045   .     S
N1541  H1543   1.045   .     S
N1544  H1546   1.045   .     S
N1544  H1545   1.045   .     S
N1547  H1549   1.045   .     S
N1547  H1548   1.045   .     S
N1550  H1551   1.045   .     S
N1550  H1552   1.045   .     S
N1553  H1555   1.045   .     S
N1553  H1554   1.045   .     S
N1556  H1558   1.045   .     S
N1556  H1557   1.045   .     S
N1559  H1561   1.045   .     S
N1559  H1560   1.045   .     S
N1562  H1563   1.045   .     S
N1562  H1564   1.045   .     S
N1565  H1567   1.045   .     S
N1565  H1566   1.045   .     S
N1568  H1569   1.045   .     S
N1568  H1570   1.045   .     S
N1571  H1573   1.045   .     S
N1571  H1572   1.045   .     S
N1574  H1576   1.045   .     S
N1574  H1575   1.045   .     S
N1577  H1579   1.045   .     S
N1577  H1578   1.045   .     S
N1580  H1582   1.045   .     S
N1580  H1581   1.045   .     S
N1583  H1584   1.045   .     S
N1583  H1585   1.045   .     S
N1586  H1587   1.045   .     S
N1586  H1588   1.045   .     S
N1589  H1590   1.045   .     S
N1589  H1591   1.045   .     S
N1592  H1594   1.045   .     S
N1592  H1593   1.045   .     S
N1595  H1596   1.045   .     S
N1595  H1597   1.045   .     S
N1598  H1600   1.045   .     S
N1598  H1599   1.045   .     S
N1601  H1602   1.045   .     S
N1601  H1603   1.046   .     S
N1604  H1605   1.043   .     S
N1604  H1606   1.045   .     S
N1607  H1608   1.043   .     S
N1607  H1609   1.045   .     S
N1610  H1611   1.043   .     S
N1610  H1612   1.045   .     S
N1613  H1615   1.045   .     S
N1613  H1614   1.043   .     S
N1616  H1617   1.043   .     S
N1616  H1618   1.045   .     S
N1619  H1620   1.043   .     S
N1619  H1621   1.045   .     S
N1622  H1624   1.046   .     S
N1622  H1623   1.045   .     S
N1625  H1627   1.045   .     S
N1625  H1626   1.043   .     S
N1628  H1630   1.045   .     S
N1628  H1629   1.043   .     S
N1631  H1632   1.043   .     S
N1631  H1633   1.045   .     S
N1634  H1636   1.045   .     S
N1634  H1635   1.043   .     S
N1637  H1638   1.043   .     S
N1637  H1639   1.045   .     S
N1640  H1642   1.045   .     S
N1640  H1641   1.043   .     S
N1643  H1645   1.045   .     S
N1643  H1644   1.046   .     S
N1646  H1647   1.045   .     S
N1646  H1648   1.046   .     S
