data_str_m1_o1_o17_pcu_sym.112
_audit_creation_date              2020-01-03
_audit_creation_method            'Materials Studio'
_symmetry_space_group_name_H-M    'P1'
_symmetry_Int_Tables_number       1
_symmetry_cell_setting            triclinic
loop_
_symmetry_equiv_pos_as_xyz
  x,y,z
_cell_length_a                    36.6126
_cell_length_b                    36.6126
_cell_length_c                    34.3681
_cell_angle_alpha                 89.9965
_cell_angle_beta                  89.9965
_cell_angle_gamma                 89.8970
loop_
_atom_site_label
_atom_site_type_symbol
_atom_site_fract_x
_atom_site_fract_y
_atom_site_fract_z
_atom_site_U_iso_or_equiv
_atom_site_adp_type
_atom_site_occupancy
C1     C     0.01149   0.28141   0.41833   0.00000  Uiso   1.00
C2     C     0.23851   0.46859   0.08167   0.00000  Uiso   1.00
C3     C     0.22113   0.48294   0.54099   0.00000  Uiso   1.00
C4     C     0.01681   0.27908   0.45898   0.00000  Uiso   1.00
C5     C     0.48294   0.22113   0.54099   0.00000  Uiso   1.00
C6     C     0.22113   0.48293   0.45901   0.00000  Uiso   1.00
C7     C     0.27904   0.01690   0.54098   0.00000  Uiso   1.00
C8     C     0.23311   0.47096   0.95902   0.00000  Uiso   1.00
C9     C     0.26707   0.02887   0.04099   0.00000  Uiso   1.00
C10    C     0.02887   0.26706   0.95901   0.00000  Uiso   1.00
C11    C     0.47092   0.23319   0.04102   0.00000  Uiso   1.00
C12    C     0.26706   0.02887   0.95901   0.00000  Uiso   1.00
C13    C     0.46864   0.23837   0.91835   0.00000  Uiso   1.00
C14    C     0.23319   0.47092   0.04102   0.00000  Uiso   1.00
C15    C     0.47096   0.23311   0.95902   0.00000  Uiso   1.00
C16    C     0.02887   0.26707   0.04099   0.00000  Uiso   1.00
C17    C     0.09809   0.34808   0.25000   0.00000  Uiso   1.00
C18    C     0.40192   0.15191   0.75000   0.00000  Uiso   1.00
C19    C     0.15192   0.09808   0.25000   0.00000  Uiso   1.00
C20    C     0.34808   0.40192   0.75000   0.00000  Uiso   1.00
C21    C     0.40192   0.15191   0.25000   0.00000  Uiso   1.00
C22    C     0.09809   0.34808   0.75000   0.00000  Uiso   1.00
C23    C     0.34808   0.40192   0.25000   0.00000  Uiso   1.00
C24    C     0.03126   0.26170   0.08164   0.00000  Uiso   1.00
C25    C     0.15192   0.09808   0.75000   0.00000  Uiso   1.00
C26    C     0.09808   0.15192   0.75000   0.00000  Uiso   1.00
C27    C     0.40192   0.34808   0.25000   0.00000  Uiso   1.00
C28    C     0.15191   0.40192   0.75000   0.00000  Uiso   1.00
C29    C     0.34808   0.09809   0.25000   0.00000  Uiso   1.00
C30    C     0.40192   0.34808   0.75000   0.00000  Uiso   1.00
C31    C     0.09808   0.15192   0.25000   0.00000  Uiso   1.00
C32    C     0.34808   0.09809   0.75000   0.00000  Uiso   1.00
C33    C     0.15191   0.40192   0.25000   0.00000  Uiso   1.00
C34    C     0.49988   0.25010   0.47949   0.00000  Uiso   1.00
C35    C     0.23837   0.46864   0.91835   0.00000  Uiso   1.00
C36    C     0.49990   0.25010   0.52049   0.00000  Uiso   1.00
C37    C     0.25010   0.49988   0.47950   0.00000  Uiso   1.00
C38    C     0.25010   0.49990   0.52049   0.00000  Uiso   1.00
C39    C     0.25010   0.49990   0.97951   0.00000  Uiso   1.00
C40    C     0.25012   0.49989   0.02051   0.00000  Uiso   1.00
C41    C     0.49990   0.25010   0.97951   0.00000  Uiso   1.00
C42    C     0.49990   0.25012   0.02051   0.00000  Uiso   1.00
C43    C     0.01351   0.31689   0.39717   0.00000  Uiso   1.00
C44    C     0.48612   0.18325   0.60274   0.00000  Uiso   1.00
C45    C     0.18324   0.48615   0.39726   0.00000  Uiso   1.00
C46    C     0.26170   0.03126   0.08164   0.00000  Uiso   1.00
C47    C     0.31682   0.01382   0.60282   0.00000  Uiso   1.00
C48    C     0.48615   0.18324   0.39726   0.00000  Uiso   1.00
C49    C     0.01383   0.31682   0.60282   0.00000  Uiso   1.00
C50    C     0.31689   0.01351   0.39717   0.00000  Uiso   1.00
C51    C     0.18325   0.48613   0.60274   0.00000  Uiso   1.00
C52    C     0.26387   0.06675   0.89726   0.00000  Uiso   1.00
C53    C     0.23649   0.43311   0.10283   0.00000  Uiso   1.00
C54    C     0.43318   0.23618   0.89718   0.00000  Uiso   1.00
C55    C     0.06676   0.26384   0.10274   0.00000  Uiso   1.00
C56    C     0.23618   0.43318   0.89718   0.00000  Uiso   1.00
C57    C     0.03126   0.26169   0.91837   0.00000  Uiso   1.00
C58    C     0.26385   0.06676   0.10274   0.00000  Uiso   1.00
C59    C     0.06675   0.26387   0.89726   0.00000  Uiso   1.00
C60    C     0.43311   0.23650   0.10283   0.00000  Uiso   1.00
C61    C     0.46859   0.23851   0.08167   0.00000  Uiso   1.00
C62    C     0.49996   0.25004   0.39814   0.00000  Uiso   1.00
C63    C     0.49999   0.25003   0.60184   0.00000  Uiso   1.00
C64    C     0.25004   0.49996   0.39814   0.00000  Uiso   1.00
C65    C     0.48830   0.21874   0.58163   0.00000  Uiso   1.00
C66    C     0.25003   0.49999   0.60184   0.00000  Uiso   1.00
C67    C     0.25001   0.49997   0.89816   0.00000  Uiso   1.00
C68    C     0.25004   0.49996   0.10186   0.00000  Uiso   1.00
C69    C     0.49997   0.25001   0.89816   0.00000  Uiso   1.00
C70    C     0.49996   0.25004   0.10186   0.00000  Uiso   1.00
C71    C     0.46000   0.19673   0.47959   0.00000  Uiso   1.00
C72    C     0.03976   0.30349   0.52038   0.00000  Uiso   1.00
C73    C     0.30354   0.03969   0.47955   0.00000  Uiso   1.00
C74    C     0.19673   0.46000   0.52041   0.00000  Uiso   1.00
C75    C     0.03970   0.30353   0.47955   0.00000  Uiso   1.00
C76    C     0.21874   0.48830   0.41836   0.00000  Uiso   1.00
C77    C     0.46000   0.19674   0.52041   0.00000  Uiso   1.00
C78    C     0.19673   0.46000   0.47959   0.00000  Uiso   1.00
C79    C     0.30350   0.03976   0.52038   0.00000  Uiso   1.00
C80    C     0.21025   0.44650   0.97962   0.00000  Uiso   1.00
C81    C     0.28999   0.05328   0.02041   0.00000  Uiso   1.00
C82    C     0.05327   0.28999   0.97959   0.00000  Uiso   1.00
C83    C     0.44646   0.21031   0.02045   0.00000  Uiso   1.00
C84    C     0.29000   0.05327   0.97959   0.00000  Uiso   1.00
C85    C     0.21031   0.44646   0.02045   0.00000  Uiso   1.00
C86    C     0.44650   0.21025   0.97962   0.00000  Uiso   1.00
C87    C     0.28136   0.01163   0.58165   0.00000  Uiso   1.00
C88    C     0.05328   0.28999   0.02041   0.00000  Uiso   1.00
C89    C     0.25001   0.49999   0.35576   0.00000  Uiso   1.00
C90    C     0.25001   0.00000   0.64424   0.00000  Uiso   1.00
C91    C     0.49999   0.25001   0.35576   0.00000  Uiso   1.00
C92    C     0.00000   0.25001   0.64424   0.00000  Uiso   1.00
C93    C     0.49999   0.25000   0.85576   0.00000  Uiso   1.00
C94    C     0.49999   0.25001   0.14424   0.00000  Uiso   1.00
C95    C     0.25000   0.49999   0.85576   0.00000  Uiso   1.00
C96    C     0.25001   0.49999   0.14424   0.00000  Uiso   1.00
C97    C     0.17999   0.07001   0.25000   0.00000  Uiso   1.00
C98    C     0.48830   0.21874   0.41836   0.00000  Uiso   1.00
C99    C     0.32001   0.42999   0.75000   0.00000  Uiso   1.00
C100   C     0.42998   0.17997   0.25000   0.00000  Uiso   1.00
C101   C     0.07002   0.32002   0.75000   0.00000  Uiso   1.00
C102   C     0.32001   0.42999   0.25000   0.00000  Uiso   1.00
C103   C     0.17999   0.07001   0.75000   0.00000  Uiso   1.00
C104   C     0.07002   0.32002   0.25000   0.00000  Uiso   1.00
C105   C     0.42998   0.17998   0.75000   0.00000  Uiso   1.00
C106   C     0.17998   0.42998   0.75000   0.00000  Uiso   1.00
C107   C     0.32002   0.07002   0.24999   0.00000  Uiso   1.00
C108   C     0.42999   0.32001   0.75000   0.00000  Uiso   1.00
C109   C     0.01163   0.28136   0.58165   0.00000  Uiso   1.00
C110   C     0.07001   0.17999   0.25000   0.00000  Uiso   1.00
C111   C     0.32002   0.07002   0.75000   0.00000  Uiso   1.00
C112   C     0.17997   0.42998   0.25000   0.00000  Uiso   1.00
C113   C     0.07001   0.17999   0.75000   0.00000  Uiso   1.00
C114   C     0.42999   0.32001   0.25000   0.00000  Uiso   1.00
C115   C     0.13579   0.39114   0.28537   0.00000  Uiso   1.00
C116   C     0.36426   0.10879   0.71465   0.00000  Uiso   1.00
C117   C     0.08822   0.11522   0.25591   0.00000  Uiso   1.00
C118   C     0.41178   0.38479   0.74411   0.00000  Uiso   1.00
C119   C     0.36419   0.10886   0.28536   0.00000  Uiso   1.00
C120   C     0.28141   0.01149   0.41833   0.00000  Uiso   1.00
C121   C     0.13574   0.39121   0.71465   0.00000  Uiso   1.00
C122   C     0.38431   0.35732   0.21496   0.00000  Uiso   1.00
C123   C     0.08822   0.11521   0.74412   0.00000  Uiso   1.00
C124   C     0.11521   0.08822   0.74412   0.00000  Uiso   1.00
C125   C     0.35732   0.38431   0.21496   0.00000  Uiso   1.00
C126   C     0.10879   0.36426   0.71465   0.00000  Uiso   1.00
C127   C     0.39115   0.13579   0.28536   0.00000  Uiso   1.00
C128   C     0.38479   0.41178   0.74411   0.00000  Uiso   1.00
C129   C     0.11522   0.08822   0.25591   0.00000  Uiso   1.00
C130   C     0.39121   0.13574   0.71465   0.00000  Uiso   1.00
C131   C     0.21874   0.48830   0.58163   0.00000  Uiso   1.00
C132   C     0.10886   0.36419   0.28537   0.00000  Uiso   1.00
C133   C     0.38574   0.14121   0.78535   0.00000  Uiso   1.00
C134   C     0.11420   0.35886   0.21463   0.00000  Uiso   1.00
C135   C     0.33822   0.36521   0.75589   0.00000  Uiso   1.00
C136   C     0.16178   0.13478   0.24409   0.00000  Uiso   1.00
C137   C     0.11426   0.35879   0.78535   0.00000  Uiso   1.00
C138   C     0.38581   0.14114   0.21463   0.00000  Uiso   1.00
C139   C     0.16178   0.13479   0.75588   0.00000  Uiso   1.00
C140   C     0.36568   0.39268   0.28504   0.00000  Uiso   1.00
C141   C     0.39268   0.36568   0.28504   0.00000  Uiso   1.00
C142   C     0.26170   0.03126   0.91837   0.00000  Uiso   1.00
C143   C     0.13479   0.16178   0.75588   0.00000  Uiso   1.00
C144   C     0.35885   0.11421   0.21463   0.00000  Uiso   1.00
C145   C     0.14120   0.38574   0.78535   0.00000  Uiso   1.00
C146   C     0.13478   0.16178   0.24409   0.00000  Uiso   1.00
C147   C     0.36521   0.33822   0.75589   0.00000  Uiso   1.00
C148   C     0.14114   0.38581   0.21463   0.00000  Uiso   1.00
C149   C     0.35879   0.11426   0.78535   0.00000  Uiso   1.00
C150   C     0.48293   0.22113   0.45901   0.00000  Uiso   1.00
C151   C     0.01690   0.27904   0.54098   0.00000  Uiso   1.00
C152   C     0.27908   0.01681   0.45898   0.00000  Uiso   1.00
Cl153  Cl    0.42604   0.17082   0.45518   0.00000  Uiso   1.00
Cl154  Cl    0.32395   0.07919   0.04482   0.00000  Uiso   1.00
Cl155  Cl    0.07917   0.32396   0.95517   0.00000  Uiso   1.00
Cl156  Cl    0.42042   0.17647   0.04490   0.00000  Uiso   1.00
Cl157  Cl    0.32397   0.07916   0.95517   0.00000  Uiso   1.00
Cl158  Cl    0.17647   0.42043   0.04490   0.00000  Uiso   1.00
Cl159  Cl    0.42057   0.17628   0.95526   0.00000  Uiso   1.00
Cl160  Cl    0.07919   0.32394   0.04482   0.00000  Uiso   1.00
Cl161  Cl    0.14792   0.41250   0.32974   0.00000  Uiso   1.00
Cl162  Cl    0.35220   0.08737   0.67029   0.00000  Uiso   1.00
Cl163  Cl    0.04224   0.10302   0.26514   0.00000  Uiso   1.00
Cl164  Cl    0.07374   0.32942   0.54474   0.00000  Uiso   1.00
Cl165  Cl    0.45777   0.39699   0.73491   0.00000  Uiso   1.00
Cl166  Cl    0.35204   0.08752   0.32975   0.00000  Uiso   1.00
Cl167  Cl    0.14780   0.41264   0.67029   0.00000  Uiso   1.00
Cl168  Cl    0.39477   0.33397   0.17120   0.00000  Uiso   1.00
Cl169  Cl    0.04223   0.10301   0.73492   0.00000  Uiso   1.00
Cl170  Cl    0.10301   0.04223   0.73492   0.00000  Uiso   1.00
Cl171  Cl    0.33397   0.39477   0.17120   0.00000  Uiso   1.00
Cl172  Cl    0.08737   0.35220   0.67029   0.00000  Uiso   1.00
Cl173  Cl    0.41251   0.14791   0.32974   0.00000  Uiso   1.00
Cl174  Cl    0.39699   0.45777   0.73491   0.00000  Uiso   1.00
Cl175  Cl    0.32957   0.07354   0.45510   0.00000  Uiso   1.00
Cl176  Cl    0.10302   0.04224   0.26514   0.00000  Uiso   1.00
Cl177  Cl    0.41264   0.14780   0.67029   0.00000  Uiso   1.00
Cl178  Cl    0.08752   0.35203   0.32975   0.00000  Uiso   1.00
Cl179  Cl    0.39780   0.16263   0.82971   0.00000  Uiso   1.00
Cl180  Cl    0.10208   0.33750   0.17026   0.00000  Uiso   1.00
Cl181  Cl    0.29223   0.35301   0.76509   0.00000  Uiso   1.00
Cl182  Cl    0.20776   0.14698   0.23486   0.00000  Uiso   1.00
Cl183  Cl    0.10220   0.33736   0.82971   0.00000  Uiso   1.00
Cl184  Cl    0.39796   0.16248   0.17025   0.00000  Uiso   1.00
Cl185  Cl    0.20777   0.14699   0.76507   0.00000  Uiso   1.00
Cl186  Cl    0.17084   0.42603   0.54483   0.00000  Uiso   1.00
Cl187  Cl    0.35523   0.41603   0.32880   0.00000  Uiso   1.00
Cl188  Cl    0.41603   0.35523   0.32880   0.00000  Uiso   1.00
Cl189  Cl    0.14699   0.20777   0.76507   0.00000  Uiso   1.00
Cl190  Cl    0.33749   0.10209   0.17026   0.00000  Uiso   1.00
Cl191  Cl    0.16263   0.39780   0.82971   0.00000  Uiso   1.00
Cl192  Cl    0.14698   0.20776   0.23486   0.00000  Uiso   1.00
Cl193  Cl    0.35301   0.29223   0.76509   0.00000  Uiso   1.00
Cl194  Cl    0.16248   0.39797   0.17025   0.00000  Uiso   1.00
Cl195  Cl    0.33736   0.10220   0.82971   0.00000  Uiso   1.00
Cl196  Cl    0.07354   0.32956   0.45510   0.00000  Uiso   1.00
Cl197  Cl    0.42602   0.17085   0.54483   0.00000  Uiso   1.00
Cl198  Cl    0.17082   0.42605   0.45518   0.00000  Uiso   1.00
Cl199  Cl    0.32942   0.07373   0.54474   0.00000  Uiso   1.00
Cl200  Cl    0.17627   0.42057   0.95526   0.00000  Uiso   1.00
H201   H     0.02103   0.31781   0.36668   0.00000  Uiso   1.00
H202   H     0.22898   0.43218   0.13332   0.00000  Uiso   1.00
H203   H     0.43230   0.22858   0.86672   0.00000  Uiso   1.00
H204   H     0.06769   0.27134   0.13323   0.00000  Uiso   1.00
H205   H     0.22858   0.43230   0.86672   0.00000  Uiso   1.00
H206   H     0.27135   0.06769   0.13323   0.00000  Uiso   1.00
H207   H     0.06768   0.27137   0.86676   0.00000  Uiso   1.00
H208   H     0.43218   0.22898   0.13332   0.00000  Uiso   1.00
H209   H     0.47862   0.18232   0.63323   0.00000  Uiso   1.00
H210   H     0.18231   0.47865   0.36677   0.00000  Uiso   1.00
H211   H     0.31770   0.02142   0.63328   0.00000  Uiso   1.00
H212   H     0.47865   0.18231   0.36677   0.00000  Uiso   1.00
H213   H     0.02143   0.31770   0.63328   0.00000  Uiso   1.00
H214   H     0.31782   0.02103   0.36668   0.00000  Uiso   1.00
H215   H     0.18232   0.47862   0.63323   0.00000  Uiso   1.00
H216   H     0.27137   0.06768   0.86676   0.00000  Uiso   1.00
O217   O     0.25000  -0.00000   0.25000   0.00000  Uiso   1.00
O218   O     0.25000   0.46963   0.66245   0.00000  Uiso   1.00
O219   O     0.46963   0.25000   0.33755   0.00000  Uiso   1.00
O220   O     0.03036   0.25000   0.66245   0.00000  Uiso   1.00
O221   O     0.00000   0.21963   0.83755   0.00000  Uiso   1.00
O222   O     0.00000   0.28036   0.16245   0.00000  Uiso   1.00
O223   O     0.28036  -0.00000   0.83755   0.00000  Uiso   1.00
O224   O     0.21963  -0.00000   0.16245   0.00000  Uiso   1.00
O225   O    -0.00000   0.28036   0.83755   0.00000  Uiso   1.00
O226   O     0.00000   0.21963   0.16245   0.00000  Uiso   1.00
O227   O     0.21963  -0.00000   0.83755   0.00000  Uiso   1.00
O228   O     0.25000  -0.00000   0.75000   0.00000  Uiso   1.00
O229   O     0.28036  -0.00000   0.16245   0.00000  Uiso   1.00
O230   O     0.20724   0.07307   0.27302   0.00000  Uiso   1.00
O231   O     0.29275   0.42692   0.72698   0.00000  Uiso   1.00
O232   O     0.42692   0.20724   0.27302   0.00000  Uiso   1.00
O233   O     0.07307   0.29275   0.72698   0.00000  Uiso   1.00
O234   O     0.29275   0.42692   0.27302   0.00000  Uiso   1.00
O235   O     0.20724   0.07307   0.72698   0.00000  Uiso   1.00
O236   O     0.07307   0.29275   0.27302   0.00000  Uiso   1.00
O237   O     0.42692   0.20724   0.72698   0.00000  Uiso   1.00
O238   O     0.20724   0.42692   0.72698   0.00000  Uiso   1.00
O239   O     0.00000   0.25000   0.25000   0.00000  Uiso   1.00
O240   O     0.29275   0.07307   0.27302   0.00000  Uiso   1.00
O241   O     0.42692   0.29275   0.72698   0.00000  Uiso   1.00
O242   O     0.07307   0.20724   0.27302   0.00000  Uiso   1.00
O243   O     0.29275   0.07307   0.72698   0.00000  Uiso   1.00
O244   O     0.20724   0.42692   0.27302   0.00000  Uiso   1.00
O245   O     0.07307   0.20724   0.72698   0.00000  Uiso   1.00
O246   O     0.42692   0.29275   0.27302   0.00000  Uiso   1.00
O247   O     0.45724   0.32307   0.77302   0.00000  Uiso   1.00
O248   O     0.04275   0.17692   0.22698   0.00000  Uiso   1.00
O249   O     0.17692   0.45724   0.77302   0.00000  Uiso   1.00
O250   O     0.00000   0.25000   0.75000   0.00000  Uiso   1.00
O251   O     0.32307   0.04275   0.22698   0.00000  Uiso   1.00
O252   O     0.04275   0.17692   0.77302   0.00000  Uiso   1.00
O253   O     0.45724   0.32307   0.22698   0.00000  Uiso   1.00
O254   O     0.32307   0.04275   0.77302   0.00000  Uiso   1.00
O255   O     0.17692   0.45724   0.22698   0.00000  Uiso   1.00
O256   O     0.45724   0.17692   0.22698   0.00000  Uiso   1.00
O257   O     0.04275   0.32307   0.77302   0.00000  Uiso   1.00
O258   O     0.17692   0.04275   0.22698   0.00000  Uiso   1.00
O259   O     0.32307   0.45724   0.77302   0.00000  Uiso   1.00
O260   O     0.04275   0.32307   0.22698   0.00000  Uiso   1.00
O261   O     0.25000   0.46963   0.33755   0.00000  Uiso   1.00
O262   O     0.45724   0.17692   0.77302   0.00000  Uiso   1.00
O263   O     0.32307   0.45724   0.22698   0.00000  Uiso   1.00
O264   O     0.17692   0.04275   0.77302   0.00000  Uiso   1.00
O265   O     0.00477   0.34536   0.41321   0.00000  Uiso   1.00
O266   O     0.49472   0.15476   0.58666   0.00000  Uiso   1.00
O267   O     0.15476   0.49476   0.41335   0.00000  Uiso   1.00
O268   O     0.34533   0.00514   0.58682   0.00000  Uiso   1.00
O269   O     0.49475   0.15476   0.41335   0.00000  Uiso   1.00
O270   O     0.00514   0.34533   0.58682   0.00000  Uiso   1.00
O271   O     0.34536   0.00476   0.41321   0.00000  Uiso   1.00
O272   O     0.25000   0.03036   0.66245   0.00000  Uiso   1.00
O273   O     0.15476   0.49472   0.58666   0.00000  Uiso   1.00
O274   O     0.25527   0.09524   0.91334   0.00000  Uiso   1.00
O275   O     0.24524   0.40464   0.08679   0.00000  Uiso   1.00
O276   O     0.40467   0.24488   0.91318   0.00000  Uiso   1.00
O277   O     0.09524   0.25523   0.08665   0.00000  Uiso   1.00
O278   O     0.24487   0.40467   0.91318   0.00000  Uiso   1.00
O279   O     0.25523   0.09524   0.08665   0.00000  Uiso   1.00
O280   O     0.09524   0.25527   0.91334   0.00000  Uiso   1.00
O281   O     0.40464   0.24525   0.08679   0.00000  Uiso   1.00
O282   O     0.03036   0.25000   0.33755   0.00000  Uiso   1.00
O283   O     0.46963   0.25000   0.66245   0.00000  Uiso   1.00
O284   O     0.25000   0.03036   0.33755   0.00000  Uiso   1.00
Zn285  Zn    0.20659  -0.00000   0.21735   0.00000  Uiso   1.00
Zn286  Zn    0.04340   0.25000   0.28265   0.00000  Uiso   1.00
Zn287  Zn    0.25000   0.45659   0.71735   0.00000  Uiso   1.00
Zn288  Zn    0.25000   0.04340   0.28265   0.00000  Uiso   1.00
Zn289  Zn    0.04340   0.25000   0.71735   0.00000  Uiso   1.00
Zn290  Zn    0.45659   0.25000   0.28265   0.00000  Uiso   1.00
Zn291  Zn    0.25000   0.04340   0.71735   0.00000  Uiso   1.00
Zn292  Zn    0.25000   0.45659   0.28265   0.00000  Uiso   1.00
Zn293  Zn    0.29340  -0.00000   0.78265   0.00000  Uiso   1.00
Zn294  Zn   -0.00000   0.20659   0.21735   0.00000  Uiso   1.00
Zn295  Zn    0.00000   0.29340   0.78265   0.00000  Uiso   1.00
Zn296  Zn    0.29340  -0.00000   0.21735   0.00000  Uiso   1.00
Zn297  Zn    0.20659  -0.00000   0.78265   0.00000  Uiso   1.00
Zn298  Zn    0.00000   0.29340   0.21735   0.00000  Uiso   1.00
Zn299  Zn   -0.00000   0.20659   0.78265   0.00000  Uiso   1.00
Zn300  Zn    0.45659   0.25000   0.71735   0.00000  Uiso   1.00
C301   C     0.51149   0.28141   0.41833   0.00000  Uiso   1.00
C302   C     0.73851   0.46859   0.08167   0.00000  Uiso   1.00
C303   C     0.72113   0.48294   0.54099   0.00000  Uiso   1.00
C304   C     0.51681   0.27908   0.45898   0.00000  Uiso   1.00
C305   C     0.98294   0.22113   0.54099   0.00000  Uiso   1.00
C306   C     0.72113   0.48293   0.45901   0.00000  Uiso   1.00
C307   C     0.77904   0.01690   0.54098   0.00000  Uiso   1.00
C308   C     0.73311   0.47096   0.95902   0.00000  Uiso   1.00
C309   C     0.76707   0.02887   0.04099   0.00000  Uiso   1.00
C310   C     0.52887   0.26706   0.95901   0.00000  Uiso   1.00
C311   C     0.97092   0.23319   0.04102   0.00000  Uiso   1.00
C312   C     0.76706   0.02887   0.95901   0.00000  Uiso   1.00
C313   C     0.96864   0.23837   0.91835   0.00000  Uiso   1.00
C314   C     0.73319   0.47092   0.04102   0.00000  Uiso   1.00
C315   C     0.97096   0.23311   0.95902   0.00000  Uiso   1.00
C316   C     0.52887   0.26707   0.04099   0.00000  Uiso   1.00
C317   C     0.59809   0.34808   0.25000   0.00000  Uiso   1.00
C318   C     0.90192   0.15191   0.75000   0.00000  Uiso   1.00
C319   C     0.65192   0.09808   0.25000   0.00000  Uiso   1.00
C320   C     0.84808   0.40192   0.75000   0.00000  Uiso   1.00
C321   C     0.90192   0.15191   0.25000   0.00000  Uiso   1.00
C322   C     0.59809   0.34808   0.75000   0.00000  Uiso   1.00
C323   C     0.84808   0.40192   0.25000   0.00000  Uiso   1.00
C324   C     0.53126   0.26170   0.08164   0.00000  Uiso   1.00
C325   C     0.65192   0.09808   0.75000   0.00000  Uiso   1.00
C326   C     0.59808   0.15192   0.75000   0.00000  Uiso   1.00
C327   C     0.90192   0.34808   0.25000   0.00000  Uiso   1.00
C328   C     0.65191   0.40192   0.75000   0.00000  Uiso   1.00
C329   C     0.84808   0.09809   0.25000   0.00000  Uiso   1.00
C330   C     0.90192   0.34808   0.75000   0.00000  Uiso   1.00
C331   C     0.59808   0.15192   0.25000   0.00000  Uiso   1.00
C332   C     0.84808   0.09809   0.75000   0.00000  Uiso   1.00
C333   C     0.65191   0.40192   0.25000   0.00000  Uiso   1.00
C334   C     0.99988   0.25010   0.47949   0.00000  Uiso   1.00
C335   C     0.73837   0.46864   0.91835   0.00000  Uiso   1.00
C336   C     0.99990   0.25010   0.52049   0.00000  Uiso   1.00
C337   C     0.75010   0.49988   0.47950   0.00000  Uiso   1.00
C338   C     0.75010   0.49990   0.52049   0.00000  Uiso   1.00
C339   C     0.75010   0.49990   0.97951   0.00000  Uiso   1.00
C340   C     0.75012   0.49989   0.02051   0.00000  Uiso   1.00
C341   C     0.99990   0.25010   0.97951   0.00000  Uiso   1.00
C342   C     0.99990   0.25012   0.02051   0.00000  Uiso   1.00
C343   C     0.51351   0.31689   0.39717   0.00000  Uiso   1.00
C344   C     0.98612   0.18325   0.60274   0.00000  Uiso   1.00
C345   C     0.68324   0.48615   0.39726   0.00000  Uiso   1.00
C346   C     0.76170   0.03126   0.08164   0.00000  Uiso   1.00
C347   C     0.81682   0.01382   0.60282   0.00000  Uiso   1.00
C348   C     0.98615   0.18324   0.39726   0.00000  Uiso   1.00
C349   C     0.51383   0.31682   0.60282   0.00000  Uiso   1.00
C350   C     0.81689   0.01351   0.39717   0.00000  Uiso   1.00
C351   C     0.68325   0.48613   0.60274   0.00000  Uiso   1.00
C352   C     0.76387   0.06675   0.89726   0.00000  Uiso   1.00
C353   C     0.73649   0.43311   0.10283   0.00000  Uiso   1.00
C354   C     0.93318   0.23618   0.89718   0.00000  Uiso   1.00
C355   C     0.56676   0.26384   0.10274   0.00000  Uiso   1.00
C356   C     0.73618   0.43318   0.89718   0.00000  Uiso   1.00
C357   C     0.53126   0.26169   0.91837   0.00000  Uiso   1.00
C358   C     0.76385   0.06676   0.10274   0.00000  Uiso   1.00
C359   C     0.56675   0.26387   0.89726   0.00000  Uiso   1.00
C360   C     0.93311   0.23650   0.10283   0.00000  Uiso   1.00
C361   C     0.96859   0.23851   0.08167   0.00000  Uiso   1.00
C362   C     0.99996   0.25004   0.39814   0.00000  Uiso   1.00
C363   C     0.99999   0.25003   0.60184   0.00000  Uiso   1.00
C364   C     0.75004   0.49996   0.39814   0.00000  Uiso   1.00
C365   C     0.98830   0.21874   0.58163   0.00000  Uiso   1.00
C366   C     0.75003   0.49999   0.60184   0.00000  Uiso   1.00
C367   C     0.75001   0.49997   0.89816   0.00000  Uiso   1.00
C368   C     0.75004   0.49996   0.10186   0.00000  Uiso   1.00
C369   C     0.99997   0.25001   0.89816   0.00000  Uiso   1.00
C370   C     0.99996   0.25004   0.10186   0.00000  Uiso   1.00
C371   C     0.96000   0.19673   0.47959   0.00000  Uiso   1.00
C372   C     0.53976   0.30349   0.52038   0.00000  Uiso   1.00
C373   C     0.80354   0.03969   0.47955   0.00000  Uiso   1.00
C374   C     0.69673   0.46000   0.52041   0.00000  Uiso   1.00
C375   C     0.53970   0.30353   0.47955   0.00000  Uiso   1.00
C376   C     0.71874   0.48830   0.41836   0.00000  Uiso   1.00
C377   C     0.96000   0.19674   0.52041   0.00000  Uiso   1.00
C378   C     0.69673   0.46000   0.47959   0.00000  Uiso   1.00
C379   C     0.80350   0.03976   0.52038   0.00000  Uiso   1.00
C380   C     0.71025   0.44650   0.97962   0.00000  Uiso   1.00
C381   C     0.78999   0.05328   0.02041   0.00000  Uiso   1.00
C382   C     0.55327   0.28999   0.97959   0.00000  Uiso   1.00
C383   C     0.94646   0.21031   0.02045   0.00000  Uiso   1.00
C384   C     0.79000   0.05327   0.97959   0.00000  Uiso   1.00
C385   C     0.71031   0.44646   0.02045   0.00000  Uiso   1.00
C386   C     0.94650   0.21025   0.97962   0.00000  Uiso   1.00
C387   C     0.78136   0.01163   0.58165   0.00000  Uiso   1.00
C388   C     0.55328   0.28999   0.02041   0.00000  Uiso   1.00
C389   C     0.75001   0.49999   0.35576   0.00000  Uiso   1.00
C390   C     0.75001   0.00000   0.64424   0.00000  Uiso   1.00
C391   C     0.99999   0.25001   0.35576   0.00000  Uiso   1.00
C392   C     0.50000   0.25001   0.64424   0.00000  Uiso   1.00
C393   C     0.99999   0.25000   0.85576   0.00000  Uiso   1.00
C394   C     0.99999   0.25001   0.14424   0.00000  Uiso   1.00
C395   C     0.75000   0.49999   0.85576   0.00000  Uiso   1.00
C396   C     0.75001   0.49999   0.14424   0.00000  Uiso   1.00
C397   C     0.67999   0.07001   0.25000   0.00000  Uiso   1.00
C398   C     0.98830   0.21874   0.41836   0.00000  Uiso   1.00
C399   C     0.82001   0.42999   0.75000   0.00000  Uiso   1.00
C400   C     0.92998   0.17997   0.25000   0.00000  Uiso   1.00
C401   C     0.57002   0.32002   0.75000   0.00000  Uiso   1.00
C402   C     0.82001   0.42999   0.25000   0.00000  Uiso   1.00
C403   C     0.67999   0.07001   0.75000   0.00000  Uiso   1.00
C404   C     0.57002   0.32002   0.25000   0.00000  Uiso   1.00
C405   C     0.92998   0.17998   0.75000   0.00000  Uiso   1.00
C406   C     0.67998   0.42998   0.75000   0.00000  Uiso   1.00
C407   C     0.82002   0.07002   0.24999   0.00000  Uiso   1.00
C408   C     0.92999   0.32001   0.75000   0.00000  Uiso   1.00
C409   C     0.51163   0.28136   0.58165   0.00000  Uiso   1.00
C410   C     0.57001   0.17999   0.25000   0.00000  Uiso   1.00
C411   C     0.82002   0.07002   0.75000   0.00000  Uiso   1.00
C412   C     0.67997   0.42998   0.25000   0.00000  Uiso   1.00
C413   C     0.57001   0.17999   0.75000   0.00000  Uiso   1.00
C414   C     0.92999   0.32001   0.25000   0.00000  Uiso   1.00
C415   C     0.63579   0.39114   0.28537   0.00000  Uiso   1.00
C416   C     0.86426   0.10879   0.71465   0.00000  Uiso   1.00
C417   C     0.58822   0.11522   0.25591   0.00000  Uiso   1.00
C418   C     0.91178   0.38479   0.74411   0.00000  Uiso   1.00
C419   C     0.86419   0.10886   0.28536   0.00000  Uiso   1.00
C420   C     0.78141   0.01149   0.41833   0.00000  Uiso   1.00
C421   C     0.63574   0.39121   0.71465   0.00000  Uiso   1.00
C422   C     0.88431   0.35732   0.21496   0.00000  Uiso   1.00
C423   C     0.58822   0.11521   0.74412   0.00000  Uiso   1.00
C424   C     0.61521   0.08822   0.74412   0.00000  Uiso   1.00
C425   C     0.85732   0.38431   0.21496   0.00000  Uiso   1.00
C426   C     0.60879   0.36426   0.71465   0.00000  Uiso   1.00
C427   C     0.89115   0.13579   0.28536   0.00000  Uiso   1.00
C428   C     0.88479   0.41178   0.74411   0.00000  Uiso   1.00
C429   C     0.61522   0.08822   0.25591   0.00000  Uiso   1.00
C430   C     0.89121   0.13574   0.71465   0.00000  Uiso   1.00
C431   C     0.71874   0.48830   0.58163   0.00000  Uiso   1.00
C432   C     0.60886   0.36419   0.28537   0.00000  Uiso   1.00
C433   C     0.88574   0.14121   0.78535   0.00000  Uiso   1.00
C434   C     0.61420   0.35886   0.21463   0.00000  Uiso   1.00
C435   C     0.83822   0.36521   0.75589   0.00000  Uiso   1.00
C436   C     0.66178   0.13478   0.24409   0.00000  Uiso   1.00
C437   C     0.61426   0.35879   0.78535   0.00000  Uiso   1.00
C438   C     0.88581   0.14114   0.21463   0.00000  Uiso   1.00
C439   C     0.66178   0.13479   0.75588   0.00000  Uiso   1.00
C440   C     0.86568   0.39268   0.28504   0.00000  Uiso   1.00
C441   C     0.89268   0.36568   0.28504   0.00000  Uiso   1.00
C442   C     0.76170   0.03126   0.91837   0.00000  Uiso   1.00
C443   C     0.63479   0.16178   0.75588   0.00000  Uiso   1.00
C444   C     0.85885   0.11421   0.21463   0.00000  Uiso   1.00
C445   C     0.64120   0.38574   0.78535   0.00000  Uiso   1.00
C446   C     0.63478   0.16178   0.24409   0.00000  Uiso   1.00
C447   C     0.86521   0.33822   0.75589   0.00000  Uiso   1.00
C448   C     0.64114   0.38581   0.21463   0.00000  Uiso   1.00
C449   C     0.85879   0.11426   0.78535   0.00000  Uiso   1.00
C450   C     0.98293   0.22113   0.45901   0.00000  Uiso   1.00
C451   C     0.51690   0.27904   0.54098   0.00000  Uiso   1.00
C452   C     0.77908   0.01681   0.45898   0.00000  Uiso   1.00
Cl453  Cl    0.92604   0.17082   0.45518   0.00000  Uiso   1.00
Cl454  Cl    0.82395   0.07919   0.04482   0.00000  Uiso   1.00
Cl455  Cl    0.57917   0.32396   0.95517   0.00000  Uiso   1.00
Cl456  Cl    0.92042   0.17647   0.04490   0.00000  Uiso   1.00
Cl457  Cl    0.82397   0.07916   0.95517   0.00000  Uiso   1.00
Cl458  Cl    0.67647   0.42043   0.04490   0.00000  Uiso   1.00
Cl459  Cl    0.92057   0.17628   0.95526   0.00000  Uiso   1.00
Cl460  Cl    0.57919   0.32394   0.04482   0.00000  Uiso   1.00
Cl461  Cl    0.64792   0.41250   0.32974   0.00000  Uiso   1.00
Cl462  Cl    0.85220   0.08737   0.67029   0.00000  Uiso   1.00
Cl463  Cl    0.54224   0.10302   0.26514   0.00000  Uiso   1.00
Cl464  Cl    0.57374   0.32942   0.54474   0.00000  Uiso   1.00
Cl465  Cl    0.95777   0.39699   0.73491   0.00000  Uiso   1.00
Cl466  Cl    0.85204   0.08752   0.32975   0.00000  Uiso   1.00
Cl467  Cl    0.64780   0.41264   0.67029   0.00000  Uiso   1.00
Cl468  Cl    0.89477   0.33397   0.17120   0.00000  Uiso   1.00
Cl469  Cl    0.54223   0.10301   0.73492   0.00000  Uiso   1.00
Cl470  Cl    0.60301   0.04223   0.73492   0.00000  Uiso   1.00
Cl471  Cl    0.83397   0.39477   0.17120   0.00000  Uiso   1.00
Cl472  Cl    0.58737   0.35220   0.67029   0.00000  Uiso   1.00
Cl473  Cl    0.91251   0.14791   0.32974   0.00000  Uiso   1.00
Cl474  Cl    0.89699   0.45777   0.73491   0.00000  Uiso   1.00
Cl475  Cl    0.82957   0.07354   0.45510   0.00000  Uiso   1.00
Cl476  Cl    0.60302   0.04224   0.26514   0.00000  Uiso   1.00
Cl477  Cl    0.91264   0.14780   0.67029   0.00000  Uiso   1.00
Cl478  Cl    0.58752   0.35203   0.32975   0.00000  Uiso   1.00
Cl479  Cl    0.89780   0.16263   0.82971   0.00000  Uiso   1.00
Cl480  Cl    0.60208   0.33750   0.17026   0.00000  Uiso   1.00
Cl481  Cl    0.79223   0.35301   0.76509   0.00000  Uiso   1.00
Cl482  Cl    0.70776   0.14698   0.23486   0.00000  Uiso   1.00
Cl483  Cl    0.60220   0.33736   0.82971   0.00000  Uiso   1.00
Cl484  Cl    0.89796   0.16248   0.17025   0.00000  Uiso   1.00
Cl485  Cl    0.70777   0.14699   0.76507   0.00000  Uiso   1.00
Cl486  Cl    0.67084   0.42603   0.54483   0.00000  Uiso   1.00
Cl487  Cl    0.85523   0.41603   0.32880   0.00000  Uiso   1.00
Cl488  Cl    0.91603   0.35523   0.32880   0.00000  Uiso   1.00
Cl489  Cl    0.64699   0.20777   0.76507   0.00000  Uiso   1.00
Cl490  Cl    0.83749   0.10209   0.17026   0.00000  Uiso   1.00
Cl491  Cl    0.66263   0.39780   0.82971   0.00000  Uiso   1.00
Cl492  Cl    0.64698   0.20776   0.23486   0.00000  Uiso   1.00
Cl493  Cl    0.85301   0.29223   0.76509   0.00000  Uiso   1.00
Cl494  Cl    0.66248   0.39797   0.17025   0.00000  Uiso   1.00
Cl495  Cl    0.83736   0.10220   0.82971   0.00000  Uiso   1.00
Cl496  Cl    0.57354   0.32956   0.45510   0.00000  Uiso   1.00
Cl497  Cl    0.92602   0.17085   0.54483   0.00000  Uiso   1.00
Cl498  Cl    0.67082   0.42605   0.45518   0.00000  Uiso   1.00
Cl499  Cl    0.82942   0.07373   0.54474   0.00000  Uiso   1.00
Cl500  Cl    0.67627   0.42057   0.95526   0.00000  Uiso   1.00
H501   H     0.52103   0.31781   0.36668   0.00000  Uiso   1.00
H502   H     0.72898   0.43218   0.13332   0.00000  Uiso   1.00
H503   H     0.93230   0.22858   0.86672   0.00000  Uiso   1.00
H504   H     0.56769   0.27134   0.13323   0.00000  Uiso   1.00
H505   H     0.72858   0.43230   0.86672   0.00000  Uiso   1.00
H506   H     0.77135   0.06769   0.13323   0.00000  Uiso   1.00
H507   H     0.56768   0.27137   0.86676   0.00000  Uiso   1.00
H508   H     0.93218   0.22898   0.13332   0.00000  Uiso   1.00
H509   H     0.97862   0.18232   0.63323   0.00000  Uiso   1.00
H510   H     0.68231   0.47865   0.36677   0.00000  Uiso   1.00
H511   H     0.81770   0.02142   0.63328   0.00000  Uiso   1.00
H512   H     0.97865   0.18231   0.36677   0.00000  Uiso   1.00
H513   H     0.52143   0.31770   0.63328   0.00000  Uiso   1.00
H514   H     0.81782   0.02103   0.36668   0.00000  Uiso   1.00
H515   H     0.68232   0.47862   0.63323   0.00000  Uiso   1.00
H516   H     0.77137   0.06768   0.86676   0.00000  Uiso   1.00
O517   O     0.75000  -0.00000   0.25000   0.00000  Uiso   1.00
O518   O     0.75000   0.46963   0.66245   0.00000  Uiso   1.00
O519   O     0.96963   0.25000   0.33755   0.00000  Uiso   1.00
O520   O     0.53036   0.25000   0.66245   0.00000  Uiso   1.00
O521   O     0.50000   0.21963   0.83755   0.00000  Uiso   1.00
O522   O     0.50000   0.28036   0.16245   0.00000  Uiso   1.00
O523   O     0.78036  -0.00000   0.83755   0.00000  Uiso   1.00
O524   O     0.71963  -0.00000   0.16245   0.00000  Uiso   1.00
O525   O     0.50000   0.28036   0.83755   0.00000  Uiso   1.00
O526   O     0.50000   0.21963   0.16245   0.00000  Uiso   1.00
O527   O     0.71963  -0.00000   0.83755   0.00000  Uiso   1.00
O528   O     0.75000  -0.00000   0.75000   0.00000  Uiso   1.00
O529   O     0.78036  -0.00000   0.16245   0.00000  Uiso   1.00
O530   O     0.70724   0.07307   0.27302   0.00000  Uiso   1.00
O531   O     0.79275   0.42692   0.72698   0.00000  Uiso   1.00
O532   O     0.92692   0.20724   0.27302   0.00000  Uiso   1.00
O533   O     0.57307   0.29275   0.72698   0.00000  Uiso   1.00
O534   O     0.79275   0.42692   0.27302   0.00000  Uiso   1.00
O535   O     0.70724   0.07307   0.72698   0.00000  Uiso   1.00
O536   O     0.57307   0.29275   0.27302   0.00000  Uiso   1.00
O537   O     0.92692   0.20724   0.72698   0.00000  Uiso   1.00
O538   O     0.70724   0.42692   0.72698   0.00000  Uiso   1.00
O539   O     0.50000   0.25000   0.25000   0.00000  Uiso   1.00
O540   O     0.79275   0.07307   0.27302   0.00000  Uiso   1.00
O541   O     0.92692   0.29275   0.72698   0.00000  Uiso   1.00
O542   O     0.57307   0.20724   0.27302   0.00000  Uiso   1.00
O543   O     0.79275   0.07307   0.72698   0.00000  Uiso   1.00
O544   O     0.70724   0.42692   0.27302   0.00000  Uiso   1.00
O545   O     0.57307   0.20724   0.72698   0.00000  Uiso   1.00
O546   O     0.92692   0.29275   0.27302   0.00000  Uiso   1.00
O547   O     0.95724   0.32307   0.77302   0.00000  Uiso   1.00
O548   O     0.54275   0.17692   0.22698   0.00000  Uiso   1.00
O549   O     0.67692   0.45724   0.77302   0.00000  Uiso   1.00
O550   O     0.50000   0.25000   0.75000   0.00000  Uiso   1.00
O551   O     0.82307   0.04275   0.22698   0.00000  Uiso   1.00
O552   O     0.54275   0.17692   0.77302   0.00000  Uiso   1.00
O553   O     0.95724   0.32307   0.22698   0.00000  Uiso   1.00
O554   O     0.82307   0.04275   0.77302   0.00000  Uiso   1.00
O555   O     0.67692   0.45724   0.22698   0.00000  Uiso   1.00
O556   O     0.95724   0.17692   0.22698   0.00000  Uiso   1.00
O557   O     0.54275   0.32307   0.77302   0.00000  Uiso   1.00
O558   O     0.67692   0.04275   0.22698   0.00000  Uiso   1.00
O559   O     0.82307   0.45724   0.77302   0.00000  Uiso   1.00
O560   O     0.54275   0.32307   0.22698   0.00000  Uiso   1.00
O561   O     0.75000   0.46963   0.33755   0.00000  Uiso   1.00
O562   O     0.95724   0.17692   0.77302   0.00000  Uiso   1.00
O563   O     0.82307   0.45724   0.22698   0.00000  Uiso   1.00
O564   O     0.67692   0.04275   0.77302   0.00000  Uiso   1.00
O565   O     0.50477   0.34536   0.41321   0.00000  Uiso   1.00
O566   O     0.99472   0.15476   0.58666   0.00000  Uiso   1.00
O567   O     0.65476   0.49476   0.41335   0.00000  Uiso   1.00
O568   O     0.84533   0.00514   0.58682   0.00000  Uiso   1.00
O569   O     0.99475   0.15476   0.41335   0.00000  Uiso   1.00
O570   O     0.50514   0.34533   0.58682   0.00000  Uiso   1.00
O571   O     0.84536   0.00476   0.41321   0.00000  Uiso   1.00
O572   O     0.75000   0.03036   0.66245   0.00000  Uiso   1.00
O573   O     0.65476   0.49472   0.58666   0.00000  Uiso   1.00
O574   O     0.75527   0.09524   0.91334   0.00000  Uiso   1.00
O575   O     0.74524   0.40464   0.08679   0.00000  Uiso   1.00
O576   O     0.90467   0.24488   0.91318   0.00000  Uiso   1.00
O577   O     0.59524   0.25523   0.08665   0.00000  Uiso   1.00
O578   O     0.74487   0.40467   0.91318   0.00000  Uiso   1.00
O579   O     0.75523   0.09524   0.08665   0.00000  Uiso   1.00
O580   O     0.59524   0.25527   0.91334   0.00000  Uiso   1.00
O581   O     0.90464   0.24525   0.08679   0.00000  Uiso   1.00
O582   O     0.53036   0.25000   0.33755   0.00000  Uiso   1.00
O583   O     0.96963   0.25000   0.66245   0.00000  Uiso   1.00
O584   O     0.75000   0.03036   0.33755   0.00000  Uiso   1.00
Zn585  Zn    0.70659  -0.00000   0.21735   0.00000  Uiso   1.00
Zn586  Zn    0.54340   0.25000   0.28265   0.00000  Uiso   1.00
Zn587  Zn    0.75000   0.45659   0.71735   0.00000  Uiso   1.00
Zn588  Zn    0.75000   0.04340   0.28265   0.00000  Uiso   1.00
Zn589  Zn    0.54340   0.25000   0.71735   0.00000  Uiso   1.00
Zn590  Zn    0.95659   0.25000   0.28265   0.00000  Uiso   1.00
Zn591  Zn    0.75000   0.04340   0.71735   0.00000  Uiso   1.00
Zn592  Zn    0.75000   0.45659   0.28265   0.00000  Uiso   1.00
Zn593  Zn    0.79340  -0.00000   0.78265   0.00000  Uiso   1.00
Zn594  Zn    0.50000   0.20659   0.21735   0.00000  Uiso   1.00
Zn595  Zn    0.50000   0.29340   0.78265   0.00000  Uiso   1.00
Zn596  Zn    0.79340  -0.00000   0.21735   0.00000  Uiso   1.00
Zn597  Zn    0.70659  -0.00000   0.78265   0.00000  Uiso   1.00
Zn598  Zn    0.50000   0.29340   0.21735   0.00000  Uiso   1.00
Zn599  Zn    0.50000   0.20659   0.78265   0.00000  Uiso   1.00
Zn600  Zn    0.95659   0.25000   0.71735   0.00000  Uiso   1.00
C601   C     0.01149   0.78141   0.41833   0.00000  Uiso   1.00
C602   C     0.23851   0.96859   0.08167   0.00000  Uiso   1.00
C603   C     0.22113   0.98294   0.54099   0.00000  Uiso   1.00
C604   C     0.01681   0.77908   0.45898   0.00000  Uiso   1.00
C605   C     0.48294   0.72113   0.54099   0.00000  Uiso   1.00
C606   C     0.22113   0.98293   0.45901   0.00000  Uiso   1.00
C607   C     0.27904   0.51690   0.54098   0.00000  Uiso   1.00
C608   C     0.23311   0.97096   0.95902   0.00000  Uiso   1.00
C609   C     0.26707   0.52887   0.04099   0.00000  Uiso   1.00
C610   C     0.02887   0.76706   0.95901   0.00000  Uiso   1.00
C611   C     0.47092   0.73319   0.04102   0.00000  Uiso   1.00
C612   C     0.26706   0.52887   0.95901   0.00000  Uiso   1.00
C613   C     0.46864   0.73837   0.91835   0.00000  Uiso   1.00
C614   C     0.23319   0.97092   0.04102   0.00000  Uiso   1.00
C615   C     0.47096   0.73311   0.95902   0.00000  Uiso   1.00
C616   C     0.02887   0.76707   0.04099   0.00000  Uiso   1.00
C617   C     0.09809   0.84808   0.25000   0.00000  Uiso   1.00
C618   C     0.40192   0.65191   0.75000   0.00000  Uiso   1.00
C619   C     0.15192   0.59808   0.25000   0.00000  Uiso   1.00
C620   C     0.34808   0.90192   0.75000   0.00000  Uiso   1.00
C621   C     0.40192   0.65191   0.25000   0.00000  Uiso   1.00
C622   C     0.09809   0.84808   0.75000   0.00000  Uiso   1.00
C623   C     0.34808   0.90192   0.25000   0.00000  Uiso   1.00
C624   C     0.03126   0.76170   0.08164   0.00000  Uiso   1.00
C625   C     0.15192   0.59808   0.75000   0.00000  Uiso   1.00
C626   C     0.09808   0.65192   0.75000   0.00000  Uiso   1.00
C627   C     0.40192   0.84808   0.25000   0.00000  Uiso   1.00
C628   C     0.15191   0.90192   0.75000   0.00000  Uiso   1.00
C629   C     0.34808   0.59809   0.25000   0.00000  Uiso   1.00
C630   C     0.40192   0.84808   0.75000   0.00000  Uiso   1.00
C631   C     0.09808   0.65192   0.25000   0.00000  Uiso   1.00
C632   C     0.34808   0.59809   0.75000   0.00000  Uiso   1.00
C633   C     0.15191   0.90192   0.25000   0.00000  Uiso   1.00
C634   C     0.49988   0.75010   0.47949   0.00000  Uiso   1.00
C635   C     0.23837   0.96864   0.91835   0.00000  Uiso   1.00
C636   C     0.49990   0.75010   0.52049   0.00000  Uiso   1.00
C637   C     0.25010   0.99988   0.47950   0.00000  Uiso   1.00
C638   C     0.25010   0.99990   0.52049   0.00000  Uiso   1.00
C639   C     0.25010   0.99990   0.97951   0.00000  Uiso   1.00
C640   C     0.25012   0.99989   0.02051   0.00000  Uiso   1.00
C641   C     0.49990   0.75010   0.97951   0.00000  Uiso   1.00
C642   C     0.49990   0.75012   0.02051   0.00000  Uiso   1.00
C643   C     0.01351   0.81689   0.39717   0.00000  Uiso   1.00
C644   C     0.48612   0.68325   0.60274   0.00000  Uiso   1.00
C645   C     0.18324   0.98615   0.39726   0.00000  Uiso   1.00
C646   C     0.26170   0.53126   0.08164   0.00000  Uiso   1.00
C647   C     0.31682   0.51382   0.60282   0.00000  Uiso   1.00
C648   C     0.48615   0.68324   0.39726   0.00000  Uiso   1.00
C649   C     0.01383   0.81682   0.60282   0.00000  Uiso   1.00
C650   C     0.31689   0.51351   0.39717   0.00000  Uiso   1.00
C651   C     0.18325   0.98613   0.60274   0.00000  Uiso   1.00
C652   C     0.26387   0.56675   0.89726   0.00000  Uiso   1.00
C653   C     0.23649   0.93311   0.10283   0.00000  Uiso   1.00
C654   C     0.43318   0.73618   0.89718   0.00000  Uiso   1.00
C655   C     0.06676   0.76384   0.10274   0.00000  Uiso   1.00
C656   C     0.23618   0.93318   0.89718   0.00000  Uiso   1.00
C657   C     0.03126   0.76169   0.91837   0.00000  Uiso   1.00
C658   C     0.26385   0.56676   0.10274   0.00000  Uiso   1.00
C659   C     0.06675   0.76387   0.89726   0.00000  Uiso   1.00
C660   C     0.43311   0.73650   0.10283   0.00000  Uiso   1.00
C661   C     0.46859   0.73851   0.08167   0.00000  Uiso   1.00
C662   C     0.49996   0.75004   0.39814   0.00000  Uiso   1.00
C663   C     0.49999   0.75003   0.60184   0.00000  Uiso   1.00
C664   C     0.25004   0.99996   0.39814   0.00000  Uiso   1.00
C665   C     0.48830   0.71874   0.58163   0.00000  Uiso   1.00
C666   C     0.25003   0.99999   0.60184   0.00000  Uiso   1.00
C667   C     0.25001   0.99997   0.89816   0.00000  Uiso   1.00
C668   C     0.25004   0.99996   0.10186   0.00000  Uiso   1.00
C669   C     0.49997   0.75001   0.89816   0.00000  Uiso   1.00
C670   C     0.49996   0.75004   0.10186   0.00000  Uiso   1.00
C671   C     0.46000   0.69673   0.47959   0.00000  Uiso   1.00
C672   C     0.03976   0.80349   0.52038   0.00000  Uiso   1.00
C673   C     0.30354   0.53969   0.47955   0.00000  Uiso   1.00
C674   C     0.19673   0.96000   0.52041   0.00000  Uiso   1.00
C675   C     0.03970   0.80353   0.47955   0.00000  Uiso   1.00
C676   C     0.21874   0.98830   0.41836   0.00000  Uiso   1.00
C677   C     0.46000   0.69674   0.52041   0.00000  Uiso   1.00
C678   C     0.19673   0.96000   0.47959   0.00000  Uiso   1.00
C679   C     0.30350   0.53976   0.52038   0.00000  Uiso   1.00
C680   C     0.21025   0.94650   0.97962   0.00000  Uiso   1.00
C681   C     0.28999   0.55328   0.02041   0.00000  Uiso   1.00
C682   C     0.05327   0.78999   0.97959   0.00000  Uiso   1.00
C683   C     0.44646   0.71031   0.02045   0.00000  Uiso   1.00
C684   C     0.29000   0.55327   0.97959   0.00000  Uiso   1.00
C685   C     0.21031   0.94646   0.02045   0.00000  Uiso   1.00
C686   C     0.44650   0.71025   0.97962   0.00000  Uiso   1.00
C687   C     0.28136   0.51163   0.58165   0.00000  Uiso   1.00
C688   C     0.05328   0.78999   0.02041   0.00000  Uiso   1.00
C689   C     0.25001   0.99999   0.35576   0.00000  Uiso   1.00
C690   C     0.25001   0.50000   0.64424   0.00000  Uiso   1.00
C691   C     0.49999   0.75001   0.35576   0.00000  Uiso   1.00
C692   C     0.00000   0.75001   0.64424   0.00000  Uiso   1.00
C693   C     0.49999   0.75000   0.85576   0.00000  Uiso   1.00
C694   C     0.49999   0.75001   0.14424   0.00000  Uiso   1.00
C695   C     0.25000   0.99999   0.85576   0.00000  Uiso   1.00
C696   C     0.25001   0.99999   0.14424   0.00000  Uiso   1.00
C697   C     0.17999   0.57001   0.25000   0.00000  Uiso   1.00
C698   C     0.48830   0.71874   0.41836   0.00000  Uiso   1.00
C699   C     0.32001   0.92999   0.75000   0.00000  Uiso   1.00
C700   C     0.42998   0.67997   0.25000   0.00000  Uiso   1.00
C701   C     0.07002   0.82002   0.75000   0.00000  Uiso   1.00
C702   C     0.32001   0.92999   0.25000   0.00000  Uiso   1.00
C703   C     0.17999   0.57001   0.75000   0.00000  Uiso   1.00
C704   C     0.07002   0.82002   0.25000   0.00000  Uiso   1.00
C705   C     0.42998   0.67998   0.75000   0.00000  Uiso   1.00
C706   C     0.17998   0.92998   0.75000   0.00000  Uiso   1.00
C707   C     0.32002   0.57002   0.24999   0.00000  Uiso   1.00
C708   C     0.42999   0.82001   0.75000   0.00000  Uiso   1.00
C709   C     0.01163   0.78136   0.58165   0.00000  Uiso   1.00
C710   C     0.07001   0.67999   0.25000   0.00000  Uiso   1.00
C711   C     0.32002   0.57002   0.75000   0.00000  Uiso   1.00
C712   C     0.17997   0.92998   0.25000   0.00000  Uiso   1.00
C713   C     0.07001   0.67999   0.75000   0.00000  Uiso   1.00
C714   C     0.42999   0.82001   0.25000   0.00000  Uiso   1.00
C715   C     0.13579   0.89114   0.28537   0.00000  Uiso   1.00
C716   C     0.36426   0.60879   0.71465   0.00000  Uiso   1.00
C717   C     0.08822   0.61522   0.25591   0.00000  Uiso   1.00
C718   C     0.41178   0.88479   0.74411   0.00000  Uiso   1.00
C719   C     0.36419   0.60886   0.28536   0.00000  Uiso   1.00
C720   C     0.28141   0.51149   0.41833   0.00000  Uiso   1.00
C721   C     0.13574   0.89121   0.71465   0.00000  Uiso   1.00
C722   C     0.38431   0.85732   0.21496   0.00000  Uiso   1.00
C723   C     0.08822   0.61521   0.74412   0.00000  Uiso   1.00
C724   C     0.11521   0.58822   0.74412   0.00000  Uiso   1.00
C725   C     0.35732   0.88431   0.21496   0.00000  Uiso   1.00
C726   C     0.10879   0.86426   0.71465   0.00000  Uiso   1.00
C727   C     0.39115   0.63579   0.28536   0.00000  Uiso   1.00
C728   C     0.38479   0.91178   0.74411   0.00000  Uiso   1.00
C729   C     0.11522   0.58822   0.25591   0.00000  Uiso   1.00
C730   C     0.39121   0.63574   0.71465   0.00000  Uiso   1.00
C731   C     0.21874   0.98830   0.58163   0.00000  Uiso   1.00
C732   C     0.10886   0.86419   0.28537   0.00000  Uiso   1.00
C733   C     0.38574   0.64121   0.78535   0.00000  Uiso   1.00
C734   C     0.11420   0.85886   0.21463   0.00000  Uiso   1.00
C735   C     0.33822   0.86521   0.75589   0.00000  Uiso   1.00
C736   C     0.16178   0.63478   0.24409   0.00000  Uiso   1.00
C737   C     0.11426   0.85879   0.78535   0.00000  Uiso   1.00
C738   C     0.38581   0.64114   0.21463   0.00000  Uiso   1.00
C739   C     0.16178   0.63479   0.75588   0.00000  Uiso   1.00
C740   C     0.36568   0.89268   0.28504   0.00000  Uiso   1.00
C741   C     0.39268   0.86568   0.28504   0.00000  Uiso   1.00
C742   C     0.26170   0.53126   0.91837   0.00000  Uiso   1.00
C743   C     0.13479   0.66178   0.75588   0.00000  Uiso   1.00
C744   C     0.35885   0.61421   0.21463   0.00000  Uiso   1.00
C745   C     0.14120   0.88574   0.78535   0.00000  Uiso   1.00
C746   C     0.13478   0.66178   0.24409   0.00000  Uiso   1.00
C747   C     0.36521   0.83822   0.75589   0.00000  Uiso   1.00
C748   C     0.14114   0.88581   0.21463   0.00000  Uiso   1.00
C749   C     0.35879   0.61426   0.78535   0.00000  Uiso   1.00
C750   C     0.48293   0.72113   0.45901   0.00000  Uiso   1.00
C751   C     0.01690   0.77904   0.54098   0.00000  Uiso   1.00
C752   C     0.27908   0.51681   0.45898   0.00000  Uiso   1.00
Cl753  Cl    0.42604   0.67082   0.45518   0.00000  Uiso   1.00
Cl754  Cl    0.32395   0.57919   0.04482   0.00000  Uiso   1.00
Cl755  Cl    0.07917   0.82396   0.95517   0.00000  Uiso   1.00
Cl756  Cl    0.42042   0.67647   0.04490   0.00000  Uiso   1.00
Cl757  Cl    0.32397   0.57916   0.95517   0.00000  Uiso   1.00
Cl758  Cl    0.17647   0.92043   0.04490   0.00000  Uiso   1.00
Cl759  Cl    0.42057   0.67628   0.95526   0.00000  Uiso   1.00
Cl760  Cl    0.07919   0.82394   0.04482   0.00000  Uiso   1.00
Cl761  Cl    0.14792   0.91250   0.32974   0.00000  Uiso   1.00
Cl762  Cl    0.35220   0.58737   0.67029   0.00000  Uiso   1.00
Cl763  Cl    0.04224   0.60302   0.26514   0.00000  Uiso   1.00
Cl764  Cl    0.07374   0.82942   0.54474   0.00000  Uiso   1.00
Cl765  Cl    0.45777   0.89699   0.73491   0.00000  Uiso   1.00
Cl766  Cl    0.35204   0.58752   0.32975   0.00000  Uiso   1.00
Cl767  Cl    0.14780   0.91264   0.67029   0.00000  Uiso   1.00
Cl768  Cl    0.39477   0.83397   0.17120   0.00000  Uiso   1.00
Cl769  Cl    0.04223   0.60301   0.73492   0.00000  Uiso   1.00
Cl770  Cl    0.10301   0.54223   0.73492   0.00000  Uiso   1.00
Cl771  Cl    0.33397   0.89477   0.17120   0.00000  Uiso   1.00
Cl772  Cl    0.08737   0.85220   0.67029   0.00000  Uiso   1.00
Cl773  Cl    0.41251   0.64791   0.32974   0.00000  Uiso   1.00
Cl774  Cl    0.39699   0.95777   0.73491   0.00000  Uiso   1.00
Cl775  Cl    0.32957   0.57354   0.45510   0.00000  Uiso   1.00
Cl776  Cl    0.10302   0.54224   0.26514   0.00000  Uiso   1.00
Cl777  Cl    0.41264   0.64780   0.67029   0.00000  Uiso   1.00
Cl778  Cl    0.08752   0.85203   0.32975   0.00000  Uiso   1.00
Cl779  Cl    0.39780   0.66263   0.82971   0.00000  Uiso   1.00
Cl780  Cl    0.10208   0.83750   0.17026   0.00000  Uiso   1.00
Cl781  Cl    0.29223   0.85301   0.76509   0.00000  Uiso   1.00
Cl782  Cl    0.20776   0.64698   0.23486   0.00000  Uiso   1.00
Cl783  Cl    0.10220   0.83736   0.82971   0.00000  Uiso   1.00
Cl784  Cl    0.39796   0.66248   0.17025   0.00000  Uiso   1.00
Cl785  Cl    0.20777   0.64699   0.76507   0.00000  Uiso   1.00
Cl786  Cl    0.17084   0.92603   0.54483   0.00000  Uiso   1.00
Cl787  Cl    0.35523   0.91603   0.32880   0.00000  Uiso   1.00
Cl788  Cl    0.41603   0.85523   0.32880   0.00000  Uiso   1.00
Cl789  Cl    0.14699   0.70777   0.76507   0.00000  Uiso   1.00
Cl790  Cl    0.33749   0.60209   0.17026   0.00000  Uiso   1.00
Cl791  Cl    0.16263   0.89780   0.82971   0.00000  Uiso   1.00
Cl792  Cl    0.14698   0.70776   0.23486   0.00000  Uiso   1.00
Cl793  Cl    0.35301   0.79223   0.76509   0.00000  Uiso   1.00
Cl794  Cl    0.16248   0.89797   0.17025   0.00000  Uiso   1.00
Cl795  Cl    0.33736   0.60220   0.82971   0.00000  Uiso   1.00
Cl796  Cl    0.07354   0.82956   0.45510   0.00000  Uiso   1.00
Cl797  Cl    0.42602   0.67085   0.54483   0.00000  Uiso   1.00
Cl798  Cl    0.17082   0.92605   0.45518   0.00000  Uiso   1.00
Cl799  Cl    0.32942   0.57373   0.54474   0.00000  Uiso   1.00
Cl800  Cl    0.17627   0.92057   0.95526   0.00000  Uiso   1.00
H801   H     0.02103   0.81781   0.36668   0.00000  Uiso   1.00
H802   H     0.22898   0.93218   0.13332   0.00000  Uiso   1.00
H803   H     0.43230   0.72858   0.86672   0.00000  Uiso   1.00
H804   H     0.06769   0.77134   0.13323   0.00000  Uiso   1.00
H805   H     0.22858   0.93230   0.86672   0.00000  Uiso   1.00
H806   H     0.27135   0.56769   0.13323   0.00000  Uiso   1.00
H807   H     0.06768   0.77137   0.86676   0.00000  Uiso   1.00
H808   H     0.43218   0.72898   0.13332   0.00000  Uiso   1.00
H809   H     0.47862   0.68232   0.63323   0.00000  Uiso   1.00
H810   H     0.18231   0.97865   0.36677   0.00000  Uiso   1.00
H811   H     0.31770   0.52142   0.63328   0.00000  Uiso   1.00
H812   H     0.47865   0.68231   0.36677   0.00000  Uiso   1.00
H813   H     0.02143   0.81770   0.63328   0.00000  Uiso   1.00
H814   H     0.31782   0.52103   0.36668   0.00000  Uiso   1.00
H815   H     0.18232   0.97862   0.63323   0.00000  Uiso   1.00
H816   H     0.27137   0.56768   0.86676   0.00000  Uiso   1.00
O817   O     0.25000   0.50000   0.25000   0.00000  Uiso   1.00
O818   O     0.25000   0.96963   0.66245   0.00000  Uiso   1.00
O819   O     0.46963   0.75000   0.33755   0.00000  Uiso   1.00
O820   O     0.03036   0.75000   0.66245   0.00000  Uiso   1.00
O821   O     0.00000   0.71963   0.83755   0.00000  Uiso   1.00
O822   O     0.00000   0.78036   0.16245   0.00000  Uiso   1.00
O823   O     0.28036   0.50000   0.83755   0.00000  Uiso   1.00
O824   O     0.21963   0.50000   0.16245   0.00000  Uiso   1.00
O825   O    -0.00000   0.78036   0.83755   0.00000  Uiso   1.00
O826   O     0.00000   0.71963   0.16245   0.00000  Uiso   1.00
O827   O     0.21963   0.50000   0.83755   0.00000  Uiso   1.00
O828   O     0.25000   0.50000   0.75000   0.00000  Uiso   1.00
O829   O     0.28036   0.50000   0.16245   0.00000  Uiso   1.00
O830   O     0.20724   0.57307   0.27302   0.00000  Uiso   1.00
O831   O     0.29275   0.92692   0.72698   0.00000  Uiso   1.00
O832   O     0.42692   0.70724   0.27302   0.00000  Uiso   1.00
O833   O     0.07307   0.79275   0.72698   0.00000  Uiso   1.00
O834   O     0.29275   0.92692   0.27302   0.00000  Uiso   1.00
O835   O     0.20724   0.57307   0.72698   0.00000  Uiso   1.00
O836   O     0.07307   0.79275   0.27302   0.00000  Uiso   1.00
O837   O     0.42692   0.70724   0.72698   0.00000  Uiso   1.00
O838   O     0.20724   0.92692   0.72698   0.00000  Uiso   1.00
O839   O     0.00000   0.75000   0.25000   0.00000  Uiso   1.00
O840   O     0.29275   0.57307   0.27302   0.00000  Uiso   1.00
O841   O     0.42692   0.79275   0.72698   0.00000  Uiso   1.00
O842   O     0.07307   0.70724   0.27302   0.00000  Uiso   1.00
O843   O     0.29275   0.57307   0.72698   0.00000  Uiso   1.00
O844   O     0.20724   0.92692   0.27302   0.00000  Uiso   1.00
O845   O     0.07307   0.70724   0.72698   0.00000  Uiso   1.00
O846   O     0.42692   0.79275   0.27302   0.00000  Uiso   1.00
O847   O     0.45724   0.82307   0.77302   0.00000  Uiso   1.00
O848   O     0.04275   0.67692   0.22698   0.00000  Uiso   1.00
O849   O     0.17692   0.95724   0.77302   0.00000  Uiso   1.00
O850   O     0.00000   0.75000   0.75000   0.00000  Uiso   1.00
O851   O     0.32307   0.54275   0.22698   0.00000  Uiso   1.00
O852   O     0.04275   0.67692   0.77302   0.00000  Uiso   1.00
O853   O     0.45724   0.82307   0.22698   0.00000  Uiso   1.00
O854   O     0.32307   0.54275   0.77302   0.00000  Uiso   1.00
O855   O     0.17692   0.95724   0.22698   0.00000  Uiso   1.00
O856   O     0.45724   0.67692   0.22698   0.00000  Uiso   1.00
O857   O     0.04275   0.82307   0.77302   0.00000  Uiso   1.00
O858   O     0.17692   0.54275   0.22698   0.00000  Uiso   1.00
O859   O     0.32307   0.95724   0.77302   0.00000  Uiso   1.00
O860   O     0.04275   0.82307   0.22698   0.00000  Uiso   1.00
O861   O     0.25000   0.96963   0.33755   0.00000  Uiso   1.00
O862   O     0.45724   0.67692   0.77302   0.00000  Uiso   1.00
O863   O     0.32307   0.95724   0.22698   0.00000  Uiso   1.00
O864   O     0.17692   0.54275   0.77302   0.00000  Uiso   1.00
O865   O     0.00477   0.84536   0.41321   0.00000  Uiso   1.00
O866   O     0.49472   0.65476   0.58666   0.00000  Uiso   1.00
O867   O     0.15476   0.99476   0.41335   0.00000  Uiso   1.00
O868   O     0.34533   0.50514   0.58682   0.00000  Uiso   1.00
O869   O     0.49475   0.65476   0.41335   0.00000  Uiso   1.00
O870   O     0.00514   0.84533   0.58682   0.00000  Uiso   1.00
O871   O     0.34536   0.50476   0.41321   0.00000  Uiso   1.00
O872   O     0.25000   0.53036   0.66245   0.00000  Uiso   1.00
O873   O     0.15476   0.99472   0.58666   0.00000  Uiso   1.00
O874   O     0.25527   0.59524   0.91334   0.00000  Uiso   1.00
O875   O     0.24524   0.90464   0.08679   0.00000  Uiso   1.00
O876   O     0.40467   0.74488   0.91318   0.00000  Uiso   1.00
O877   O     0.09524   0.75523   0.08665   0.00000  Uiso   1.00
O878   O     0.24487   0.90467   0.91318   0.00000  Uiso   1.00
O879   O     0.25523   0.59524   0.08665   0.00000  Uiso   1.00
O880   O     0.09524   0.75527   0.91334   0.00000  Uiso   1.00
O881   O     0.40464   0.74525   0.08679   0.00000  Uiso   1.00
O882   O     0.03036   0.75000   0.33755   0.00000  Uiso   1.00
O883   O     0.46963   0.75000   0.66245   0.00000  Uiso   1.00
O884   O     0.25000   0.53036   0.33755   0.00000  Uiso   1.00
Zn885  Zn    0.20659   0.50000   0.21735   0.00000  Uiso   1.00
Zn886  Zn    0.04340   0.75000   0.28265   0.00000  Uiso   1.00
Zn887  Zn    0.25000   0.95659   0.71735   0.00000  Uiso   1.00
Zn888  Zn    0.25000   0.54340   0.28265   0.00000  Uiso   1.00
Zn889  Zn    0.04340   0.75000   0.71735   0.00000  Uiso   1.00
Zn890  Zn    0.45659   0.75000   0.28265   0.00000  Uiso   1.00
Zn891  Zn    0.25000   0.54340   0.71735   0.00000  Uiso   1.00
Zn892  Zn    0.25000   0.95659   0.28265   0.00000  Uiso   1.00
Zn893  Zn    0.29340   0.50000   0.78265   0.00000  Uiso   1.00
Zn894  Zn   -0.00000   0.70659   0.21735   0.00000  Uiso   1.00
Zn895  Zn    0.00000   0.79340   0.78265   0.00000  Uiso   1.00
Zn896  Zn    0.29340   0.50000   0.21735   0.00000  Uiso   1.00
Zn897  Zn    0.20659   0.50000   0.78265   0.00000  Uiso   1.00
Zn898  Zn    0.00000   0.79340   0.21735   0.00000  Uiso   1.00
Zn899  Zn   -0.00000   0.70659   0.78265   0.00000  Uiso   1.00
Zn900  Zn    0.45659   0.75000   0.71735   0.00000  Uiso   1.00
C901   C     0.51149   0.78141   0.41833   0.00000  Uiso   1.00
C902   C     0.73851   0.96859   0.08167   0.00000  Uiso   1.00
C903   C     0.72113   0.98294   0.54099   0.00000  Uiso   1.00
C904   C     0.51681   0.77908   0.45898   0.00000  Uiso   1.00
C905   C     0.98294   0.72113   0.54099   0.00000  Uiso   1.00
C906   C     0.72113   0.98293   0.45901   0.00000  Uiso   1.00
C907   C     0.77904   0.51690   0.54098   0.00000  Uiso   1.00
C908   C     0.73311   0.97096   0.95902   0.00000  Uiso   1.00
C909   C     0.76707   0.52887   0.04099   0.00000  Uiso   1.00
C910   C     0.52887   0.76706   0.95901   0.00000  Uiso   1.00
C911   C     0.97092   0.73319   0.04102   0.00000  Uiso   1.00
C912   C     0.76706   0.52887   0.95901   0.00000  Uiso   1.00
C913   C     0.96864   0.73837   0.91835   0.00000  Uiso   1.00
C914   C     0.73319   0.97092   0.04102   0.00000  Uiso   1.00
C915   C     0.97096   0.73311   0.95902   0.00000  Uiso   1.00
C916   C     0.52887   0.76707   0.04099   0.00000  Uiso   1.00
C917   C     0.59809   0.84808   0.25000   0.00000  Uiso   1.00
C918   C     0.90192   0.65191   0.75000   0.00000  Uiso   1.00
C919   C     0.65192   0.59808   0.25000   0.00000  Uiso   1.00
C920   C     0.84808   0.90192   0.75000   0.00000  Uiso   1.00
C921   C     0.90192   0.65191   0.25000   0.00000  Uiso   1.00
C922   C     0.59809   0.84808   0.75000   0.00000  Uiso   1.00
C923   C     0.84808   0.90192   0.25000   0.00000  Uiso   1.00
C924   C     0.53126   0.76170   0.08164   0.00000  Uiso   1.00
C925   C     0.65192   0.59808   0.75000   0.00000  Uiso   1.00
C926   C     0.59808   0.65192   0.75000   0.00000  Uiso   1.00
C927   C     0.90192   0.84808   0.25000   0.00000  Uiso   1.00
C928   C     0.65191   0.90192   0.75000   0.00000  Uiso   1.00
C929   C     0.84808   0.59809   0.25000   0.00000  Uiso   1.00
C930   C     0.90192   0.84808   0.75000   0.00000  Uiso   1.00
C931   C     0.59808   0.65192   0.25000   0.00000  Uiso   1.00
C932   C     0.84808   0.59809   0.75000   0.00000  Uiso   1.00
C933   C     0.65191   0.90192   0.25000   0.00000  Uiso   1.00
C934   C     0.99988   0.75010   0.47949   0.00000  Uiso   1.00
C935   C     0.73837   0.96864   0.91835   0.00000  Uiso   1.00
C936   C     0.99990   0.75010   0.52049   0.00000  Uiso   1.00
C937   C     0.75010   0.99988   0.47950   0.00000  Uiso   1.00
C938   C     0.75010   0.99990   0.52049   0.00000  Uiso   1.00
C939   C     0.75010   0.99990   0.97951   0.00000  Uiso   1.00
C940   C     0.75012   0.99989   0.02051   0.00000  Uiso   1.00
C941   C     0.99990   0.75010   0.97951   0.00000  Uiso   1.00
C942   C     0.99990   0.75012   0.02051   0.00000  Uiso   1.00
C943   C     0.51351   0.81689   0.39717   0.00000  Uiso   1.00
C944   C     0.98612   0.68325   0.60274   0.00000  Uiso   1.00
C945   C     0.68324   0.98615   0.39726   0.00000  Uiso   1.00
C946   C     0.76170   0.53126   0.08164   0.00000  Uiso   1.00
C947   C     0.81682   0.51382   0.60282   0.00000  Uiso   1.00
C948   C     0.98615   0.68324   0.39726   0.00000  Uiso   1.00
C949   C     0.51383   0.81682   0.60282   0.00000  Uiso   1.00
C950   C     0.81689   0.51351   0.39717   0.00000  Uiso   1.00
C951   C     0.68325   0.98613   0.60274   0.00000  Uiso   1.00
C952   C     0.76387   0.56675   0.89726   0.00000  Uiso   1.00
C953   C     0.73649   0.93311   0.10283   0.00000  Uiso   1.00
C954   C     0.93318   0.73618   0.89718   0.00000  Uiso   1.00
C955   C     0.56676   0.76384   0.10274   0.00000  Uiso   1.00
C956   C     0.73618   0.93318   0.89718   0.00000  Uiso   1.00
C957   C     0.53126   0.76169   0.91837   0.00000  Uiso   1.00
C958   C     0.76385   0.56676   0.10274   0.00000  Uiso   1.00
C959   C     0.56675   0.76387   0.89726   0.00000  Uiso   1.00
C960   C     0.93311   0.73650   0.10283   0.00000  Uiso   1.00
C961   C     0.96859   0.73851   0.08167   0.00000  Uiso   1.00
C962   C     0.99996   0.75004   0.39814   0.00000  Uiso   1.00
C963   C     0.99999   0.75003   0.60184   0.00000  Uiso   1.00
C964   C     0.75004   0.99996   0.39814   0.00000  Uiso   1.00
C965   C     0.98830   0.71874   0.58163   0.00000  Uiso   1.00
C966   C     0.75003   0.99999   0.60184   0.00000  Uiso   1.00
C967   C     0.75001   0.99997   0.89816   0.00000  Uiso   1.00
C968   C     0.75004   0.99996   0.10186   0.00000  Uiso   1.00
C969   C     0.99997   0.75001   0.89816   0.00000  Uiso   1.00
C970   C     0.99996   0.75004   0.10186   0.00000  Uiso   1.00
C971   C     0.96000   0.69673   0.47959   0.00000  Uiso   1.00
C972   C     0.53976   0.80349   0.52038   0.00000  Uiso   1.00
C973   C     0.80354   0.53969   0.47955   0.00000  Uiso   1.00
C974   C     0.69673   0.96000   0.52041   0.00000  Uiso   1.00
C975   C     0.53970   0.80353   0.47955   0.00000  Uiso   1.00
C976   C     0.71874   0.98830   0.41836   0.00000  Uiso   1.00
C977   C     0.96000   0.69674   0.52041   0.00000  Uiso   1.00
C978   C     0.69673   0.96000   0.47959   0.00000  Uiso   1.00
C979   C     0.80350   0.53976   0.52038   0.00000  Uiso   1.00
C980   C     0.71025   0.94650   0.97962   0.00000  Uiso   1.00
C981   C     0.78999   0.55328   0.02041   0.00000  Uiso   1.00
C982   C     0.55327   0.78999   0.97959   0.00000  Uiso   1.00
C983   C     0.94646   0.71031   0.02045   0.00000  Uiso   1.00
C984   C     0.79000   0.55327   0.97959   0.00000  Uiso   1.00
C985   C     0.71031   0.94646   0.02045   0.00000  Uiso   1.00
C986   C     0.94650   0.71025   0.97962   0.00000  Uiso   1.00
C987   C     0.78136   0.51163   0.58165   0.00000  Uiso   1.00
C988   C     0.55328   0.78999   0.02041   0.00000  Uiso   1.00
C989   C     0.75001   0.99999   0.35576   0.00000  Uiso   1.00
C990   C     0.75001   0.50000   0.64424   0.00000  Uiso   1.00
C991   C     0.99999   0.75001   0.35576   0.00000  Uiso   1.00
C992   C     0.50000   0.75001   0.64424   0.00000  Uiso   1.00
C993   C     0.99999   0.75000   0.85576   0.00000  Uiso   1.00
C994   C     0.99999   0.75001   0.14424   0.00000  Uiso   1.00
C995   C     0.75000   0.99999   0.85576   0.00000  Uiso   1.00
C996   C     0.75001   0.99999   0.14424   0.00000  Uiso   1.00
C997   C     0.67999   0.57001   0.25000   0.00000  Uiso   1.00
C998   C     0.98830   0.71874   0.41836   0.00000  Uiso   1.00
C999   C     0.82001   0.92999   0.75000   0.00000  Uiso   1.00
C1000  C     0.92998   0.67997   0.25000   0.00000  Uiso   1.00
C1001  C     0.57002   0.82002   0.75000   0.00000  Uiso   1.00
C1002  C     0.82001   0.92999   0.25000   0.00000  Uiso   1.00
C1003  C     0.67999   0.57001   0.75000   0.00000  Uiso   1.00
C1004  C     0.57002   0.82002   0.25000   0.00000  Uiso   1.00
C1005  C     0.92998   0.67998   0.75000   0.00000  Uiso   1.00
C1006  C     0.67998   0.92998   0.75000   0.00000  Uiso   1.00
C1007  C     0.82002   0.57002   0.24999   0.00000  Uiso   1.00
C1008  C     0.92999   0.82001   0.75000   0.00000  Uiso   1.00
C1009  C     0.51163   0.78136   0.58165   0.00000  Uiso   1.00
C1010  C     0.57001   0.67999   0.25000   0.00000  Uiso   1.00
C1011  C     0.82002   0.57002   0.75000   0.00000  Uiso   1.00
C1012  C     0.67997   0.92998   0.25000   0.00000  Uiso   1.00
C1013  C     0.57001   0.67999   0.75000   0.00000  Uiso   1.00
C1014  C     0.92999   0.82001   0.25000   0.00000  Uiso   1.00
C1015  C     0.63579   0.89114   0.28537   0.00000  Uiso   1.00
C1016  C     0.86426   0.60879   0.71465   0.00000  Uiso   1.00
C1017  C     0.58822   0.61522   0.25591   0.00000  Uiso   1.00
C1018  C     0.91178   0.88479   0.74411   0.00000  Uiso   1.00
C1019  C     0.86419   0.60886   0.28536   0.00000  Uiso   1.00
C1020  C     0.78141   0.51149   0.41833   0.00000  Uiso   1.00
C1021  C     0.63574   0.89121   0.71465   0.00000  Uiso   1.00
C1022  C     0.88431   0.85732   0.21496   0.00000  Uiso   1.00
C1023  C     0.58822   0.61521   0.74412   0.00000  Uiso   1.00
C1024  C     0.61521   0.58822   0.74412   0.00000  Uiso   1.00
C1025  C     0.85732   0.88431   0.21496   0.00000  Uiso   1.00
C1026  C     0.60879   0.86426   0.71465   0.00000  Uiso   1.00
C1027  C     0.89115   0.63579   0.28536   0.00000  Uiso   1.00
C1028  C     0.88479   0.91178   0.74411   0.00000  Uiso   1.00
C1029  C     0.61522   0.58822   0.25591   0.00000  Uiso   1.00
C1030  C     0.89121   0.63574   0.71465   0.00000  Uiso   1.00
C1031  C     0.71874   0.98830   0.58163   0.00000  Uiso   1.00
C1032  C     0.60886   0.86419   0.28537   0.00000  Uiso   1.00
C1033  C     0.88574   0.64121   0.78535   0.00000  Uiso   1.00
C1034  C     0.61420   0.85886   0.21463   0.00000  Uiso   1.00
C1035  C     0.83822   0.86521   0.75589   0.00000  Uiso   1.00
C1036  C     0.66178   0.63478   0.24409   0.00000  Uiso   1.00
C1037  C     0.61426   0.85879   0.78535   0.00000  Uiso   1.00
C1038  C     0.88581   0.64114   0.21463   0.00000  Uiso   1.00
C1039  C     0.66178   0.63479   0.75588   0.00000  Uiso   1.00
C1040  C     0.86568   0.89268   0.28504   0.00000  Uiso   1.00
C1041  C     0.89268   0.86568   0.28504   0.00000  Uiso   1.00
C1042  C     0.76170   0.53126   0.91837   0.00000  Uiso   1.00
C1043  C     0.63479   0.66178   0.75588   0.00000  Uiso   1.00
C1044  C     0.85885   0.61421   0.21463   0.00000  Uiso   1.00
C1045  C     0.64120   0.88574   0.78535   0.00000  Uiso   1.00
C1046  C     0.63478   0.66178   0.24409   0.00000  Uiso   1.00
C1047  C     0.86521   0.83822   0.75589   0.00000  Uiso   1.00
C1048  C     0.64114   0.88581   0.21463   0.00000  Uiso   1.00
C1049  C     0.85879   0.61426   0.78535   0.00000  Uiso   1.00
C1050  C     0.98293   0.72113   0.45901   0.00000  Uiso   1.00
C1051  C     0.51690   0.77904   0.54098   0.00000  Uiso   1.00
C1052  C     0.77908   0.51681   0.45898   0.00000  Uiso   1.00
Cl1053 Cl    0.92604   0.67082   0.45518   0.00000  Uiso   1.00
Cl1054 Cl    0.82395   0.57919   0.04482   0.00000  Uiso   1.00
Cl1055 Cl    0.57917   0.82396   0.95517   0.00000  Uiso   1.00
Cl1056 Cl    0.92042   0.67647   0.04490   0.00000  Uiso   1.00
Cl1057 Cl    0.82397   0.57916   0.95517   0.00000  Uiso   1.00
Cl1058 Cl    0.67647   0.92043   0.04490   0.00000  Uiso   1.00
Cl1059 Cl    0.92057   0.67628   0.95526   0.00000  Uiso   1.00
Cl1060 Cl    0.57919   0.82394   0.04482   0.00000  Uiso   1.00
Cl1061 Cl    0.64792   0.91250   0.32974   0.00000  Uiso   1.00
Cl1062 Cl    0.85220   0.58737   0.67029   0.00000  Uiso   1.00
Cl1063 Cl    0.54224   0.60302   0.26514   0.00000  Uiso   1.00
Cl1064 Cl    0.57374   0.82942   0.54474   0.00000  Uiso   1.00
Cl1065 Cl    0.95777   0.89699   0.73491   0.00000  Uiso   1.00
Cl1066 Cl    0.85204   0.58752   0.32975   0.00000  Uiso   1.00
Cl1067 Cl    0.64780   0.91264   0.67029   0.00000  Uiso   1.00
Cl1068 Cl    0.89477   0.83397   0.17120   0.00000  Uiso   1.00
Cl1069 Cl    0.54223   0.60301   0.73492   0.00000  Uiso   1.00
Cl1070 Cl    0.60301   0.54223   0.73492   0.00000  Uiso   1.00
Cl1071 Cl    0.83397   0.89477   0.17120   0.00000  Uiso   1.00
Cl1072 Cl    0.58737   0.85220   0.67029   0.00000  Uiso   1.00
Cl1073 Cl    0.91251   0.64791   0.32974   0.00000  Uiso   1.00
Cl1074 Cl    0.89699   0.95777   0.73491   0.00000  Uiso   1.00
Cl1075 Cl    0.82957   0.57354   0.45510   0.00000  Uiso   1.00
Cl1076 Cl    0.60302   0.54224   0.26514   0.00000  Uiso   1.00
Cl1077 Cl    0.91264   0.64780   0.67029   0.00000  Uiso   1.00
Cl1078 Cl    0.58752   0.85203   0.32975   0.00000  Uiso   1.00
Cl1079 Cl    0.89780   0.66263   0.82971   0.00000  Uiso   1.00
Cl1080 Cl    0.60208   0.83750   0.17026   0.00000  Uiso   1.00
Cl1081 Cl    0.79223   0.85301   0.76509   0.00000  Uiso   1.00
Cl1082 Cl    0.70776   0.64698   0.23486   0.00000  Uiso   1.00
Cl1083 Cl    0.60220   0.83736   0.82971   0.00000  Uiso   1.00
Cl1084 Cl    0.89796   0.66248   0.17025   0.00000  Uiso   1.00
Cl1085 Cl    0.70777   0.64699   0.76507   0.00000  Uiso   1.00
Cl1086 Cl    0.67084   0.92603   0.54483   0.00000  Uiso   1.00
Cl1087 Cl    0.85523   0.91603   0.32880   0.00000  Uiso   1.00
Cl1088 Cl    0.91603   0.85523   0.32880   0.00000  Uiso   1.00
Cl1089 Cl    0.64699   0.70777   0.76507   0.00000  Uiso   1.00
Cl1090 Cl    0.83749   0.60209   0.17026   0.00000  Uiso   1.00
Cl1091 Cl    0.66263   0.89780   0.82971   0.00000  Uiso   1.00
Cl1092 Cl    0.64698   0.70776   0.23486   0.00000  Uiso   1.00
Cl1093 Cl    0.85301   0.79223   0.76509   0.00000  Uiso   1.00
Cl1094 Cl    0.66248   0.89797   0.17025   0.00000  Uiso   1.00
Cl1095 Cl    0.83736   0.60220   0.82971   0.00000  Uiso   1.00
Cl1096 Cl    0.57354   0.82956   0.45510   0.00000  Uiso   1.00
Cl1097 Cl    0.92602   0.67085   0.54483   0.00000  Uiso   1.00
Cl1098 Cl    0.67082   0.92605   0.45518   0.00000  Uiso   1.00
Cl1099 Cl    0.82942   0.57373   0.54474   0.00000  Uiso   1.00
Cl1100 Cl    0.67627   0.92057   0.95526   0.00000  Uiso   1.00
H1101  H     0.52103   0.81781   0.36668   0.00000  Uiso   1.00
H1102  H     0.72898   0.93218   0.13332   0.00000  Uiso   1.00
H1103  H     0.93230   0.72858   0.86672   0.00000  Uiso   1.00
H1104  H     0.56769   0.77134   0.13323   0.00000  Uiso   1.00
H1105  H     0.72858   0.93230   0.86672   0.00000  Uiso   1.00
H1106  H     0.77135   0.56769   0.13323   0.00000  Uiso   1.00
H1107  H     0.56768   0.77137   0.86676   0.00000  Uiso   1.00
H1108  H     0.93218   0.72898   0.13332   0.00000  Uiso   1.00
H1109  H     0.97862   0.68232   0.63323   0.00000  Uiso   1.00
H1110  H     0.68231   0.97865   0.36677   0.00000  Uiso   1.00
H1111  H     0.81770   0.52142   0.63328   0.00000  Uiso   1.00
H1112  H     0.97865   0.68231   0.36677   0.00000  Uiso   1.00
H1113  H     0.52143   0.81770   0.63328   0.00000  Uiso   1.00
H1114  H     0.81782   0.52103   0.36668   0.00000  Uiso   1.00
H1115  H     0.68232   0.97862   0.63323   0.00000  Uiso   1.00
H1116  H     0.77137   0.56768   0.86676   0.00000  Uiso   1.00
O1117  O     0.75000   0.50000   0.25000   0.00000  Uiso   1.00
O1118  O     0.75000   0.96963   0.66245   0.00000  Uiso   1.00
O1119  O     0.96963   0.75000   0.33755   0.00000  Uiso   1.00
O1120  O     0.53036   0.75000   0.66245   0.00000  Uiso   1.00
O1121  O     0.50000   0.71963   0.83755   0.00000  Uiso   1.00
O1122  O     0.50000   0.78036   0.16245   0.00000  Uiso   1.00
O1123  O     0.78036   0.50000   0.83755   0.00000  Uiso   1.00
O1124  O     0.71963   0.50000   0.16245   0.00000  Uiso   1.00
O1125  O     0.50000   0.78036   0.83755   0.00000  Uiso   1.00
O1126  O     0.50000   0.71963   0.16245   0.00000  Uiso   1.00
O1127  O     0.71963   0.50000   0.83755   0.00000  Uiso   1.00
O1128  O     0.75000   0.50000   0.75000   0.00000  Uiso   1.00
O1129  O     0.78036   0.50000   0.16245   0.00000  Uiso   1.00
O1130  O     0.70724   0.57307   0.27302   0.00000  Uiso   1.00
O1131  O     0.79275   0.92692   0.72698   0.00000  Uiso   1.00
O1132  O     0.92692   0.70724   0.27302   0.00000  Uiso   1.00
O1133  O     0.57307   0.79275   0.72698   0.00000  Uiso   1.00
O1134  O     0.79275   0.92692   0.27302   0.00000  Uiso   1.00
O1135  O     0.70724   0.57307   0.72698   0.00000  Uiso   1.00
O1136  O     0.57307   0.79275   0.27302   0.00000  Uiso   1.00
O1137  O     0.92692   0.70724   0.72698   0.00000  Uiso   1.00
O1138  O     0.70724   0.92692   0.72698   0.00000  Uiso   1.00
O1139  O     0.50000   0.75000   0.25000   0.00000  Uiso   1.00
O1140  O     0.79275   0.57307   0.27302   0.00000  Uiso   1.00
O1141  O     0.92692   0.79275   0.72698   0.00000  Uiso   1.00
O1142  O     0.57307   0.70724   0.27302   0.00000  Uiso   1.00
O1143  O     0.79275   0.57307   0.72698   0.00000  Uiso   1.00
O1144  O     0.70724   0.92692   0.27302   0.00000  Uiso   1.00
O1145  O     0.57307   0.70724   0.72698   0.00000  Uiso   1.00
O1146  O     0.92692   0.79275   0.27302   0.00000  Uiso   1.00
O1147  O     0.95724   0.82307   0.77302   0.00000  Uiso   1.00
O1148  O     0.54275   0.67692   0.22698   0.00000  Uiso   1.00
O1149  O     0.67692   0.95724   0.77302   0.00000  Uiso   1.00
O1150  O     0.50000   0.75000   0.75000   0.00000  Uiso   1.00
O1151  O     0.82307   0.54275   0.22698   0.00000  Uiso   1.00
O1152  O     0.54275   0.67692   0.77302   0.00000  Uiso   1.00
O1153  O     0.95724   0.82307   0.22698   0.00000  Uiso   1.00
O1154  O     0.82307   0.54275   0.77302   0.00000  Uiso   1.00
O1155  O     0.67692   0.95724   0.22698   0.00000  Uiso   1.00
O1156  O     0.95724   0.67692   0.22698   0.00000  Uiso   1.00
O1157  O     0.54275   0.82307   0.77302   0.00000  Uiso   1.00
O1158  O     0.67692   0.54275   0.22698   0.00000  Uiso   1.00
O1159  O     0.82307   0.95724   0.77302   0.00000  Uiso   1.00
O1160  O     0.54275   0.82307   0.22698   0.00000  Uiso   1.00
O1161  O     0.75000   0.96963   0.33755   0.00000  Uiso   1.00
O1162  O     0.95724   0.67692   0.77302   0.00000  Uiso   1.00
O1163  O     0.82307   0.95724   0.22698   0.00000  Uiso   1.00
O1164  O     0.67692   0.54275   0.77302   0.00000  Uiso   1.00
O1165  O     0.50477   0.84536   0.41321   0.00000  Uiso   1.00
O1166  O     0.99472   0.65476   0.58666   0.00000  Uiso   1.00
O1167  O     0.65476   0.99476   0.41335   0.00000  Uiso   1.00
O1168  O     0.84533   0.50514   0.58682   0.00000  Uiso   1.00
O1169  O     0.99475   0.65476   0.41335   0.00000  Uiso   1.00
O1170  O     0.50514   0.84533   0.58682   0.00000  Uiso   1.00
O1171  O     0.84536   0.50476   0.41321   0.00000  Uiso   1.00
O1172  O     0.75000   0.53036   0.66245   0.00000  Uiso   1.00
O1173  O     0.65476   0.99472   0.58666   0.00000  Uiso   1.00
O1174  O     0.75527   0.59524   0.91334   0.00000  Uiso   1.00
O1175  O     0.74524   0.90464   0.08679   0.00000  Uiso   1.00
O1176  O     0.90467   0.74488   0.91318   0.00000  Uiso   1.00
O1177  O     0.59524   0.75523   0.08665   0.00000  Uiso   1.00
O1178  O     0.74487   0.90467   0.91318   0.00000  Uiso   1.00
O1179  O     0.75523   0.59524   0.08665   0.00000  Uiso   1.00
O1180  O     0.59524   0.75527   0.91334   0.00000  Uiso   1.00
O1181  O     0.90464   0.74525   0.08679   0.00000  Uiso   1.00
O1182  O     0.53036   0.75000   0.33755   0.00000  Uiso   1.00
O1183  O     0.96963   0.75000   0.66245   0.00000  Uiso   1.00
O1184  O     0.75000   0.53036   0.33755   0.00000  Uiso   1.00
Zn1185 Zn    0.70659   0.50000   0.21735   0.00000  Uiso   1.00
Zn1186 Zn    0.54340   0.75000   0.28265   0.00000  Uiso   1.00
Zn1187 Zn    0.75000   0.95659   0.71735   0.00000  Uiso   1.00
Zn1188 Zn    0.75000   0.54340   0.28265   0.00000  Uiso   1.00
Zn1189 Zn    0.54340   0.75000   0.71735   0.00000  Uiso   1.00
Zn1190 Zn    0.95659   0.75000   0.28265   0.00000  Uiso   1.00
Zn1191 Zn    0.75000   0.54340   0.71735   0.00000  Uiso   1.00
Zn1192 Zn    0.75000   0.95659   0.28265   0.00000  Uiso   1.00
Zn1193 Zn    0.79340   0.50000   0.78265   0.00000  Uiso   1.00
Zn1194 Zn    0.50000   0.70659   0.21735   0.00000  Uiso   1.00
Zn1195 Zn    0.50000   0.79340   0.78265   0.00000  Uiso   1.00
Zn1196 Zn    0.79340   0.50000   0.21735   0.00000  Uiso   1.00
Zn1197 Zn    0.70659   0.50000   0.78265   0.00000  Uiso   1.00
Zn1198 Zn    0.50000   0.79340   0.21735   0.00000  Uiso   1.00
Zn1199 Zn    0.50000   0.70659   0.78265   0.00000  Uiso   1.00
Zn1200 Zn    0.95659   0.75000   0.71735   0.00000  Uiso   1.00
loop_
_geom_bond_atom_site_label_1
_geom_bond_atom_site_label_2
_geom_bond_distance
_geom_bond_site_symmetry_2
_ccdc_geom_bond_type
C1     C43     1.491   .     S
C1     C4      1.413   .     A
C1     C362    1.407   1_455 S
C2     C53     1.491   .     S
C2     C14     1.413   .     A
C2     C68     1.407   .     A
C3     C131    1.413   .     A
C3     C74     1.416   .     A
C3     C38     1.417   .     A
C4     C75     1.416   .     A
C4     C334    1.417   1_455 S
C5     C36     1.417   .     A
C5     C77     1.416   .     A
C5     C65     1.413   .     A
C6     C78     1.416   .     A
C6     C76     1.413   .     A
C6     C37     1.417   .     A
C7     C79     1.416   .     A
C7     C87     1.413   .     A
C7     C638    1.417   1_545 S
C8     C35     1.413   .     A
C8     C39     1.417   .     A
C8     C80     1.416   .     A
C9     C46     1.413   .     A
C9     C81     1.416   .     A
C9     C640    1.417   1_545 S
C10    C82     1.416   .     A
C10    C57     1.413   .     A
C10    C341    1.417   1_455 S
C11    C61     1.413   .     A
C11    C42     1.417   .     A
C11    C83     1.416   .     A
C12    C84     1.416   .     A
C12    C142    1.413   .     A
C12    C639    1.417   1_545 S
C13    C54     1.490   .     S
C13    C69     1.407   .     A
C13    C15     1.413   .     A
C14    C85     1.416   .     A
C14    C40     1.417   .     A
C15    C41     1.417   .     A
C15    C86     1.416   .     A
C16    C88     1.416   .     A
C16    C24     1.413   .     A
C16    C342    1.417   1_455 S
C17    C104    1.454   .     S
C17    C132    1.408   .     A
C17    C134    1.408   .     A
C18    C133    1.408   .     A
C18    C130    1.408   .     A
C18    C105    1.454   .     S
C19    C129    1.407   .     A
C19    C136    1.407   .     A
C19    C97     1.452   .     S
C20    C99     1.452   .     S
C20    C128    1.407   .     A
C20    C135    1.407   .     A
C21    C138    1.408   .     A
C21    C127    1.408   .     A
C21    C100    1.454   .     S
C22    C137    1.408   .     A
C22    C101    1.454   .     S
C22    C126    1.408   .     A
C23    C140    1.407   .     A
C23    C102    1.452   .     S
C23    C125    1.407   .     A
C24    C55     1.491   .     S
C24    C370    1.407   1_455 S
C25    C139    1.407   .     A
C25    C103    1.452   .     S
C25    C124    1.407   .     A
C26    C143    1.407   .     A
C26    C113    1.452   .     S
C26    C123    1.407   .     A
C27    C141    1.407   .     A
C27    C122    1.407   .     A
C27    C114    1.452   .     S
C28    C145    1.408   .     A
C28    C106    1.454   .     S
C28    C121    1.408   .     A
C29    C119    1.408   .     A
C29    C144    1.408   .     A
C29    C107    1.454   .     S
C30    C118    1.407   .     A
C30    C147    1.407   .     A
C30    C108    1.452   .     S
C31    C110    1.452   .     S
C31    C117    1.407   .     A
C31    C146    1.407   .     A
C32    C116    1.408   .     A
C32    C111    1.454   .     S
C32    C149    1.408   .     A
C33    C115    1.408   .     A
C33    C148    1.408   .     A
C33    C112    1.454   .     S
C34    C36     1.409   .     A
C34    C150    1.417   .     A
C34    C304    1.417   .     S
C35    C67     1.407   .     A
C35    C56     1.490   .     S
C36    C451    1.417   .     S
C37    C38     1.409   .     A
C37    C752    1.417   .     S
C38    C607    1.417   .     S
C39    C612    1.417   .     S
C39    C40     1.409   1_556 S
C40    C609    1.417   .     S
C40    C39     1.409   1_554 S
C41    C310    1.417   .     S
C41    C42     1.409   1_556 S
C42    C316    1.417   .     S
C42    C41     1.409   1_554 S
C43    H201    1.084   .     S
C43    O265    1.221   .     D
C44    H209    1.084   .     S
C44    C65     1.491   .     S
C44    O266    1.221   .     D
C45    C76     1.491   .     S
C45    O267    1.221   .     D
C45    H210    1.084   .     S
C46    C58     1.491   .     S
C46    C668    1.407   1_545 S
C47    H211    1.084   .     S
C47    C87     1.490   .     S
C47    O268    1.221   .     D
C48    H212    1.084   .     S
C48    C98     1.491   .     S
C48    O269    1.221   .     D
C49    H213    1.084   .     S
C49    O270    1.221   .     D
C49    C109    1.490   .     S
C50    C120    1.491   .     S
C50    O271    1.221   .     D
C50    H214    1.084   .     S
C51    C131    1.491   .     S
C51    O273    1.221   .     D
C51    H215    1.084   .     S
C52    O274    1.221   .     D
C52    H216    1.084   .     S
C52    C142    1.491   .     S
C53    H202    1.084   .     S
C53    O275    1.221   .     D
C54    O276    1.221   .     D
C54    H203    1.084   .     S
C55    O277    1.221   .     D
C55    H204    1.084   .     S
C56    H205    1.084   .     S
C56    O278    1.221   .     D
C57    C59     1.491   .     S
C57    C369    1.407   1_455 S
C58    O279    1.221   .     D
C58    H206    1.084   .     S
C59    O280    1.221   .     D
C59    H207    1.084   .     S
C60    O281    1.221   .     D
C60    H208    1.084   .     S
C60    C61     1.491   .     S
C61    C70     1.407   .     A
C62    C91     1.457   .     S
C62    C98     1.407   .     A
C62    C301    1.407   .     S
C63    C65     1.407   .     A
C63    C392    1.457   .     S
C63    C409    1.407   .     S
C64    C89     1.457   .     S
C64    C76     1.407   .     A
C64    C720    1.407   .     S
C66    C131    1.407   .     A
C66    C687    1.407   .     S
C66    C690    1.457   .     S
C67    C95     1.457   .     S
C67    C742    1.407   .     S
C68    C96     1.457   .     S
C68    C646    1.407   .     S
C69    C93     1.457   .     S
C69    C357    1.407   .     S
C70    C94     1.457   .     S
C70    C324    1.407   .     S
C71    C150    1.416   .     A
C71    C77     1.403   .     A
C71    Cl153   1.776   .     S
C72    C151    1.416   .     A
C72    C75     1.403   .     A
C72    Cl164   1.776   .     S
C73    Cl175   1.776   .     S
C73    C79     1.403   .     A
C73    C152    1.416   .     A
C74    C78     1.403   .     A
C74    Cl186   1.776   .     S
C75    Cl196   1.776   .     S
C77    Cl197   1.776   .     S
C78    Cl198   1.776   .     S
C79    Cl199   1.776   .     S
C80    Cl200   1.776   .     S
C80    C85     1.403   1_556 S
C81    Cl154   1.776   .     S
C81    C84     1.403   1_554 S
C82    Cl155   1.776   .     S
C82    C88     1.403   1_556 S
C83    Cl156   1.776   .     S
C83    C86     1.403   1_554 S
C84    Cl157   1.776   .     S
C84    C81     1.403   1_556 S
C85    Cl158   1.776   .     S
C85    C80     1.403   1_554 S
C86    Cl159   1.776   .     S
C86    C83     1.403   1_556 S
C87    C666    1.407   1_545 S
C88    Cl160   1.776   .     S
C88    C82     1.403   1_554 S
C89    O261    1.276   .     A
C89    O884    1.276   .     S
C90    O272    1.276   .     A
C90    C666    1.457   1_545 S
C90    O818    1.276   1_545 S
C91    O219    1.276   .     A
C91    O582    1.276   .     S
C92    O220    1.276   .     A
C92    C363    1.457   1_455 S
C92    O583    1.276   1_455 S
C93    O525    1.276   .     A
C93    O521    1.276   .     S
C94    O522    1.276   .     S
C94    O526    1.276   .     S
C95    O823    1.276   .     S
C95    O827    1.276   .     S
C96    O824    1.276   .     S
C96    O829    1.276   .     S
C97    O258    1.279   .     A
C97    O230    1.279   .     A
C98    C150    1.413   .     A
C99    O231    1.279   .     A
C99    O259    1.279   .     A
C100   O256    1.278   .     A
C100   O232    1.279   .     A
C101   O257    1.279   .     A
C101   O233    1.279   .     A
C102   O263    1.278   .     A
C102   O234    1.278   .     A
C103   O235    1.278   .     A
C103   O264    1.278   .     A
C104   O236    1.278   .     A
C104   O260    1.279   .     A
C105   O237    1.279   .     A
C105   O262    1.279   .     A
C106   O238    1.279   .     A
C106   O249    1.279   .     A
C107   O240    1.278   .     A
C107   O251    1.279   .     A
C108   O241    1.279   .     A
C108   O247    1.279   .     A
C109   C151    1.413   .     A
C109   C363    1.407   1_455 S
C110   O248    1.279   .     A
C110   O242    1.279   .     A
C111   O243    1.279   .     A
C111   O254    1.279   .     A
C112   O255    1.278   .     A
C112   O244    1.279   .     A
C113   O252    1.278   .     A
C113   O245    1.278   .     A
C114   O253    1.278   .     A
C114   O246    1.278   .     A
C115   Cl161   1.771   .     S
C115   C132    1.396   .     A
C116   C130    1.396   .     A
C116   Cl162   1.771   .     S
C117   Cl163   1.771   .     S
C117   C129    1.397   .     A
C118   Cl165   1.771   .     S
C118   C128    1.397   .     A
C119   C127    1.396   .     A
C119   Cl166   1.771   .     S
C120   C152    1.413   .     A
C120   C664    1.407   1_545 S
C121   Cl167   1.771   .     S
C121   C126    1.396   .     A
C122   C125    1.397   .     A
C122   Cl168   1.771   .     S
C123   C124    1.397   .     A
C123   Cl169   1.771   .     S
C124   Cl170   1.771   .     S
C125   Cl171   1.771   .     S
C126   Cl172   1.771   .     S
C127   Cl173   1.771   .     S
C128   Cl174   1.771   .     S
C129   Cl176   1.771   .     S
C130   Cl177   1.771   .     S
C132   Cl178   1.771   .     S
C133   Cl179   1.771   .     S
C133   C149    1.396   .     A
C134   Cl180   1.771   .     S
C134   C148    1.396   .     A
C135   C147    1.397   .     A
C135   Cl181   1.771   .     S
C136   C146    1.397   .     A
C136   Cl182   1.771   .     S
C137   Cl183   1.771   .     S
C137   C145    1.396   .     A
C138   Cl184   1.771   .     S
C138   C144    1.396   .     A
C139   C143    1.397   .     A
C139   Cl185   1.771   .     S
C140   C141    1.397   .     A
C140   Cl187   1.771   .     S
C141   Cl188   1.771   .     S
C142   C667    1.407   1_545 S
C143   Cl189   1.771   .     S
C144   Cl190   1.771   .     S
C145   Cl191   1.771   .     S
C146   Cl192   1.771   .     S
C147   Cl193   1.771   .     S
C148   Cl194   1.771   .     S
C149   Cl195   1.771   .     S
C151   C336    1.417   1_455 S
C152   C637    1.417   1_545 S
O217   Zn285   1.945   .     S
O217   Zn296   1.945   .     S
O217   Zn288   1.945   .     S
O217   Zn892   1.945   1_545 S
O218   Zn287   1.946   .     S
O218   C690    1.276   .     S
O219   Zn290   1.946   .     S
O220   Zn289   1.946   .     S
O221   C393    1.276   1_455 S
O221   Zn299   1.946   .     S
O222   Zn298   1.946   .     S
O222   C394    1.276   1_455 S
O223   Zn293   1.946   .     S
O223   C695    1.276   1_545 S
O224   Zn285   1.946   .     S
O224   C696    1.276   1_545 S
O225   C393    1.276   1_455 A
O225   Zn295   1.946   .     S
O226   C394    1.276   1_455 S
O226   Zn294   1.946   .     S
O227   Zn297   1.946   .     S
O227   C695    1.276   1_545 S
O228   Zn291   1.945   .     S
O228   Zn293   1.945   .     S
O228   Zn297   1.945   .     S
O228   Zn887   1.945   1_545 S
O229   Zn296   1.946   .     S
O229   C696    1.276   1_545 S
O230   Zn288   1.932   .     S
O231   Zn287   1.932   .     S
O232   Zn290   1.936   .     S
O233   Zn289   1.936   .     S
O234   Zn292   1.932   .     S
O235   Zn291   1.932   .     S
O236   Zn286   1.935   .     S
O237   Zn300   1.935   .     S
O238   Zn287   1.935   .     S
O239   Zn298   1.945   .     S
O239   Zn286   1.945   .     S
O239   Zn590   1.945   1_455 S
O239   Zn294   1.945   .     S
O240   Zn288   1.935   .     S
O241   Zn300   1.932   .     S
O242   Zn286   1.932   .     S
O243   Zn291   1.936   .     S
O244   Zn292   1.936   .     S
O245   Zn289   1.932   .     S
O246   Zn290   1.932   .     S
O247   Zn595   1.932   .     S
O248   Zn294   1.932   .     S
O249   Zn897   1.936   .     S
O250   Zn289   1.945   .     S
O250   Zn295   1.945   .     S
O250   Zn299   1.945   .     S
O250   Zn600   1.945   1_455 S
O251   Zn296   1.936   .     S
O252   Zn299   1.932   .     S
O253   Zn598   1.932   .     S
O254   Zn293   1.935   .     S
O255   Zn885   1.935   .     S
O256   Zn594   1.935   .     S
O257   Zn295   1.935   .     S
O258   Zn285   1.932   .     S
O259   Zn893   1.932   .     S
O260   Zn298   1.936   .     S
O261   Zn292   1.946   .     S
O262   Zn599   1.936   .     S
O263   Zn896   1.932   .     S
O264   Zn297   1.932   .     S
O272   Zn291   1.946   .     S
O282   Zn286   1.946   .     S
O282   C391    1.276   1_455 S
O283   Zn300   1.946   .     S
O283   C392    1.276   .     S
O284   Zn288   1.946   .     S
O284   C689    1.276   1_545 S
Zn285  O855    1.935   1_545 S
Zn287  O828    1.945   .     S
Zn290  O539    1.945   .     S
Zn292  O817    1.945   .     S
Zn293  O859    1.932   1_545 S
Zn294  O556    1.935   1_455 S
Zn295  O547    1.932   1_455 S
Zn296  O863    1.932   1_545 S
Zn297  O849    1.936   1_545 S
Zn298  O553    1.932   1_455 S
Zn299  O562    1.936   1_455 S
Zn300  O550    1.945   .     S
C301   C343    1.491   .     S
C301   C304    1.413   .     A
C302   C353    1.491   .     S
C302   C314    1.413   .     A
C302   C368    1.407   .     A
C303   C431    1.413   .     A
C303   C374    1.416   .     A
C303   C338    1.417   .     A
C304   C375    1.416   .     A
C305   C336    1.417   .     A
C305   C377    1.416   .     A
C305   C365    1.413   .     A
C306   C378    1.416   .     A
C306   C376    1.413   .     A
C306   C337    1.417   .     A
C307   C379    1.416   .     A
C307   C387    1.413   .     A
C307   C938    1.417   1_545 S
C308   C335    1.413   .     A
C308   C339    1.417   .     A
C308   C380    1.416   .     A
C309   C346    1.413   .     A
C309   C381    1.416   .     A
C309   C940    1.417   1_545 S
C310   C382    1.416   .     A
C310   C357    1.413   .     A
C311   C361    1.413   .     A
C311   C342    1.417   .     A
C311   C383    1.416   .     A
C312   C384    1.416   .     A
C312   C442    1.413   .     A
C312   C939    1.417   1_545 S
C313   C354    1.490   .     S
C313   C369    1.407   .     A
C313   C315    1.413   .     A
C314   C385    1.416   .     A
C314   C340    1.417   .     A
C315   C341    1.417   .     A
C315   C386    1.416   .     A
C316   C388    1.416   .     A
C316   C324    1.413   .     A
C317   C404    1.454   .     S
C317   C432    1.408   .     A
C317   C434    1.408   .     A
C318   C433    1.408   .     A
C318   C430    1.408   .     A
C318   C405    1.454   .     S
C319   C429    1.407   .     A
C319   C436    1.407   .     A
C319   C397    1.452   .     S
C320   C399    1.452   .     S
C320   C428    1.407   .     A
C320   C435    1.407   .     A
C321   C438    1.408   .     A
C321   C427    1.408   .     A
C321   C400    1.454   .     S
C322   C437    1.408   .     A
C322   C401    1.454   .     S
C322   C426    1.408   .     A
C323   C440    1.407   .     A
C323   C402    1.452   .     S
C323   C425    1.407   .     A
C324   C355    1.491   .     S
C325   C439    1.407   .     A
C325   C403    1.452   .     S
C325   C424    1.407   .     A
C326   C443    1.407   .     A
C326   C413    1.452   .     S
C326   C423    1.407   .     A
C327   C441    1.407   .     A
C327   C422    1.407   .     A
C327   C414    1.452   .     S
C328   C445    1.408   .     A
C328   C406    1.454   .     S
C328   C421    1.408   .     A
C329   C419    1.408   .     A
C329   C444    1.408   .     A
C329   C407    1.454   .     S
C330   C418    1.407   .     A
C330   C447    1.407   .     A
C330   C408    1.452   .     S
C331   C410    1.452   .     S
C331   C417    1.407   .     A
C331   C446    1.407   .     A
C332   C416    1.408   .     A
C332   C411    1.454   .     S
C332   C449    1.408   .     A
C333   C415    1.408   .     A
C333   C448    1.408   .     A
C333   C412    1.454   .     S
C334   C336    1.409   .     A
C334   C450    1.417   .     A
C334   C4      1.417   1_655 S
C335   C367    1.407   .     A
C335   C356    1.490   .     S
C336   C151    1.417   1_655 S
C337   C338    1.409   .     A
C337   C1052   1.417   .     S
C338   C907    1.417   .     S
C339   C912    1.417   .     S
C339   C340    1.409   1_556 S
C340   C909    1.417   .     S
C340   C339    1.409   1_554 S
C341   C10     1.417   1_655 S
C341   C342    1.409   1_556 S
C342   C16     1.417   1_655 S
C342   C341    1.409   1_554 S
C343   H501    1.084   .     S
C343   O565    1.221   .     D
C344   H509    1.084   .     S
C344   C365    1.491   .     S
C344   O566    1.221   .     D
C345   C376    1.491   .     S
C345   O567    1.221   .     D
C345   H510    1.084   .     S
C346   C358    1.491   .     S
C346   C968    1.407   1_545 S
C347   H511    1.084   .     S
C347   C387    1.490   .     S
C347   O568    1.221   .     D
C348   H512    1.084   .     S
C348   C398    1.491   .     S
C348   O569    1.221   .     D
C349   H513    1.084   .     S
C349   O570    1.221   .     D
C349   C409    1.490   .     S
C350   C420    1.491   .     S
C350   O571    1.221   .     D
C350   H514    1.084   .     S
C351   C431    1.491   .     S
C351   O573    1.221   .     D
C351   H515    1.084   .     S
C352   O574    1.221   .     D
C352   H516    1.084   .     S
C352   C442    1.491   .     S
C353   H502    1.084   .     S
C353   O575    1.221   .     D
C354   O576    1.221   .     D
C354   H503    1.084   .     S
C355   O577    1.221   .     D
C355   H504    1.084   .     S
C356   H505    1.084   .     S
C356   O578    1.221   .     D
C357   C359    1.491   .     S
C358   O579    1.221   .     D
C358   H506    1.084   .     S
C359   O580    1.221   .     D
C359   H507    1.084   .     S
C360   O581    1.221   .     D
C360   H508    1.084   .     S
C360   C361    1.491   .     S
C361   C370    1.407   .     A
C362   C391    1.457   .     S
C362   C398    1.407   .     A
C362   C1      1.407   1_655 S
C363   C365    1.407   .     A
C363   C92     1.457   1_655 S
C363   C109    1.407   1_655 S
C364   C389    1.457   .     S
C364   C376    1.407   .     A
C364   C1020   1.407   .     S
C366   C431    1.407   .     A
C366   C987    1.407   .     S
C366   C990    1.457   .     S
C367   C395    1.457   .     S
C367   C1042   1.407   .     S
C368   C396    1.457   .     S
C368   C946    1.407   .     S
C369   C393    1.457   .     S
C369   C57     1.407   1_655 S
C370   C394    1.457   .     S
C370   C24     1.407   1_655 S
C371   C450    1.416   .     A
C371   C377    1.403   .     A
C371   Cl453   1.776   .     S
C372   C451    1.416   .     A
C372   C375    1.403   .     A
C372   Cl464   1.776   .     S
C373   Cl475   1.776   .     S
C373   C379    1.403   .     A
C373   C452    1.416   .     A
C374   C378    1.403   .     A
C374   Cl486   1.776   .     S
C375   Cl496   1.776   .     S
C377   Cl497   1.776   .     S
C378   Cl498   1.776   .     S
C379   Cl499   1.776   .     S
C380   Cl500   1.776   .     S
C380   C385    1.403   1_556 S
C381   Cl454   1.776   .     S
C381   C384    1.403   1_554 S
C382   Cl455   1.776   .     S
C382   C388    1.403   1_556 S
C383   Cl456   1.776   .     S
C383   C386    1.403   1_554 S
C384   Cl457   1.776   .     S
C384   C381    1.403   1_556 S
C385   Cl458   1.776   .     S
C385   C380    1.403   1_554 S
C386   Cl459   1.776   .     S
C386   C383    1.403   1_556 S
C387   C966    1.407   1_545 S
C388   Cl460   1.776   .     S
C388   C382    1.403   1_554 S
C389   O561    1.276   .     A
C389   O1184   1.276   .     S
C390   O572    1.276   .     A
C390   C966    1.457   1_545 S
C390   O1118   1.276   1_545 S
C391   O519    1.276   .     A
C391   O282    1.276   1_655 S
C392   O520    1.276   .     A
C393   O225    1.276   1_655 A
C393   O221    1.276   1_655 S
C394   O222    1.276   1_655 S
C394   O226    1.276   1_655 S
C395   O1123   1.276   .     S
C395   O1127   1.276   .     S
C396   O1124   1.276   .     S
C396   O1129   1.276   .     S
C397   O558    1.279   .     A
C397   O530    1.279   .     A
C398   C450    1.413   .     A
C399   O531    1.279   .     A
C399   O559    1.279   .     A
C400   O556    1.278   .     A
C400   O532    1.279   .     A
C401   O557    1.279   .     A
C401   O533    1.279   .     A
C402   O563    1.278   .     A
C402   O534    1.278   .     A
C403   O535    1.278   .     A
C403   O564    1.278   .     A
C404   O536    1.278   .     A
C404   O560    1.279   .     A
C405   O537    1.279   .     A
C405   O562    1.279   .     A
C406   O538    1.279   .     A
C406   O549    1.279   .     A
C407   O540    1.278   .     A
C407   O551    1.279   .     A
C408   O541    1.279   .     A
C408   O547    1.279   .     A
C409   C451    1.413   .     A
C410   O548    1.279   .     A
C410   O542    1.279   .     A
C411   O543    1.279   .     A
C411   O554    1.279   .     A
C412   O555    1.278   .     A
C412   O544    1.279   .     A
C413   O552    1.278   .     A
C413   O545    1.278   .     A
C414   O553    1.278   .     A
C414   O546    1.278   .     A
C415   Cl461   1.771   .     S
C415   C432    1.396   .     A
C416   C430    1.396   .     A
C416   Cl462   1.771   .     S
C417   Cl463   1.771   .     S
C417   C429    1.397   .     A
C418   Cl465   1.771   .     S
C418   C428    1.397   .     A
C419   C427    1.396   .     A
C419   Cl466   1.771   .     S
C420   C452    1.413   .     A
C420   C964    1.407   1_545 S
C421   Cl467   1.771   .     S
C421   C426    1.396   .     A
C422   C425    1.397   .     A
C422   Cl468   1.771   .     S
C423   C424    1.397   .     A
C423   Cl469   1.771   .     S
C424   Cl470   1.771   .     S
C425   Cl471   1.771   .     S
C426   Cl472   1.771   .     S
C427   Cl473   1.771   .     S
C428   Cl474   1.771   .     S
C429   Cl476   1.771   .     S
C430   Cl477   1.771   .     S
C432   Cl478   1.771   .     S
C433   Cl479   1.771   .     S
C433   C449    1.396   .     A
C434   Cl480   1.771   .     S
C434   C448    1.396   .     A
C435   C447    1.397   .     A
C435   Cl481   1.771   .     S
C436   C446    1.397   .     A
C436   Cl482   1.771   .     S
C437   Cl483   1.771   .     S
C437   C445    1.396   .     A
C438   Cl484   1.771   .     S
C438   C444    1.396   .     A
C439   C443    1.397   .     A
C439   Cl485   1.771   .     S
C440   C441    1.397   .     A
C440   Cl487   1.771   .     S
C441   Cl488   1.771   .     S
C442   C967    1.407   1_545 S
C443   Cl489   1.771   .     S
C444   Cl490   1.771   .     S
C445   Cl491   1.771   .     S
C446   Cl492   1.771   .     S
C447   Cl493   1.771   .     S
C448   Cl494   1.771   .     S
C449   Cl495   1.771   .     S
C452   C937    1.417   1_545 S
O517   Zn585   1.945   .     S
O517   Zn596   1.945   .     S
O517   Zn588   1.945   .     S
O517   Zn1192  1.945   1_545 S
O518   Zn587   1.946   .     S
O518   C990    1.276   .     S
O519   Zn590   1.946   .     S
O520   Zn589   1.946   .     S
O521   Zn599   1.946   .     S
O522   Zn598   1.946   .     S
O523   Zn593   1.946   .     S
O523   C995    1.276   1_545 S
O524   Zn585   1.946   .     S
O524   C996    1.276   1_545 S
O525   Zn595   1.946   .     S
O526   Zn594   1.946   .     S
O527   Zn597   1.946   .     S
O527   C995    1.276   1_545 S
O528   Zn591   1.945   .     S
O528   Zn593   1.945   .     S
O528   Zn597   1.945   .     S
O528   Zn1187  1.945   1_545 S
O529   Zn596   1.946   .     S
O529   C996    1.276   1_545 S
O530   Zn588   1.932   .     S
O531   Zn587   1.932   .     S
O532   Zn590   1.936   .     S
O533   Zn589   1.936   .     S
O534   Zn592   1.932   .     S
O535   Zn591   1.932   .     S
O536   Zn586   1.935   .     S
O537   Zn600   1.935   .     S
O538   Zn587   1.935   .     S
O539   Zn598   1.945   .     S
O539   Zn586   1.945   .     S
O539   Zn594   1.945   .     S
O540   Zn588   1.935   .     S
O541   Zn600   1.932   .     S
O542   Zn586   1.932   .     S
O543   Zn591   1.936   .     S
O544   Zn592   1.936   .     S
O545   Zn589   1.932   .     S
O546   Zn590   1.932   .     S
O547   Zn295   1.932   1_655 S
O548   Zn594   1.932   .     S
O549   Zn1197  1.936   .     S
O550   Zn589   1.945   .     S
O550   Zn595   1.945   .     S
O550   Zn599   1.945   .     S
O551   Zn596   1.936   .     S
O552   Zn599   1.932   .     S
O553   Zn298   1.932   1_655 S
O554   Zn593   1.935   .     S
O555   Zn1185  1.935   .     S
O556   Zn294   1.935   1_655 S
O557   Zn595   1.935   .     S
O558   Zn585   1.932   .     S
O559   Zn1193  1.932   .     S
O560   Zn598   1.936   .     S
O561   Zn592   1.946   .     S
O562   Zn299   1.936   1_655 S
O563   Zn1196  1.932   .     S
O564   Zn597   1.932   .     S
O572   Zn591   1.946   .     S
O582   Zn586   1.946   .     S
O583   Zn600   1.946   .     S
O583   C92     1.276   1_655 S
O584   Zn588   1.946   .     S
O584   C989    1.276   1_545 S
Zn585  O1155   1.935   1_545 S
Zn587  O1128   1.945   .     S
Zn590  O239    1.945   1_655 S
Zn592  O1117   1.945   .     S
Zn593  O1159   1.932   1_545 S
Zn596  O1163   1.932   1_545 S
Zn597  O1149   1.936   1_545 S
Zn600  O250    1.945   1_655 S
C601   C643    1.491   .     S
C601   C604    1.413   .     A
C601   C962    1.407   1_455 S
C602   C653    1.491   .     S
C602   C614    1.413   .     A
C602   C668    1.407   .     A
C603   C731    1.413   .     A
C603   C674    1.416   .     A
C603   C638    1.417   .     A
C604   C675    1.416   .     A
C604   C934    1.417   1_455 S
C605   C636    1.417   .     A
C605   C677    1.416   .     A
C605   C665    1.413   .     A
C606   C678    1.416   .     A
C606   C676    1.413   .     A
C606   C637    1.417   .     A
C607   C679    1.416   .     A
C607   C687    1.413   .     A
C608   C635    1.413   .     A
C608   C639    1.417   .     A
C608   C680    1.416   .     A
C609   C646    1.413   .     A
C609   C681    1.416   .     A
C610   C682    1.416   .     A
C610   C657    1.413   .     A
C610   C941    1.417   1_455 S
C611   C661    1.413   .     A
C611   C642    1.417   .     A
C611   C683    1.416   .     A
C612   C684    1.416   .     A
C612   C742    1.413   .     A
C613   C654    1.490   .     S
C613   C669    1.407   .     A
C613   C615    1.413   .     A
C614   C685    1.416   .     A
C614   C640    1.417   .     A
C615   C641    1.417   .     A
C615   C686    1.416   .     A
C616   C688    1.416   .     A
C616   C624    1.413   .     A
C616   C942    1.417   1_455 S
C617   C704    1.454   .     S
C617   C732    1.408   .     A
C617   C734    1.408   .     A
C618   C733    1.408   .     A
C618   C730    1.408   .     A
C618   C705    1.454   .     S
C619   C729    1.407   .     A
C619   C736    1.407   .     A
C619   C697    1.452   .     S
C620   C699    1.452   .     S
C620   C728    1.407   .     A
C620   C735    1.407   .     A
C621   C738    1.408   .     A
C621   C727    1.408   .     A
C621   C700    1.454   .     S
C622   C737    1.408   .     A
C622   C701    1.454   .     S
C622   C726    1.408   .     A
C623   C740    1.407   .     A
C623   C702    1.452   .     S
C623   C725    1.407   .     A
C624   C655    1.491   .     S
C624   C970    1.407   1_455 S
C625   C739    1.407   .     A
C625   C703    1.452   .     S
C625   C724    1.407   .     A
C626   C743    1.407   .     A
C626   C713    1.452   .     S
C626   C723    1.407   .     A
C627   C741    1.407   .     A
C627   C722    1.407   .     A
C627   C714    1.452   .     S
C628   C745    1.408   .     A
C628   C706    1.454   .     S
C628   C721    1.408   .     A
C629   C719    1.408   .     A
C629   C744    1.408   .     A
C629   C707    1.454   .     S
C630   C718    1.407   .     A
C630   C747    1.407   .     A
C630   C708    1.452   .     S
C631   C710    1.452   .     S
C631   C717    1.407   .     A
C631   C746    1.407   .     A
C632   C716    1.408   .     A
C632   C711    1.454   .     S
C632   C749    1.408   .     A
C633   C715    1.408   .     A
C633   C748    1.408   .     A
C633   C712    1.454   .     S
C634   C636    1.409   .     A
C634   C750    1.417   .     A
C634   C904    1.417   .     S
C635   C667    1.407   .     A
C635   C656    1.490   .     S
C636   C1051   1.417   .     S
C637   C638    1.409   .     A
C637   C152    1.417   1_565 S
C638   C7      1.417   1_565 S
C639   C12     1.417   1_565 S
C639   C640    1.409   1_556 S
C640   C9      1.417   1_565 S
C640   C639    1.409   1_554 S
C641   C910    1.417   .     S
C641   C642    1.409   1_556 S
C642   C916    1.417   .     S
C642   C641    1.409   1_554 S
C643   H801    1.084   .     S
C643   O865    1.221   .     D
C644   H809    1.084   .     S
C644   C665    1.491   .     S
C644   O866    1.221   .     D
C645   C676    1.491   .     S
C645   O867    1.221   .     D
C645   H810    1.084   .     S
C646   C658    1.491   .     S
C647   H811    1.084   .     S
C647   C687    1.490   .     S
C647   O868    1.221   .     D
C648   H812    1.084   .     S
C648   C698    1.491   .     S
C648   O869    1.221   .     D
C649   H813    1.084   .     S
C649   O870    1.221   .     D
C649   C709    1.490   .     S
C650   C720    1.491   .     S
C650   O871    1.221   .     D
C650   H814    1.084   .     S
C651   C731    1.491   .     S
C651   O873    1.221   .     D
C651   H815    1.084   .     S
C652   O874    1.221   .     D
C652   H816    1.084   .     S
C652   C742    1.491   .     S
C653   H802    1.084   .     S
C653   O875    1.221   .     D
C654   O876    1.221   .     D
C654   H803    1.084   .     S
C655   O877    1.221   .     D
C655   H804    1.084   .     S
C656   H805    1.084   .     S
C656   O878    1.221   .     D
C657   C659    1.491   .     S
C657   C969    1.407   1_455 S
C658   O879    1.221   .     D
C658   H806    1.084   .     S
C659   O880    1.221   .     D
C659   H807    1.084   .     S
C660   O881    1.221   .     D
C660   H808    1.084   .     S
C660   C661    1.491   .     S
C661   C670    1.407   .     A
C662   C691    1.457   .     S
C662   C698    1.407   .     A
C662   C901    1.407   .     S
C663   C665    1.407   .     A
C663   C992    1.457   .     S
C663   C1009   1.407   .     S
C664   C689    1.457   .     S
C664   C676    1.407   .     A
C664   C120    1.407   1_565 S
C666   C731    1.407   .     A
C666   C87     1.407   1_565 S
C666   C90     1.457   1_565 S
C667   C695    1.457   .     S
C667   C142    1.407   1_565 S
C668   C696    1.457   .     S
C668   C46     1.407   1_565 S
C669   C693    1.457   .     S
C669   C957    1.407   .     S
C670   C694    1.457   .     S
C670   C924    1.407   .     S
C671   C750    1.416   .     A
C671   C677    1.403   .     A
C671   Cl753   1.776   .     S
C672   C751    1.416   .     A
C672   C675    1.403   .     A
C672   Cl764   1.776   .     S
C673   Cl775   1.776   .     S
C673   C679    1.403   .     A
C673   C752    1.416   .     A
C674   C678    1.403   .     A
C674   Cl786   1.776   .     S
C675   Cl796   1.776   .     S
C677   Cl797   1.776   .     S
C678   Cl798   1.776   .     S
C679   Cl799   1.776   .     S
C680   Cl800   1.776   .     S
C680   C685    1.403   1_556 S
C681   Cl754   1.776   .     S
C681   C684    1.403   1_554 S
C682   Cl755   1.776   .     S
C682   C688    1.403   1_556 S
C683   Cl756   1.776   .     S
C683   C686    1.403   1_554 S
C684   Cl757   1.776   .     S
C684   C681    1.403   1_556 S
C685   Cl758   1.776   .     S
C685   C680    1.403   1_554 S
C686   Cl759   1.776   .     S
C686   C683    1.403   1_556 S
C688   Cl760   1.776   .     S
C688   C682    1.403   1_554 S
C689   O861    1.276   .     A
C689   O284    1.276   1_565 S
C690   O872    1.276   .     A
C691   O819    1.276   .     A
C691   O1182   1.276   .     S
C692   O820    1.276   .     A
C692   C963    1.457   1_455 S
C692   O1183   1.276   1_455 S
C693   O1125   1.276   .     A
C693   O1121   1.276   .     S
C694   O1122   1.276   .     S
C694   O1126   1.276   .     S
C695   O223    1.276   1_565 S
C695   O227    1.276   1_565 S
C696   O224    1.276   1_565 S
C696   O229    1.276   1_565 S
C697   O858    1.279   .     A
C697   O830    1.279   .     A
C698   C750    1.413   .     A
C699   O831    1.279   .     A
C699   O859    1.279   .     A
C700   O856    1.278   .     A
C700   O832    1.279   .     A
C701   O857    1.279   .     A
C701   O833    1.279   .     A
C702   O863    1.278   .     A
C702   O834    1.278   .     A
C703   O835    1.278   .     A
C703   O864    1.278   .     A
C704   O836    1.278   .     A
C704   O860    1.279   .     A
C705   O837    1.279   .     A
C705   O862    1.279   .     A
C706   O838    1.279   .     A
C706   O849    1.279   .     A
C707   O840    1.278   .     A
C707   O851    1.279   .     A
C708   O841    1.279   .     A
C708   O847    1.279   .     A
C709   C751    1.413   .     A
C709   C963    1.407   1_455 S
C710   O848    1.279   .     A
C710   O842    1.279   .     A
C711   O843    1.279   .     A
C711   O854    1.279   .     A
C712   O855    1.278   .     A
C712   O844    1.279   .     A
C713   O852    1.278   .     A
C713   O845    1.278   .     A
C714   O853    1.278   .     A
C714   O846    1.278   .     A
C715   Cl761   1.771   .     S
C715   C732    1.396   .     A
C716   C730    1.396   .     A
C716   Cl762   1.771   .     S
C717   Cl763   1.771   .     S
C717   C729    1.397   .     A
C718   Cl765   1.771   .     S
C718   C728    1.397   .     A
C719   C727    1.396   .     A
C719   Cl766   1.771   .     S
C720   C752    1.413   .     A
C721   Cl767   1.771   .     S
C721   C726    1.396   .     A
C722   C725    1.397   .     A
C722   Cl768   1.771   .     S
C723   C724    1.397   .     A
C723   Cl769   1.771   .     S
C724   Cl770   1.771   .     S
C725   Cl771   1.771   .     S
C726   Cl772   1.771   .     S
C727   Cl773   1.771   .     S
C728   Cl774   1.771   .     S
C729   Cl776   1.771   .     S
C730   Cl777   1.771   .     S
C732   Cl778   1.771   .     S
C733   Cl779   1.771   .     S
C733   C749    1.396   .     A
C734   Cl780   1.771   .     S
C734   C748    1.396   .     A
C735   C747    1.397   .     A
C735   Cl781   1.771   .     S
C736   C746    1.397   .     A
C736   Cl782   1.771   .     S
C737   Cl783   1.771   .     S
C737   C745    1.396   .     A
C738   Cl784   1.771   .     S
C738   C744    1.396   .     A
C739   C743    1.397   .     A
C739   Cl785   1.771   .     S
C740   C741    1.397   .     A
C740   Cl787   1.771   .     S
C741   Cl788   1.771   .     S
C743   Cl789   1.771   .     S
C744   Cl790   1.771   .     S
C745   Cl791   1.771   .     S
C746   Cl792   1.771   .     S
C747   Cl793   1.771   .     S
C748   Cl794   1.771   .     S
C749   Cl795   1.771   .     S
C751   C936    1.417   1_455 S
O817   Zn885   1.945   .     S
O817   Zn896   1.945   .     S
O817   Zn888   1.945   .     S
O818   Zn887   1.946   .     S
O818   C90     1.276   1_565 S
O819   Zn890   1.946   .     S
O820   Zn889   1.946   .     S
O821   C993    1.276   1_455 S
O821   Zn899   1.946   .     S
O822   Zn898   1.946   .     S
O822   C994    1.276   1_455 S
O823   Zn893   1.946   .     S
O824   Zn885   1.946   .     S
O825   C993    1.276   1_455 A
O825   Zn895   1.946   .     S
O826   C994    1.276   1_455 S
O826   Zn894   1.946   .     S
O827   Zn897   1.946   .     S
O828   Zn891   1.945   .     S
O828   Zn893   1.945   .     S
O828   Zn897   1.945   .     S
O829   Zn896   1.946   .     S
O830   Zn888   1.932   .     S
O831   Zn887   1.932   .     S
O832   Zn890   1.936   .     S
O833   Zn889   1.936   .     S
O834   Zn892   1.932   .     S
O835   Zn891   1.932   .     S
O836   Zn886   1.935   .     S
O837   Zn900   1.935   .     S
O838   Zn887   1.935   .     S
O839   Zn898   1.945   .     S
O839   Zn886   1.945   .     S
O839   Zn1190  1.945   1_455 S
O839   Zn894   1.945   .     S
O840   Zn888   1.935   .     S
O841   Zn900   1.932   .     S
O842   Zn886   1.932   .     S
O843   Zn891   1.936   .     S
O844   Zn892   1.936   .     S
O845   Zn889   1.932   .     S
O846   Zn890   1.932   .     S
O847   Zn1195  1.932   .     S
O848   Zn894   1.932   .     S
O849   Zn297   1.936   1_565 S
O850   Zn889   1.945   .     S
O850   Zn895   1.945   .     S
O850   Zn899   1.945   .     S
O850   Zn1200  1.945   1_455 S
O851   Zn896   1.936   .     S
O852   Zn899   1.932   .     S
O853   Zn1198  1.932   .     S
O854   Zn893   1.935   .     S
O855   Zn285   1.935   1_565 S
O856   Zn1194  1.935   .     S
O857   Zn895   1.935   .     S
O858   Zn885   1.932   .     S
O859   Zn293   1.932   1_565 S
O860   Zn898   1.936   .     S
O861   Zn892   1.946   .     S
O862   Zn1199  1.936   .     S
O863   Zn296   1.932   1_565 S
O864   Zn897   1.932   .     S
O872   Zn891   1.946   .     S
O882   Zn886   1.946   .     S
O882   C991    1.276   1_455 S
O883   Zn900   1.946   .     S
O883   C992    1.276   .     S
O884   Zn888   1.946   .     S
Zn887  O228    1.945   1_565 S
Zn890  O1139   1.945   .     S
Zn892  O217    1.945   1_565 S
Zn894  O1156   1.935   1_455 S
Zn895  O1147   1.932   1_455 S
Zn898  O1153   1.932   1_455 S
Zn899  O1162   1.936   1_455 S
Zn900  O1150   1.945   .     S
C901   C943    1.491   .     S
C901   C904    1.413   .     A
C902   C953    1.491   .     S
C902   C914    1.413   .     A
C902   C968    1.407   .     A
C903   C1031   1.413   .     A
C903   C974    1.416   .     A
C903   C938    1.417   .     A
C904   C975    1.416   .     A
C905   C936    1.417   .     A
C905   C977    1.416   .     A
C905   C965    1.413   .     A
C906   C978    1.416   .     A
C906   C976    1.413   .     A
C906   C937    1.417   .     A
C907   C979    1.416   .     A
C907   C987    1.413   .     A
C908   C935    1.413   .     A
C908   C939    1.417   .     A
C908   C980    1.416   .     A
C909   C946    1.413   .     A
C909   C981    1.416   .     A
C910   C982    1.416   .     A
C910   C957    1.413   .     A
C911   C961    1.413   .     A
C911   C942    1.417   .     A
C911   C983    1.416   .     A
C912   C984    1.416   .     A
C912   C1042   1.413   .     A
C913   C954    1.490   .     S
C913   C969    1.407   .     A
C913   C915    1.413   .     A
C914   C985    1.416   .     A
C914   C940    1.417   .     A
C915   C941    1.417   .     A
C915   C986    1.416   .     A
C916   C988    1.416   .     A
C916   C924    1.413   .     A
C917   C1004   1.454   .     S
C917   C1032   1.408   .     A
C917   C1034   1.408   .     A
C918   C1033   1.408   .     A
C918   C1030   1.408   .     A
C918   C1005   1.454   .     S
C919   C1029   1.407   .     A
C919   C1036   1.407   .     A
C919   C997    1.452   .     S
C920   C999    1.452   .     S
C920   C1028   1.407   .     A
C920   C1035   1.407   .     A
C921   C1038   1.408   .     A
C921   C1027   1.408   .     A
C921   C1000   1.454   .     S
C922   C1037   1.408   .     A
C922   C1001   1.454   .     S
C922   C1026   1.408   .     A
C923   C1040   1.407   .     A
C923   C1002   1.452   .     S
C923   C1025   1.407   .     A
C924   C955    1.491   .     S
C925   C1039   1.407   .     A
C925   C1003   1.452   .     S
C925   C1024   1.407   .     A
C926   C1043   1.407   .     A
C926   C1013   1.452   .     S
C926   C1023   1.407   .     A
C927   C1041   1.407   .     A
C927   C1022   1.407   .     A
C927   C1014   1.452   .     S
C928   C1045   1.408   .     A
C928   C1006   1.454   .     S
C928   C1021   1.408   .     A
C929   C1019   1.408   .     A
C929   C1044   1.408   .     A
C929   C1007   1.454   .     S
C930   C1018   1.407   .     A
C930   C1047   1.407   .     A
C930   C1008   1.452   .     S
C931   C1010   1.452   .     S
C931   C1017   1.407   .     A
C931   C1046   1.407   .     A
C932   C1016   1.408   .     A
C932   C1011   1.454   .     S
C932   C1049   1.408   .     A
C933   C1015   1.408   .     A
C933   C1048   1.408   .     A
C933   C1012   1.454   .     S
C934   C936    1.409   .     A
C934   C1050   1.417   .     A
C934   C604    1.417   1_655 S
C935   C967    1.407   .     A
C935   C956    1.490   .     S
C936   C751    1.417   1_655 S
C937   C938    1.409   .     A
C937   C452    1.417   1_565 S
C938   C307    1.417   1_565 S
C939   C312    1.417   1_565 S
C939   C940    1.409   1_556 S
C940   C309    1.417   1_565 S
C940   C939    1.409   1_554 S
C941   C610    1.417   1_655 S
C941   C942    1.409   1_556 S
C942   C616    1.417   1_655 S
C942   C941    1.409   1_554 S
C943   H1101   1.084   .     S
C943   O1165   1.221   .     D
C944   H1109   1.084   .     S
C944   C965    1.491   .     S
C944   O1166   1.221   .     D
C945   C976    1.491   .     S
C945   O1167   1.221   .     D
C945   H1110   1.084   .     S
C946   C958    1.491   .     S
C947   H1111   1.084   .     S
C947   C987    1.490   .     S
C947   O1168   1.221   .     D
C948   H1112   1.084   .     S
C948   C998    1.491   .     S
C948   O1169   1.221   .     D
C949   H1113   1.084   .     S
C949   O1170   1.221   .     D
C949   C1009   1.490   .     S
C950   C1020   1.491   .     S
C950   O1171   1.221   .     D
C950   H1114   1.084   .     S
C951   C1031   1.491   .     S
C951   O1173   1.221   .     D
C951   H1115   1.084   .     S
C952   O1174   1.221   .     D
C952   H1116   1.084   .     S
C952   C1042   1.491   .     S
C953   H1102   1.084   .     S
C953   O1175   1.221   .     D
C954   O1176   1.221   .     D
C954   H1103   1.084   .     S
C955   O1177   1.221   .     D
C955   H1104   1.084   .     S
C956   H1105   1.084   .     S
C956   O1178   1.221   .     D
C957   C959    1.491   .     S
C958   O1179   1.221   .     D
C958   H1106   1.084   .     S
C959   O1180   1.221   .     D
C959   H1107   1.084   .     S
C960   O1181   1.221   .     D
C960   H1108   1.084   .     S
C960   C961    1.491   .     S
C961   C970    1.407   .     A
C962   C991    1.457   .     S
C962   C998    1.407   .     A
C962   C601    1.407   1_655 S
C963   C965    1.407   .     A
C963   C692    1.457   1_655 S
C963   C709    1.407   1_655 S
C964   C989    1.457   .     S
C964   C976    1.407   .     A
C964   C420    1.407   1_565 S
C966   C1031   1.407   .     A
C966   C387    1.407   1_565 S
C966   C390    1.457   1_565 S
C967   C995    1.457   .     S
C967   C442    1.407   1_565 S
C968   C996    1.457   .     S
C968   C346    1.407   1_565 S
C969   C993    1.457   .     S
C969   C657    1.407   1_655 S
C970   C994    1.457   .     S
C970   C624    1.407   1_655 S
C971   C1050   1.416   .     A
C971   C977    1.403   .     A
C971   Cl1053  1.776   .     S
C972   C1051   1.416   .     A
C972   C975    1.403   .     A
C972   Cl1064  1.776   .     S
C973   Cl1075  1.776   .     S
C973   C979    1.403   .     A
C973   C1052   1.416   .     A
C974   C978    1.403   .     A
C974   Cl1086  1.776   .     S
C975   Cl1096  1.776   .     S
C977   Cl1097  1.776   .     S
C978   Cl1098  1.776   .     S
C979   Cl1099  1.776   .     S
C980   Cl1100  1.776   .     S
C980   C985    1.403   1_556 S
C981   Cl1054  1.776   .     S
C981   C984    1.403   1_554 S
C982   Cl1055  1.776   .     S
C982   C988    1.403   1_556 S
C983   Cl1056  1.776   .     S
C983   C986    1.403   1_554 S
C984   Cl1057  1.776   .     S
C984   C981    1.403   1_556 S
C985   Cl1058  1.776   .     S
C985   C980    1.403   1_554 S
C986   Cl1059  1.776   .     S
C986   C983    1.403   1_556 S
C988   Cl1060  1.776   .     S
C988   C982    1.403   1_554 S
C989   O1161   1.276   .     A
C989   O584    1.276   1_565 S
C990   O1172   1.276   .     A
C991   O1119   1.276   .     A
C991   O882    1.276   1_655 S
C992   O1120   1.276   .     A
C993   O825    1.276   1_655 A
C993   O821    1.276   1_655 S
C994   O822    1.276   1_655 S
C994   O826    1.276   1_655 S
C995   O523    1.276   1_565 S
C995   O527    1.276   1_565 S
C996   O524    1.276   1_565 S
C996   O529    1.276   1_565 S
C997   O1158   1.279   .     A
C997   O1130   1.279   .     A
C998   C1050   1.413   .     A
C999   O1131   1.279   .     A
C999   O1159   1.279   .     A
C1000  O1156   1.278   .     A
C1000  O1132   1.279   .     A
C1001  O1157   1.279   .     A
C1001  O1133   1.279   .     A
C1002  O1163   1.278   .     A
C1002  O1134   1.278   .     A
C1003  O1135   1.278   .     A
C1003  O1164   1.278   .     A
C1004  O1136   1.278   .     A
C1004  O1160   1.279   .     A
C1005  O1137   1.279   .     A
C1005  O1162   1.279   .     A
C1006  O1138   1.279   .     A
C1006  O1149   1.279   .     A
C1007  O1140   1.278   .     A
C1007  O1151   1.279   .     A
C1008  O1141   1.279   .     A
C1008  O1147   1.279   .     A
C1009  C1051   1.413   .     A
C1010  O1148   1.279   .     A
C1010  O1142   1.279   .     A
C1011  O1143   1.279   .     A
C1011  O1154   1.279   .     A
C1012  O1155   1.278   .     A
C1012  O1144   1.279   .     A
C1013  O1152   1.278   .     A
C1013  O1145   1.278   .     A
C1014  O1153   1.278   .     A
C1014  O1146   1.278   .     A
C1015  Cl1061  1.771   .     S
C1015  C1032   1.396   .     A
C1016  C1030   1.396   .     A
C1016  Cl1062  1.771   .     S
C1017  Cl1063  1.771   .     S
C1017  C1029   1.397   .     A
C1018  Cl1065  1.771   .     S
C1018  C1028   1.397   .     A
C1019  C1027   1.396   .     A
C1019  Cl1066  1.771   .     S
C1020  C1052   1.413   .     A
C1021  Cl1067  1.771   .     S
C1021  C1026   1.396   .     A
C1022  C1025   1.397   .     A
C1022  Cl1068  1.771   .     S
C1023  C1024   1.397   .     A
C1023  Cl1069  1.771   .     S
C1024  Cl1070  1.771   .     S
C1025  Cl1071  1.771   .     S
C1026  Cl1072  1.771   .     S
C1027  Cl1073  1.771   .     S
C1028  Cl1074  1.771   .     S
C1029  Cl1076  1.771   .     S
C1030  Cl1077  1.771   .     S
C1032  Cl1078  1.771   .     S
C1033  Cl1079  1.771   .     S
C1033  C1049   1.396   .     A
C1034  Cl1080  1.771   .     S
C1034  C1048   1.396   .     A
C1035  C1047   1.397   .     A
C1035  Cl1081  1.771   .     S
C1036  C1046   1.397   .     A
C1036  Cl1082  1.771   .     S
C1037  Cl1083  1.771   .     S
C1037  C1045   1.396   .     A
C1038  Cl1084  1.771   .     S
C1038  C1044   1.396   .     A
C1039  C1043   1.397   .     A
C1039  Cl1085  1.771   .     S
C1040  C1041   1.397   .     A
C1040  Cl1087  1.771   .     S
C1041  Cl1088  1.771   .     S
C1043  Cl1089  1.771   .     S
C1044  Cl1090  1.771   .     S
C1045  Cl1091  1.771   .     S
C1046  Cl1092  1.771   .     S
C1047  Cl1093  1.771   .     S
C1048  Cl1094  1.771   .     S
C1049  Cl1095  1.771   .     S
O1117  Zn1185  1.945   .     S
O1117  Zn1196  1.945   .     S
O1117  Zn1188  1.945   .     S
O1118  Zn1187  1.946   .     S
O1118  C390    1.276   1_565 S
O1119  Zn1190  1.946   .     S
O1120  Zn1189  1.946   .     S
O1121  Zn1199  1.946   .     S
O1122  Zn1198  1.946   .     S
O1123  Zn1193  1.946   .     S
O1124  Zn1185  1.946   .     S
O1125  Zn1195  1.946   .     S
O1126  Zn1194  1.946   .     S
O1127  Zn1197  1.946   .     S
O1128  Zn1191  1.945   .     S
O1128  Zn1193  1.945   .     S
O1128  Zn1197  1.945   .     S
O1129  Zn1196  1.946   .     S
O1130  Zn1188  1.932   .     S
O1131  Zn1187  1.932   .     S
O1132  Zn1190  1.936   .     S
O1133  Zn1189  1.936   .     S
O1134  Zn1192  1.932   .     S
O1135  Zn1191  1.932   .     S
O1136  Zn1186  1.935   .     S
O1137  Zn1200  1.935   .     S
O1138  Zn1187  1.935   .     S
O1139  Zn1198  1.945   .     S
O1139  Zn1186  1.945   .     S
O1139  Zn1194  1.945   .     S
O1140  Zn1188  1.935   .     S
O1141  Zn1200  1.932   .     S
O1142  Zn1186  1.932   .     S
O1143  Zn1191  1.936   .     S
O1144  Zn1192  1.936   .     S
O1145  Zn1189  1.932   .     S
O1146  Zn1190  1.932   .     S
O1147  Zn895   1.932   1_655 S
O1148  Zn1194  1.932   .     S
O1149  Zn597   1.936   1_565 S
O1150  Zn1189  1.945   .     S
O1150  Zn1195  1.945   .     S
O1150  Zn1199  1.945   .     S
O1151  Zn1196  1.936   .     S
O1152  Zn1199  1.932   .     S
O1153  Zn898   1.932   1_655 S
O1154  Zn1193  1.935   .     S
O1155  Zn585   1.935   1_565 S
O1156  Zn894   1.935   1_655 S
O1157  Zn1195  1.935   .     S
O1158  Zn1185  1.932   .     S
O1159  Zn593   1.932   1_565 S
O1160  Zn1198  1.936   .     S
O1161  Zn1192  1.946   .     S
O1162  Zn899   1.936   1_655 S
O1163  Zn596   1.932   1_565 S
O1164  Zn1197  1.932   .     S
O1172  Zn1191  1.946   .     S
O1182  Zn1186  1.946   .     S
O1183  Zn1200  1.946   .     S
O1183  C692    1.276   1_655 S
O1184  Zn1188  1.946   .     S
Zn1187 O528    1.945   1_565 S
Zn1190 O839    1.945   1_655 S
Zn1192 O517    1.945   1_565 S
Zn1200 O850    1.945   1_655 S
