data_str_m1_o5_o17_pcu_sym.65
_audit_creation_date              2020-01-03
_audit_creation_method            'Materials Studio'
_symmetry_space_group_name_H-M    'P1'
_symmetry_Int_Tables_number       1
_symmetry_cell_setting            triclinic
loop_
_symmetry_equiv_pos_as_xyz
  x,y,z
_cell_length_a                    31.8046
_cell_length_b                    31.8046
_cell_length_c                    34.4065
_cell_angle_alpha                 90.1999
_cell_angle_beta                  90.1999
_cell_angle_gamma                 89.8799
loop_
_atom_site_label
_atom_site_type_symbol
_atom_site_fract_x
_atom_site_fract_y
_atom_site_fract_z
_atom_site_U_iso_or_equiv
_atom_site_adp_type
_atom_site_occupancy
C1     C     0.24992   0.00024   0.35594   0.00000  Uiso   1.00
C2     C     0.33004   0.41996   0.75000   0.00000  Uiso   1.00
C3     C     0.42751   0.21692   0.02087   0.00000  Uiso   1.00
C4     C     0.28308   0.07249   0.97913   0.00000  Uiso   1.00
C5     C     0.19508   0.44713   0.02004   0.00000  Uiso   1.00
C6     C     0.42602   0.21903   0.97987   0.00000  Uiso   1.00
C7     C     0.05890   0.29798   0.02000   0.00000  Uiso   1.00
C8     C     0.49115   0.34297   0.37913   0.00000  Uiso   1.00
C9     C     0.00480   0.36567   0.34242   0.00000  Uiso   1.00
C10    C     0.48113   0.15717   0.60413   0.00000  Uiso   1.00
C11    C     0.45910   0.12198   0.62582   0.00000  Uiso   1.00
C12    C     0.15886   0.47424   0.37197   0.00000  Uiso   1.00
C13    C     0.41998   0.16994   0.24996   0.00000  Uiso   1.00
C14    C     0.12456   0.44333   0.36015   0.00000  Uiso   1.00
C15    C     0.34293   0.49416   0.61239   0.00000  Uiso   1.00
C16    C     0.38208   0.00872   0.63407   0.00000  Uiso   1.00
C17    C     0.00584   0.15708   0.38762   0.00000  Uiso   1.00
C18    C     0.49128   0.11792   0.36593   0.00000  Uiso   1.00
C19    C     0.02577   0.34114   0.62803   0.00000  Uiso   1.00
C20    C     0.05668   0.37544   0.63985   0.00000  Uiso   1.00
C21    C     0.34283   0.01886   0.39587   0.00000  Uiso   1.00
C22    C     0.37803   0.04090   0.37418   0.00000  Uiso   1.00
C23    C     0.15706   0.00886   0.62093   0.00000  Uiso   1.00
C24    C     0.08000   0.33007   0.75001   0.00000  Uiso   1.00
C25    C     0.13466   0.49525   0.65780   0.00000  Uiso   1.00
C26    C     0.24115   0.09299   0.87915   0.00000  Uiso   1.00
C27    C     0.25483   0.11583   0.84253   0.00000  Uiso   1.00
C28    C     0.23113   0.40717   0.10413   0.00000  Uiso   1.00
C29    C     0.20910   0.37198   0.12582   0.00000  Uiso   1.00
C30    C     0.40886   0.22422   0.87197   0.00000  Uiso   1.00
C31    C     0.37456   0.19331   0.86016   0.00000  Uiso   1.00
C32    C     0.09292   0.24416   0.11238   0.00000  Uiso   1.00
C33    C     0.13208   0.25872   0.13406   0.00000  Uiso   1.00
C34    C     0.25584   0.40708   0.88762   0.00000  Uiso   1.00
C35    C     0.33001   0.41999   0.25000   0.00000  Uiso   1.00
C36    C     0.24129   0.36792   0.86594   0.00000  Uiso   1.00
C37    C     0.27578   0.09114   0.12803   0.00000  Uiso   1.00
C38    C     0.30670   0.12543   0.13984   0.00000  Uiso   1.00
C39    C     0.09283   0.26887   0.89587   0.00000  Uiso   1.00
C40    C     0.12802   0.29090   0.87418   0.00000  Uiso   1.00
C41    C     0.40701   0.25888   0.12085   0.00000  Uiso   1.00
C42    C     0.38419   0.24523   0.15748   0.00000  Uiso   1.00
C43    C     0.45106   0.11630   0.46639   0.00000  Uiso   1.00
C44    C     0.00925   0.39155   0.54572   0.00000  Uiso   1.00
C45    C     0.29970   0.12556   0.45469   0.00000  Uiso   1.00
C46    C     0.17000   0.08000   0.75000   0.00000  Uiso   1.00
C47    C     0.10696   0.45998   0.54880   0.00000  Uiso   1.00
C48    C     0.04003   0.39307   0.45123   0.00000  Uiso   1.00
C49    C     0.37443   0.20032   0.54531   0.00000  Uiso   1.00
C50    C     0.10846   0.49074   0.45429   0.00000  Uiso   1.00
C51    C     0.38371   0.04893   0.53361   0.00000  Uiso   1.00
C52    C     0.20105   0.36631   0.96639   0.00000  Uiso   1.00
C53    C     0.25925   0.14155   0.04573   0.00000  Uiso   1.00
C54    C     0.04968   0.37557   0.95469   0.00000  Uiso   1.00
C55    C     0.35692   0.20999   0.04876   0.00000  Uiso   1.00
C56    C     0.29001   0.14308   0.95124   0.00000  Uiso   1.00
C57    C     0.08006   0.33002   0.25004   0.00000  Uiso   1.00
C58    C     0.12443   0.45032   0.04531   0.00000  Uiso   1.00
C59    C     0.35845   0.24075   0.95427   0.00000  Uiso   1.00
C60    C     0.13370   0.29894   0.03361   0.00000  Uiso   1.00
C61    C     0.41993   0.17000   0.74999   0.00000  Uiso   1.00
C62    C     0.16998   0.41994   0.74996   0.00000  Uiso   1.00
C63    C     0.33000   0.08007   0.25001   0.00000  Uiso   1.00
C64    C     0.41996   0.33004   0.75000   0.00000  Uiso   1.00
C65    C     0.25027   0.49996   0.64416   0.00000  Uiso   1.00
C66    C     0.08004   0.16996   0.25000   0.00000  Uiso   1.00
C67    C     0.33006   0.08002   0.75004   0.00000  Uiso   1.00
C68    C     0.16993   0.42000   0.24999   0.00000  Uiso   1.00
C69    C     0.08001   0.16999   0.75000   0.00000  Uiso   1.00
C70    C     0.42000   0.33000   0.25000   0.00000  Uiso   1.00
C71    C     0.13827   0.38838   0.24999   0.00000  Uiso   1.00
C72    C     0.36169   0.11167   0.75007   0.00000  Uiso   1.00
C73    C     0.11167   0.13833   0.25000   0.00000  Uiso   1.00
C74    C     0.38833   0.36167   0.75000   0.00000  Uiso   1.00
C75    C     0.36162   0.11173   0.25001   0.00000  Uiso   1.00
C76    C     0.00004   0.24973   0.35584   0.00000  Uiso   1.00
C77    C     0.13833   0.38831   0.74993   0.00000  Uiso   1.00
C78    C     0.38834   0.36166   0.25000   0.00000  Uiso   1.00
C79    C     0.11167   0.13833   0.75000   0.00000  Uiso   1.00
C80    C     0.13834   0.11166   0.75000   0.00000  Uiso   1.00
C81    C     0.36167   0.38833   0.25000   0.00000  Uiso   1.00
C82    C     0.11162   0.36173   0.75001   0.00000  Uiso   1.00
C83    C     0.38833   0.13831   0.24993   0.00000  Uiso   1.00
C84    C     0.36167   0.38833   0.75000   0.00000  Uiso   1.00
C85    C     0.13833   0.11167   0.25000   0.00000  Uiso   1.00
C86    C     0.38827   0.13838   0.74999   0.00000  Uiso   1.00
C87    C     0.49976   0.25008   0.64407   0.00000  Uiso   1.00
C88    C     0.11169   0.36167   0.25007   0.00000  Uiso   1.00
C89    C     0.01297   0.28769   0.41731   0.00000  Uiso   1.00
C90    C     0.47358   0.22412   0.58157   0.00000  Uiso   1.00
C91    C     0.21253   0.48274   0.41760   0.00000  Uiso   1.00
C92    C     0.28323   0.01663   0.58129   0.00000  Uiso   1.00
C93    C     0.48337   0.21678   0.41871   0.00000  Uiso   1.00
C94    C     0.01726   0.28748   0.58240   0.00000  Uiso   1.00
C95    C     0.27589   0.02641   0.41843   0.00000  Uiso   1.00
C96    C     0.21232   0.48703   0.58269   0.00000  Uiso   1.00
C97    C     0.26296   0.03769   0.91731   0.00000  Uiso   1.00
C98    C     0.49992   0.25024   0.85594   0.00000  Uiso   1.00
C99    C     0.22358   0.47412   0.08157   0.00000  Uiso   1.00
C100   C     0.46252   0.23274   0.91760   0.00000  Uiso   1.00
C101   C     0.03322   0.26663   0.08129   0.00000  Uiso   1.00
C102   C     0.23337   0.46678   0.91871   0.00000  Uiso   1.00
C103   C     0.26726   0.03748   0.08240   0.00000  Uiso   1.00
C104   C     0.02588   0.27642   0.91843   0.00000  Uiso   1.00
C105   C     0.46231   0.23704   0.08269   0.00000  Uiso   1.00
C106   C     0.49977   0.25098   0.39819   0.00000  Uiso   1.00
C107   C     0.49792   0.25368   0.60182   0.00000  Uiso   1.00
C108   C     0.24632   0.00208   0.39818   0.00000  Uiso   1.00
C109   C     0.00027   0.24996   0.14416   0.00000  Uiso   1.00
C110   C     0.24902   0.00023   0.60182   0.00000  Uiso   1.00
C111   C     0.24977   0.00098   0.89819   0.00000  Uiso   1.00
C112   C     0.24792   0.00368   0.10182   0.00000  Uiso   1.00
C113   C     0.49632   0.25208   0.89818   0.00000  Uiso   1.00
C114   C     0.49902   0.25023   0.10181   0.00000  Uiso   1.00
C115   C     0.47670   0.22061   0.45923   0.00000  Uiso   1.00
C116   C     0.01372   0.28993   0.54116   0.00000  Uiso   1.00
C117   C     0.27378   0.02988   0.45920   0.00000  Uiso   1.00
C118   C     0.21114   0.48605   0.54155   0.00000  Uiso   1.00
C119   C     0.01395   0.28886   0.45845   0.00000  Uiso   1.00
C120   C     0.25004   0.49973   0.85584   0.00000  Uiso   1.00
C121   C     0.47011   0.22623   0.54080   0.00000  Uiso   1.00
C122   C     0.21007   0.48628   0.45884   0.00000  Uiso   1.00
C123   C     0.27939   0.02330   0.54078   0.00000  Uiso   1.00
C124   C     0.22669   0.47062   0.95923   0.00000  Uiso   1.00
C125   C     0.26371   0.03994   0.04116   0.00000  Uiso   1.00
C126   C     0.02377   0.27989   0.95920   0.00000  Uiso   1.00
C127   C     0.46113   0.23606   0.04155   0.00000  Uiso   1.00
C128   C     0.26394   0.03887   0.95845   0.00000  Uiso   1.00
C129   C     0.22011   0.47623   0.04080   0.00000  Uiso   1.00
C130   C     0.46007   0.23629   0.95884   0.00000  Uiso   1.00
C131   C     0.24976   0.00008   0.14407   0.00000  Uiso   1.00
C132   C     0.02939   0.27331   0.04078   0.00000  Uiso   1.00
C133   C     0.49415   0.25587   0.47933   0.00000  Uiso   1.00
C134   C     0.49281   0.25732   0.52043   0.00000  Uiso   1.00
C135   C     0.24269   0.00719   0.47957   0.00000  Uiso   1.00
C136   C     0.24414   0.00585   0.52067   0.00000  Uiso   1.00
C137   C     0.24414   0.00587   0.97933   0.00000  Uiso   1.00
C138   C     0.24280   0.00732   0.02043   0.00000  Uiso   1.00
C139   C     0.49268   0.25720   0.97957   0.00000  Uiso   1.00
C140   C     0.49413   0.25586   0.02067   0.00000  Uiso   1.00
C141   C     0.45203   0.19110   0.48000   0.00000  Uiso   1.00
C142   C     0.16996   0.08004   0.25000   0.00000  Uiso   1.00
C143   C     0.03097   0.32397   0.52013   0.00000  Uiso   1.00
C144   C     0.30288   0.05490   0.47996   0.00000  Uiso   1.00
C145   C     0.17753   0.46690   0.52087   0.00000  Uiso   1.00
C146   C     0.03309   0.32248   0.47913   0.00000  Uiso   1.00
C147   C     0.44509   0.19713   0.52004   0.00000  Uiso   1.00
C148   C     0.17604   0.46902   0.47987   0.00000  Uiso   1.00
C149   C     0.30891   0.04797   0.52000   0.00000  Uiso   1.00
C150   C     0.20202   0.44110   0.98000   0.00000  Uiso   1.00
C151   C     0.28097   0.07398   0.02013   0.00000  Uiso   1.00
C152   C     0.05287   0.30491   0.97996   0.00000  Uiso   1.00
H153   H     0.47874   0.36640   0.40000   0.00000  Uiso   1.00
H154   H     0.42952   0.11332   0.61053   0.00000  Uiso   1.00
H155   H     0.04755   0.40241   0.42106   0.00000  Uiso   1.00
H156   H     0.40503   0.14562   0.52949   0.00000  Uiso   1.00
H157   H     0.35986   0.20842   0.51689   0.00000  Uiso   1.00
H158   H     0.38203   0.22963   0.56151   0.00000  Uiso   1.00
H159   H     0.35145   0.18208   0.56264   0.00000  Uiso   1.00
H160   H     0.12538   0.42919   0.46896   0.00000  Uiso   1.00
H161   H     0.09031   0.49698   0.48097   0.00000  Uiso   1.00
H162   H     0.08574   0.48190   0.43117   0.00000  Uiso   1.00
H163   H     0.12440   0.02038   0.44589   0.00000  Uiso   1.00
H164   H     0.34311   0.10039   0.53663   0.00000  Uiso   1.00
H165   H     0.17434   0.48387   0.34473   0.00000  Uiso   1.00
H166   H     0.39364   0.05112   0.50288   0.00000  Uiso   1.00
H167   H     0.38307   0.01519   0.54124   0.00000  Uiso   1.00
H168   H     0.40750   0.06497   0.55205   0.00000  Uiso   1.00
H169   H     0.14960   0.40691   0.96337   0.00000  Uiso   1.00
H170   H     0.19886   0.35637   0.99712   0.00000  Uiso   1.00
H171   H     0.23479   0.36694   0.95877   0.00000  Uiso   1.00
H172   H     0.18502   0.34251   0.94795   0.00000  Uiso   1.00
H173   H     0.32080   0.12464   0.03104   0.00000  Uiso   1.00
H174   H     0.25299   0.15970   0.01906   0.00000  Uiso   1.00
H175   H     0.26809   0.16426   0.06886   0.00000  Uiso   1.00
H176   H     0.14430   0.00274   0.38489   0.00000  Uiso   1.00
H177   H     0.22962   0.12560   0.05415   0.00000  Uiso   1.00
H178   H     0.10438   0.34497   0.97051   0.00000  Uiso   1.00
H179   H     0.04158   0.39014   0.98311   0.00000  Uiso   1.00
H180   H     0.02038   0.36797   0.93848   0.00000  Uiso   1.00
H181   H     0.06792   0.39855   0.93736   0.00000  Uiso   1.00
H182   H     0.39637   0.16062   0.03168   0.00000  Uiso   1.00
H183   H     0.33289   0.19674   0.02892   0.00000  Uiso   1.00
H184   H     0.35731   0.24465   0.04526   0.00000  Uiso   1.00
H185   H     0.34758   0.20246   0.07893   0.00000  Uiso   1.00
H186   H     0.33938   0.10363   0.96832   0.00000  Uiso   1.00
H187   H     0.10914   0.43000   0.38617   0.00000  Uiso   1.00
H188   H     0.30326   0.16712   0.97108   0.00000  Uiso   1.00
H189   H     0.25535   0.14270   0.95476   0.00000  Uiso   1.00
H190   H     0.29753   0.15243   0.92107   0.00000  Uiso   1.00
H191   H     0.15503   0.39562   0.02949   0.00000  Uiso   1.00
H192   H     0.10985   0.45843   0.01690   0.00000  Uiso   1.00
H193   H     0.13203   0.47963   0.06152   0.00000  Uiso   1.00
H194   H     0.10145   0.43209   0.06264   0.00000  Uiso   1.00
H195   H     0.37536   0.17921   0.96897   0.00000  Uiso   1.00
H196   H     0.34031   0.24702   0.98095   0.00000  Uiso   1.00
H197   H     0.33574   0.23191   0.93115   0.00000  Uiso   1.00
H198   H     0.10056   0.45949   0.34202   0.00000  Uiso   1.00
H199   H     0.37440   0.27039   0.94585   0.00000  Uiso   1.00
H200   H     0.09310   0.35040   0.03663   0.00000  Uiso   1.00
H201   H     0.14363   0.30113   0.00288   0.00000  Uiso   1.00
H202   H     0.13307   0.26520   0.04124   0.00000  Uiso   1.00
H203   H     0.15749   0.31498   0.05205   0.00000  Uiso   1.00
H204   H     0.13843   0.41710   0.34305   0.00000  Uiso   1.00
H205   H     0.35249   0.47555   0.58645   0.00000  Uiso   1.00
H206   H     0.32557   0.47284   0.63207   0.00000  Uiso   1.00
H207   H     0.37293   0.02607   0.66083   0.00000  Uiso   1.00
H208   H     0.40148   0.48108   0.64239   0.00000  Uiso   1.00
H209   H     0.46430   0.32218   0.37140   0.00000  Uiso   1.00
H210   H     0.40116   0.02971   0.61548   0.00000  Uiso   1.00
H211   H     0.02444   0.14751   0.41356   0.00000  Uiso   1.00
H212   H     0.02716   0.17444   0.36794   0.00000  Uiso   1.00
H213   H     0.47396   0.12707   0.33917   0.00000  Uiso   1.00
H214   H     0.01892   0.09852   0.35764   0.00000  Uiso   1.00
H215   H     0.47028   0.09886   0.38451   0.00000  Uiso   1.00
H216   H     0.01615   0.32566   0.65528   0.00000  Uiso   1.00
H217   H     0.49727   0.35570   0.61513   0.00000  Uiso   1.00
H218   H     0.07000   0.39086   0.61383   0.00000  Uiso   1.00
H219   H     0.04054   0.39944   0.65798   0.00000  Uiso   1.00
H220   H     0.01587   0.34250   0.32050   0.00000  Uiso   1.00
H221   H     0.08292   0.36156   0.65694   0.00000  Uiso   1.00
H222   H     0.33492   0.48936   0.37995   0.00000  Uiso   1.00
H223   H     0.35457   0.01079   0.42547   0.00000  Uiso   1.00
H224   H     0.40609   0.02013   0.37275   0.00000  Uiso   1.00
H225   H     0.36765   0.04848   0.34414   0.00000  Uiso   1.00
H226   H     0.38669   0.07047   0.38947   0.00000  Uiso   1.00
H227   H     0.13345   0.02115   0.60018   0.00000  Uiso   1.00
H228   H     0.17783   0.03579   0.62846   0.00000  Uiso   1.00
H229   H     0.15801   0.48427   0.67961   0.00000  Uiso   1.00
H230   H     0.11690   0.02219   0.67023   0.00000  Uiso   1.00
H231   H     0.47785   0.38347   0.33005   0.00000  Uiso   1.00
H232   H     0.11238   0.46932   0.65123   0.00000  Uiso   1.00
H233   H     0.22868   0.11632   0.90008   0.00000  Uiso   1.00
H234   H     0.21434   0.07219   0.87132   0.00000  Uiso   1.00
H235   H     0.26597   0.09274   0.82055   0.00000  Uiso   1.00
H236   H     0.22787   0.13363   0.83017   0.00000  Uiso   1.00
H237   H     0.28066   0.13813   0.84937   0.00000  Uiso   1.00
H238   H     0.26064   0.41508   0.12004   0.00000  Uiso   1.00
H239   H     0.23920   0.39543   0.07452   0.00000  Uiso   1.00
H240   H     0.22987   0.34392   0.12725   0.00000  Uiso   1.00
H241   H     0.20152   0.38235   0.15586   0.00000  Uiso   1.00
H242   H     0.03068   0.38795   0.34918   0.00000  Uiso   1.00
H243   H     0.17953   0.36332   0.11053   0.00000  Uiso   1.00
H244   H     0.42434   0.23384   0.84472   0.00000  Uiso   1.00
H245   H     0.39430   0.25273   0.88486   0.00000  Uiso   1.00
H246   H     0.35914   0.17999   0.88618   0.00000  Uiso   1.00
H247   H     0.35056   0.20946   0.84202   0.00000  Uiso   1.00
H248   H     0.38844   0.16707   0.84306   0.00000  Uiso   1.00
H249   H     0.10249   0.22555   0.08644   0.00000  Uiso   1.00
H250   H     0.07556   0.22284   0.13206   0.00000  Uiso   1.00
H251   H     0.12293   0.27606   0.16082   0.00000  Uiso   1.00
H252   H     0.15148   0.23108   0.14238   0.00000  Uiso   1.00
H253   H     0.01064   0.16508   0.62005   0.00000  Uiso   1.00
H254   H     0.15115   0.27970   0.11548   0.00000  Uiso   1.00
H255   H     0.27444   0.39752   0.91356   0.00000  Uiso   1.00
H256   H     0.27716   0.42444   0.86794   0.00000  Uiso   1.00
H257   H     0.22394   0.37707   0.83918   0.00000  Uiso   1.00
H258   H     0.26893   0.34853   0.85762   0.00000  Uiso   1.00
H259   H     0.22030   0.34885   0.88452   0.00000  Uiso   1.00
H260   H     0.26616   0.07566   0.15528   0.00000  Uiso   1.00
H261   H     0.24728   0.10570   0.11514   0.00000  Uiso   1.00
H262   H     0.32002   0.14085   0.11383   0.00000  Uiso   1.00
H263   H     0.29055   0.14944   0.15798   0.00000  Uiso   1.00
H264   H     0.48921   0.14543   0.57453   0.00000  Uiso   1.00
H265   H     0.33293   0.11156   0.15694   0.00000  Uiso   1.00
H266   H     0.08492   0.23936   0.87996   0.00000  Uiso   1.00
H267   H     0.10457   0.26079   0.92548   0.00000  Uiso   1.00
H268   H     0.15609   0.27013   0.87275   0.00000  Uiso   1.00
H269   H     0.11765   0.29848   0.84414   0.00000  Uiso   1.00
H270   H     0.13669   0.32047   0.88947   0.00000  Uiso   1.00
H271   H     0.38367   0.27135   0.09993   0.00000  Uiso   1.00
H272   H     0.42782   0.28570   0.12865   0.00000  Uiso   1.00
H273   H     0.40728   0.23407   0.17945   0.00000  Uiso   1.00
H274   H     0.36643   0.27221   0.16985   0.00000  Uiso   1.00
H275   H     0.47987   0.09391   0.62725   0.00000  Uiso   1.00
H276   H     0.36187   0.21942   0.15066   0.00000  Uiso   1.00
H277   H     0.39961   0.15690   0.46337   0.00000  Uiso   1.00
H278   H     0.44887   0.10637   0.49712   0.00000  Uiso   1.00
H279   H     0.48480   0.11693   0.45877   0.00000  Uiso   1.00
H280   H     0.43503   0.09251   0.44795   0.00000  Uiso   1.00
H281   H     0.07080   0.37463   0.53104   0.00000  Uiso   1.00
H282   H     0.00300   0.40969   0.51905   0.00000  Uiso   1.00
H283   H     0.01809   0.41426   0.56884   0.00000  Uiso   1.00
H284   H     0.47962   0.37560   0.55414   0.00000  Uiso   1.00
H285   H     0.35439   0.09495   0.47051   0.00000  Uiso   1.00
H286   H     0.45152   0.13235   0.65586   0.00000  Uiso   1.00
H287   H     0.29160   0.14014   0.48311   0.00000  Uiso   1.00
H288   H     0.27038   0.11797   0.43849   0.00000  Uiso   1.00
H289   H     0.31793   0.14854   0.43736   0.00000  Uiso   1.00
H290   H     0.14637   0.41061   0.53166   0.00000  Uiso   1.00
H291   H     0.08289   0.44675   0.52898   0.00000  Uiso   1.00
H292   H     0.10735   0.49465   0.54529   0.00000  Uiso   1.00
H293   H     0.09764   0.45246   0.57898   0.00000  Uiso   1.00
H294   H     0.08939   0.35362   0.46833   0.00000  Uiso   1.00
H295   H     0.05327   0.41711   0.47108   0.00000  Uiso   1.00
H296   H     0.00536   0.39268   0.45474   0.00000  Uiso   1.00
N297   N     0.43183   0.15716   0.46032   0.00000  Uiso   1.00
N298   N     0.29305   0.11138   0.04008   0.00000  Uiso   1.00
N299   N     0.07465   0.33809   0.96071   0.00000  Uiso   1.00
N300   N     0.39767   0.19150   0.04084   0.00000  Uiso   1.00
N301   N     0.30850   0.10234   0.95916   0.00000  Uiso   1.00
N302   N     0.16190   0.42535   0.03929   0.00000  Uiso   1.00
N303   N     0.38862   0.20696   0.95992   0.00000  Uiso   1.00
N304   N     0.09284   0.31818   0.03968   0.00000  Uiso   1.00
N305   N     0.04305   0.36137   0.54008   0.00000  Uiso   1.00
N306   N     0.32466   0.08808   0.46071   0.00000  Uiso   1.00
N307   N     0.14768   0.44148   0.54084   0.00000  Uiso   1.00
N308   N     0.05851   0.35232   0.45917   0.00000  Uiso   1.00
N309   N     0.41191   0.17535   0.53929   0.00000  Uiso   1.00
N310   N     0.13863   0.45694   0.45992   0.00000  Uiso   1.00
N311   N     0.34285   0.06817   0.53968   0.00000  Uiso   1.00
N312   N     0.18182   0.40717   0.96032   0.00000  Uiso   1.00
O313   O     0.25000   0.00000   0.25000   0.00000  Uiso   1.00
O314   O     0.25000   0.46539   0.66251   0.00000  Uiso   1.00
O315   O     0.46539   0.25000   0.33749   0.00000  Uiso   1.00
O316   O     0.03462   0.25000   0.66251   0.00000  Uiso   1.00
O317   O     0.00000   0.21539   0.83749   0.00000  Uiso   1.00
O318   O     0.00000   0.28461   0.16251   0.00000  Uiso   1.00
O319   O     0.28462   0.00000   0.83749   0.00000  Uiso   1.00
O320   O     0.21539   0.00000   0.16251   0.00000  Uiso   1.00
O321   O     0.00000   0.28462   0.83749   0.00000  Uiso   1.00
O322   O     0.00000   0.21538   0.16251   0.00000  Uiso   1.00
O323   O     0.21539   0.00000   0.83749   0.00000  Uiso   1.00
O324   O     0.25000   0.00000   0.75000   0.00000  Uiso   1.00
O325   O     0.28462   0.00000   0.16251   0.00000  Uiso   1.00
O326   O     0.20127   0.08332   0.27298   0.00000  Uiso   1.00
O327   O     0.29874   0.41668   0.72702   0.00000  Uiso   1.00
O328   O     0.41668   0.20127   0.27298   0.00000  Uiso   1.00
O329   O     0.08332   0.29873   0.72702   0.00000  Uiso   1.00
O330   O     0.29874   0.41668   0.27298   0.00000  Uiso   1.00
O331   O     0.20127   0.08332   0.72702   0.00000  Uiso   1.00
O332   O     0.08332   0.29873   0.27298   0.00000  Uiso   1.00
O333   O     0.41668   0.20127   0.72702   0.00000  Uiso   1.00
O334   O     0.20127   0.41668   0.72702   0.00000  Uiso   1.00
O335   O     0.00000   0.25000   0.25000   0.00000  Uiso   1.00
O336   O     0.29874   0.08332   0.27298   0.00000  Uiso   1.00
O337   O     0.41668   0.29874   0.72702   0.00000  Uiso   1.00
O338   O     0.08332   0.20127   0.27298   0.00000  Uiso   1.00
O339   O     0.29874   0.08332   0.72702   0.00000  Uiso   1.00
O340   O     0.20127   0.41668   0.27298   0.00000  Uiso   1.00
O341   O     0.08332   0.20127   0.72702   0.00000  Uiso   1.00
O342   O     0.41668   0.29874   0.27298   0.00000  Uiso   1.00
O343   O     0.45127   0.33332   0.77298   0.00000  Uiso   1.00
O344   O     0.04874   0.16668   0.22702   0.00000  Uiso   1.00
O345   O     0.16668   0.45127   0.77298   0.00000  Uiso   1.00
O346   O     0.00000   0.25000   0.75000   0.00000  Uiso   1.00
O347   O     0.33332   0.04874   0.22702   0.00000  Uiso   1.00
O348   O     0.04874   0.16668   0.77298   0.00000  Uiso   1.00
O349   O     0.45127   0.33332   0.22702   0.00000  Uiso   1.00
O350   O     0.33332   0.04874   0.77298   0.00000  Uiso   1.00
O351   O     0.16668   0.45127   0.22702   0.00000  Uiso   1.00
O352   O     0.45127   0.16668   0.22702   0.00000  Uiso   1.00
O353   O     0.04874   0.33332   0.77298   0.00000  Uiso   1.00
O354   O     0.16668   0.04874   0.22702   0.00000  Uiso   1.00
O355   O     0.33332   0.45127   0.77298   0.00000  Uiso   1.00
O356   O     0.04874   0.33332   0.22702   0.00000  Uiso   1.00
O357   O     0.25000   0.46539   0.33749   0.00000  Uiso   1.00
O358   O     0.45127   0.16668   0.77298   0.00000  Uiso   1.00
O359   O     0.33332   0.45127   0.22702   0.00000  Uiso   1.00
O360   O     0.16668   0.04874   0.77298   0.00000  Uiso   1.00
O361   O     0.02632   0.32162   0.39535   0.00000  Uiso   1.00
O362   O     0.45399   0.19234   0.60221   0.00000  Uiso   1.00
O363   O     0.18711   0.45398   0.39790   0.00000  Uiso   1.00
O364   O     0.31863   0.02970   0.60167   0.00000  Uiso   1.00
O365   O     0.47030   0.18137   0.39833   0.00000  Uiso   1.00
O366   O     0.04603   0.31289   0.60210   0.00000  Uiso   1.00
O367   O     0.30766   0.04600   0.39779   0.00000  Uiso   1.00
O368   O     0.25000   0.03462   0.66251   0.00000  Uiso   1.00
O369   O     0.17837   0.47369   0.60465   0.00000  Uiso   1.00
O370   O     0.27632   0.07162   0.89534   0.00000  Uiso   1.00
O371   O     0.20399   0.44234   0.10221   0.00000  Uiso   1.00
O372   O     0.43711   0.20397   0.89790   0.00000  Uiso   1.00
O373   O     0.06863   0.27970   0.10167   0.00000  Uiso   1.00
O374   O     0.22030   0.43137   0.89834   0.00000  Uiso   1.00
O375   O     0.29603   0.06288   0.10210   0.00000  Uiso   1.00
O376   O     0.05766   0.29600   0.89779   0.00000  Uiso   1.00
O377   O     0.42837   0.22370   0.10466   0.00000  Uiso   1.00
O378   O     0.03462   0.25000   0.33749   0.00000  Uiso   1.00
O379   O     0.46539   0.25000   0.66251   0.00000  Uiso   1.00
O380   O     0.25000   0.03462   0.33749   0.00000  Uiso   1.00
Zn381  Zn    0.20053   0.00000   0.21730   0.00000  Uiso   1.00
Zn382  Zn    0.04948   0.25000   0.28270   0.00000  Uiso   1.00
Zn383  Zn    0.25000   0.45053   0.71730   0.00000  Uiso   1.00
Zn384  Zn    0.25000   0.04948   0.28270   0.00000  Uiso   1.00
Zn385  Zn    0.04948   0.25000   0.71730   0.00000  Uiso   1.00
Zn386  Zn    0.45053   0.25000   0.28270   0.00000  Uiso   1.00
Zn387  Zn    0.25000   0.04948   0.71730   0.00000  Uiso   1.00
Zn388  Zn    0.25000   0.45053   0.28270   0.00000  Uiso   1.00
Zn389  Zn    0.29948   0.00000   0.78270   0.00000  Uiso   1.00
Zn390  Zn    0.00000   0.20052   0.21730   0.00000  Uiso   1.00
Zn391  Zn    0.00000   0.29948   0.78270   0.00000  Uiso   1.00
Zn392  Zn    0.29948   0.00000   0.21730   0.00000  Uiso   1.00
Zn393  Zn    0.20053   0.00000   0.78270   0.00000  Uiso   1.00
Zn394  Zn    0.00000   0.29947   0.21730   0.00000  Uiso   1.00
Zn395  Zn    0.00000   0.20052   0.78270   0.00000  Uiso   1.00
Zn396  Zn    0.45053   0.25000   0.71730   0.00000  Uiso   1.00
C397   C     0.74992   0.00024   0.35594   0.00000  Uiso   1.00
C398   C     0.83004   0.41996   0.75000   0.00000  Uiso   1.00
C399   C     0.92751   0.21692   0.02087   0.00000  Uiso   1.00
C400   C     0.78308   0.07249   0.97913   0.00000  Uiso   1.00
C401   C     0.69508   0.44713   0.02004   0.00000  Uiso   1.00
C402   C     0.92602   0.21903   0.97987   0.00000  Uiso   1.00
C403   C     0.55890   0.29798   0.02000   0.00000  Uiso   1.00
C404   C     0.99115   0.34297   0.37913   0.00000  Uiso   1.00
C405   C     0.50480   0.36567   0.34242   0.00000  Uiso   1.00
C406   C     0.98113   0.15717   0.60413   0.00000  Uiso   1.00
C407   C     0.95910   0.12198   0.62582   0.00000  Uiso   1.00
C408   C     0.65886   0.47424   0.37197   0.00000  Uiso   1.00
C409   C     0.91998   0.16994   0.24996   0.00000  Uiso   1.00
C410   C     0.62456   0.44333   0.36015   0.00000  Uiso   1.00
C411   C     0.84293   0.49416   0.61239   0.00000  Uiso   1.00
C412   C     0.88208   0.00872   0.63407   0.00000  Uiso   1.00
C413   C     0.50584   0.15708   0.38762   0.00000  Uiso   1.00
C414   C     0.99128   0.11792   0.36593   0.00000  Uiso   1.00
C415   C     0.52577   0.34114   0.62803   0.00000  Uiso   1.00
C416   C     0.55668   0.37544   0.63985   0.00000  Uiso   1.00
C417   C     0.84283   0.01886   0.39587   0.00000  Uiso   1.00
C418   C     0.87803   0.04090   0.37418   0.00000  Uiso   1.00
C419   C     0.65706   0.00886   0.62093   0.00000  Uiso   1.00
C420   C     0.58000   0.33007   0.75001   0.00000  Uiso   1.00
C421   C     0.63466   0.49525   0.65780   0.00000  Uiso   1.00
C422   C     0.74115   0.09299   0.87915   0.00000  Uiso   1.00
C423   C     0.75483   0.11583   0.84253   0.00000  Uiso   1.00
C424   C     0.73113   0.40717   0.10413   0.00000  Uiso   1.00
C425   C     0.70910   0.37198   0.12582   0.00000  Uiso   1.00
C426   C     0.90886   0.22422   0.87197   0.00000  Uiso   1.00
C427   C     0.87456   0.19331   0.86016   0.00000  Uiso   1.00
C428   C     0.59292   0.24416   0.11238   0.00000  Uiso   1.00
C429   C     0.63208   0.25872   0.13406   0.00000  Uiso   1.00
C430   C     0.75584   0.40708   0.88762   0.00000  Uiso   1.00
C431   C     0.83001   0.41999   0.25000   0.00000  Uiso   1.00
C432   C     0.74129   0.36792   0.86594   0.00000  Uiso   1.00
C433   C     0.77578   0.09114   0.12803   0.00000  Uiso   1.00
C434   C     0.80670   0.12543   0.13984   0.00000  Uiso   1.00
C435   C     0.59283   0.26887   0.89587   0.00000  Uiso   1.00
C436   C     0.62802   0.29090   0.87418   0.00000  Uiso   1.00
C437   C     0.90701   0.25888   0.12085   0.00000  Uiso   1.00
C438   C     0.88419   0.24523   0.15748   0.00000  Uiso   1.00
C439   C     0.95106   0.11630   0.46639   0.00000  Uiso   1.00
C440   C     0.50925   0.39155   0.54572   0.00000  Uiso   1.00
C441   C     0.79970   0.12556   0.45469   0.00000  Uiso   1.00
C442   C     0.67000   0.08000   0.75000   0.00000  Uiso   1.00
C443   C     0.60696   0.45998   0.54880   0.00000  Uiso   1.00
C444   C     0.54003   0.39307   0.45123   0.00000  Uiso   1.00
C445   C     0.87443   0.20032   0.54531   0.00000  Uiso   1.00
C446   C     0.60846   0.49074   0.45429   0.00000  Uiso   1.00
C447   C     0.88371   0.04893   0.53361   0.00000  Uiso   1.00
C448   C     0.70105   0.36631   0.96639   0.00000  Uiso   1.00
C449   C     0.75925   0.14155   0.04573   0.00000  Uiso   1.00
C450   C     0.54968   0.37557   0.95469   0.00000  Uiso   1.00
C451   C     0.85692   0.20999   0.04876   0.00000  Uiso   1.00
C452   C     0.79001   0.14308   0.95124   0.00000  Uiso   1.00
C453   C     0.58006   0.33002   0.25004   0.00000  Uiso   1.00
C454   C     0.62443   0.45032   0.04531   0.00000  Uiso   1.00
C455   C     0.85845   0.24075   0.95427   0.00000  Uiso   1.00
C456   C     0.63370   0.29894   0.03361   0.00000  Uiso   1.00
C457   C     0.91993   0.17000   0.74999   0.00000  Uiso   1.00
C458   C     0.66998   0.41994   0.74996   0.00000  Uiso   1.00
C459   C     0.83000   0.08007   0.25001   0.00000  Uiso   1.00
C460   C     0.91996   0.33004   0.75000   0.00000  Uiso   1.00
C461   C     0.75027   0.49996   0.64416   0.00000  Uiso   1.00
C462   C     0.58004   0.16996   0.25000   0.00000  Uiso   1.00
C463   C     0.83006   0.08002   0.75004   0.00000  Uiso   1.00
C464   C     0.66993   0.42000   0.24999   0.00000  Uiso   1.00
C465   C     0.58001   0.16999   0.75000   0.00000  Uiso   1.00
C466   C     0.92000   0.33000   0.25000   0.00000  Uiso   1.00
C467   C     0.63827   0.38838   0.24999   0.00000  Uiso   1.00
C468   C     0.86169   0.11167   0.75007   0.00000  Uiso   1.00
C469   C     0.61167   0.13833   0.25000   0.00000  Uiso   1.00
C470   C     0.88833   0.36167   0.75000   0.00000  Uiso   1.00
C471   C     0.86162   0.11173   0.25001   0.00000  Uiso   1.00
C472   C     0.50004   0.24973   0.35584   0.00000  Uiso   1.00
C473   C     0.63833   0.38831   0.74993   0.00000  Uiso   1.00
C474   C     0.88834   0.36166   0.25000   0.00000  Uiso   1.00
C475   C     0.61167   0.13833   0.75000   0.00000  Uiso   1.00
C476   C     0.63834   0.11166   0.75000   0.00000  Uiso   1.00
C477   C     0.86167   0.38833   0.25000   0.00000  Uiso   1.00
C478   C     0.61162   0.36173   0.75001   0.00000  Uiso   1.00
C479   C     0.88833   0.13831   0.24993   0.00000  Uiso   1.00
C480   C     0.86167   0.38833   0.75000   0.00000  Uiso   1.00
C481   C     0.63833   0.11167   0.25000   0.00000  Uiso   1.00
C482   C     0.88827   0.13838   0.74999   0.00000  Uiso   1.00
C483   C     0.99976   0.25008   0.64407   0.00000  Uiso   1.00
C484   C     0.61169   0.36167   0.25007   0.00000  Uiso   1.00
C485   C     0.51297   0.28769   0.41731   0.00000  Uiso   1.00
C486   C     0.97358   0.22412   0.58157   0.00000  Uiso   1.00
C487   C     0.71253   0.48274   0.41760   0.00000  Uiso   1.00
C488   C     0.78323   0.01663   0.58129   0.00000  Uiso   1.00
C489   C     0.98337   0.21678   0.41871   0.00000  Uiso   1.00
C490   C     0.51726   0.28748   0.58240   0.00000  Uiso   1.00
C491   C     0.77589   0.02641   0.41843   0.00000  Uiso   1.00
C492   C     0.71232   0.48703   0.58269   0.00000  Uiso   1.00
C493   C     0.76296   0.03769   0.91731   0.00000  Uiso   1.00
C494   C     0.99992   0.25024   0.85594   0.00000  Uiso   1.00
C495   C     0.72358   0.47412   0.08157   0.00000  Uiso   1.00
C496   C     0.96252   0.23274   0.91760   0.00000  Uiso   1.00
C497   C     0.53322   0.26663   0.08129   0.00000  Uiso   1.00
C498   C     0.73337   0.46678   0.91871   0.00000  Uiso   1.00
C499   C     0.76726   0.03748   0.08240   0.00000  Uiso   1.00
C500   C     0.52588   0.27642   0.91843   0.00000  Uiso   1.00
C501   C     0.96231   0.23704   0.08269   0.00000  Uiso   1.00
C502   C     0.99977   0.25098   0.39819   0.00000  Uiso   1.00
C503   C     0.99792   0.25368   0.60182   0.00000  Uiso   1.00
C504   C     0.74632   0.00208   0.39818   0.00000  Uiso   1.00
C505   C     0.50027   0.24996   0.14416   0.00000  Uiso   1.00
C506   C     0.74902   0.00023   0.60182   0.00000  Uiso   1.00
C507   C     0.74977   0.00098   0.89819   0.00000  Uiso   1.00
C508   C     0.74792   0.00368   0.10182   0.00000  Uiso   1.00
C509   C     0.99632   0.25208   0.89818   0.00000  Uiso   1.00
C510   C     0.99902   0.25023   0.10181   0.00000  Uiso   1.00
C511   C     0.97670   0.22061   0.45923   0.00000  Uiso   1.00
C512   C     0.51372   0.28993   0.54116   0.00000  Uiso   1.00
C513   C     0.77378   0.02988   0.45920   0.00000  Uiso   1.00
C514   C     0.71114   0.48605   0.54155   0.00000  Uiso   1.00
C515   C     0.51395   0.28886   0.45845   0.00000  Uiso   1.00
C516   C     0.75004   0.49973   0.85584   0.00000  Uiso   1.00
C517   C     0.97011   0.22623   0.54080   0.00000  Uiso   1.00
C518   C     0.71007   0.48628   0.45884   0.00000  Uiso   1.00
C519   C     0.77939   0.02330   0.54078   0.00000  Uiso   1.00
C520   C     0.72669   0.47062   0.95923   0.00000  Uiso   1.00
C521   C     0.76371   0.03994   0.04116   0.00000  Uiso   1.00
C522   C     0.52377   0.27989   0.95920   0.00000  Uiso   1.00
C523   C     0.96113   0.23606   0.04155   0.00000  Uiso   1.00
C524   C     0.76394   0.03887   0.95845   0.00000  Uiso   1.00
C525   C     0.72011   0.47623   0.04080   0.00000  Uiso   1.00
C526   C     0.96007   0.23629   0.95884   0.00000  Uiso   1.00
C527   C     0.74976   0.00008   0.14407   0.00000  Uiso   1.00
C528   C     0.52939   0.27331   0.04078   0.00000  Uiso   1.00
C529   C     0.99415   0.25587   0.47933   0.00000  Uiso   1.00
C530   C     0.99281   0.25732   0.52043   0.00000  Uiso   1.00
C531   C     0.74269   0.00719   0.47957   0.00000  Uiso   1.00
C532   C     0.74414   0.00585   0.52067   0.00000  Uiso   1.00
C533   C     0.74414   0.00587   0.97933   0.00000  Uiso   1.00
C534   C     0.74280   0.00732   0.02043   0.00000  Uiso   1.00
C535   C     0.99268   0.25720   0.97957   0.00000  Uiso   1.00
C536   C     0.99413   0.25586   0.02067   0.00000  Uiso   1.00
C537   C     0.95203   0.19110   0.48000   0.00000  Uiso   1.00
C538   C     0.66996   0.08004   0.25000   0.00000  Uiso   1.00
C539   C     0.53097   0.32397   0.52013   0.00000  Uiso   1.00
C540   C     0.80288   0.05490   0.47996   0.00000  Uiso   1.00
C541   C     0.67753   0.46690   0.52087   0.00000  Uiso   1.00
C542   C     0.53309   0.32248   0.47913   0.00000  Uiso   1.00
C543   C     0.94509   0.19713   0.52004   0.00000  Uiso   1.00
C544   C     0.67604   0.46902   0.47987   0.00000  Uiso   1.00
C545   C     0.80891   0.04797   0.52000   0.00000  Uiso   1.00
C546   C     0.70202   0.44110   0.98000   0.00000  Uiso   1.00
C547   C     0.78097   0.07398   0.02013   0.00000  Uiso   1.00
C548   C     0.55287   0.30491   0.97996   0.00000  Uiso   1.00
H549   H     0.97874   0.36640   0.40000   0.00000  Uiso   1.00
H550   H     0.92952   0.11332   0.61053   0.00000  Uiso   1.00
H551   H     0.54755   0.40241   0.42106   0.00000  Uiso   1.00
H552   H     0.90503   0.14562   0.52949   0.00000  Uiso   1.00
H553   H     0.85986   0.20842   0.51689   0.00000  Uiso   1.00
H554   H     0.88203   0.22963   0.56151   0.00000  Uiso   1.00
H555   H     0.85145   0.18208   0.56264   0.00000  Uiso   1.00
H556   H     0.62538   0.42919   0.46896   0.00000  Uiso   1.00
H557   H     0.59031   0.49698   0.48097   0.00000  Uiso   1.00
H558   H     0.58574   0.48190   0.43117   0.00000  Uiso   1.00
H559   H     0.62440   0.02038   0.44589   0.00000  Uiso   1.00
H560   H     0.84311   0.10039   0.53663   0.00000  Uiso   1.00
H561   H     0.67434   0.48387   0.34473   0.00000  Uiso   1.00
H562   H     0.89364   0.05112   0.50288   0.00000  Uiso   1.00
H563   H     0.88307   0.01519   0.54124   0.00000  Uiso   1.00
H564   H     0.90750   0.06497   0.55205   0.00000  Uiso   1.00
H565   H     0.64960   0.40691   0.96337   0.00000  Uiso   1.00
H566   H     0.69886   0.35637   0.99712   0.00000  Uiso   1.00
H567   H     0.73479   0.36694   0.95877   0.00000  Uiso   1.00
H568   H     0.68502   0.34251   0.94795   0.00000  Uiso   1.00
H569   H     0.82080   0.12464   0.03104   0.00000  Uiso   1.00
H570   H     0.75299   0.15970   0.01906   0.00000  Uiso   1.00
H571   H     0.76809   0.16426   0.06886   0.00000  Uiso   1.00
H572   H     0.64430   0.00274   0.38489   0.00000  Uiso   1.00
H573   H     0.72962   0.12560   0.05415   0.00000  Uiso   1.00
H574   H     0.60438   0.34497   0.97051   0.00000  Uiso   1.00
H575   H     0.54158   0.39014   0.98311   0.00000  Uiso   1.00
H576   H     0.52038   0.36797   0.93848   0.00000  Uiso   1.00
H577   H     0.56792   0.39855   0.93736   0.00000  Uiso   1.00
H578   H     0.89637   0.16062   0.03168   0.00000  Uiso   1.00
H579   H     0.83289   0.19674   0.02892   0.00000  Uiso   1.00
H580   H     0.85731   0.24465   0.04526   0.00000  Uiso   1.00
H581   H     0.84758   0.20246   0.07893   0.00000  Uiso   1.00
H582   H     0.83938   0.10363   0.96832   0.00000  Uiso   1.00
H583   H     0.60914   0.43000   0.38617   0.00000  Uiso   1.00
H584   H     0.80326   0.16712   0.97108   0.00000  Uiso   1.00
H585   H     0.75535   0.14270   0.95476   0.00000  Uiso   1.00
H586   H     0.79753   0.15243   0.92107   0.00000  Uiso   1.00
H587   H     0.65503   0.39562   0.02949   0.00000  Uiso   1.00
H588   H     0.60985   0.45843   0.01690   0.00000  Uiso   1.00
H589   H     0.63203   0.47963   0.06152   0.00000  Uiso   1.00
H590   H     0.60145   0.43209   0.06264   0.00000  Uiso   1.00
H591   H     0.87536   0.17921   0.96897   0.00000  Uiso   1.00
H592   H     0.84031   0.24702   0.98095   0.00000  Uiso   1.00
H593   H     0.83574   0.23191   0.93115   0.00000  Uiso   1.00
H594   H     0.60056   0.45949   0.34202   0.00000  Uiso   1.00
H595   H     0.87440   0.27039   0.94585   0.00000  Uiso   1.00
H596   H     0.59310   0.35040   0.03663   0.00000  Uiso   1.00
H597   H     0.64363   0.30113   0.00288   0.00000  Uiso   1.00
H598   H     0.63307   0.26520   0.04124   0.00000  Uiso   1.00
H599   H     0.65749   0.31498   0.05205   0.00000  Uiso   1.00
H600   H     0.63843   0.41710   0.34305   0.00000  Uiso   1.00
H601   H     0.85249   0.47555   0.58645   0.00000  Uiso   1.00
H602   H     0.82557   0.47284   0.63207   0.00000  Uiso   1.00
H603   H     0.87293   0.02607   0.66083   0.00000  Uiso   1.00
H604   H     0.90148   0.48108   0.64239   0.00000  Uiso   1.00
H605   H     0.96430   0.32218   0.37140   0.00000  Uiso   1.00
H606   H     0.90116   0.02971   0.61548   0.00000  Uiso   1.00
H607   H     0.52444   0.14751   0.41356   0.00000  Uiso   1.00
H608   H     0.52716   0.17444   0.36794   0.00000  Uiso   1.00
H609   H     0.97396   0.12707   0.33917   0.00000  Uiso   1.00
H610   H     0.51892   0.09852   0.35764   0.00000  Uiso   1.00
H611   H     0.97028   0.09886   0.38451   0.00000  Uiso   1.00
H612   H     0.51615   0.32566   0.65528   0.00000  Uiso   1.00
H613   H     0.99727   0.35570   0.61513   0.00000  Uiso   1.00
H614   H     0.57000   0.39086   0.61383   0.00000  Uiso   1.00
H615   H     0.54054   0.39944   0.65798   0.00000  Uiso   1.00
H616   H     0.51587   0.34250   0.32050   0.00000  Uiso   1.00
H617   H     0.58292   0.36156   0.65694   0.00000  Uiso   1.00
H618   H     0.83492   0.48936   0.37995   0.00000  Uiso   1.00
H619   H     0.85457   0.01079   0.42547   0.00000  Uiso   1.00
H620   H     0.90609   0.02013   0.37275   0.00000  Uiso   1.00
H621   H     0.86765   0.04848   0.34414   0.00000  Uiso   1.00
H622   H     0.88669   0.07047   0.38947   0.00000  Uiso   1.00
H623   H     0.63345   0.02115   0.60018   0.00000  Uiso   1.00
H624   H     0.67783   0.03579   0.62846   0.00000  Uiso   1.00
H625   H     0.65801   0.48427   0.67961   0.00000  Uiso   1.00
H626   H     0.61690   0.02219   0.67023   0.00000  Uiso   1.00
H627   H     0.97785   0.38347   0.33005   0.00000  Uiso   1.00
H628   H     0.61238   0.46932   0.65123   0.00000  Uiso   1.00
H629   H     0.72868   0.11632   0.90008   0.00000  Uiso   1.00
H630   H     0.71434   0.07219   0.87132   0.00000  Uiso   1.00
H631   H     0.76597   0.09274   0.82055   0.00000  Uiso   1.00
H632   H     0.72787   0.13363   0.83017   0.00000  Uiso   1.00
H633   H     0.78066   0.13813   0.84937   0.00000  Uiso   1.00
H634   H     0.76064   0.41508   0.12004   0.00000  Uiso   1.00
H635   H     0.73920   0.39543   0.07452   0.00000  Uiso   1.00
H636   H     0.72987   0.34392   0.12725   0.00000  Uiso   1.00
H637   H     0.70152   0.38235   0.15586   0.00000  Uiso   1.00
H638   H     0.53068   0.38795   0.34918   0.00000  Uiso   1.00
H639   H     0.67953   0.36332   0.11053   0.00000  Uiso   1.00
H640   H     0.92434   0.23384   0.84472   0.00000  Uiso   1.00
H641   H     0.89430   0.25273   0.88486   0.00000  Uiso   1.00
H642   H     0.85914   0.17999   0.88618   0.00000  Uiso   1.00
H643   H     0.85056   0.20946   0.84202   0.00000  Uiso   1.00
H644   H     0.88844   0.16707   0.84306   0.00000  Uiso   1.00
H645   H     0.60249   0.22555   0.08644   0.00000  Uiso   1.00
H646   H     0.57556   0.22284   0.13206   0.00000  Uiso   1.00
H647   H     0.62293   0.27606   0.16082   0.00000  Uiso   1.00
H648   H     0.65148   0.23108   0.14238   0.00000  Uiso   1.00
H649   H     0.51064   0.16508   0.62005   0.00000  Uiso   1.00
H650   H     0.65115   0.27970   0.11548   0.00000  Uiso   1.00
H651   H     0.77444   0.39752   0.91356   0.00000  Uiso   1.00
H652   H     0.77716   0.42444   0.86794   0.00000  Uiso   1.00
H653   H     0.72394   0.37707   0.83918   0.00000  Uiso   1.00
H654   H     0.76893   0.34853   0.85762   0.00000  Uiso   1.00
H655   H     0.72030   0.34885   0.88452   0.00000  Uiso   1.00
H656   H     0.76616   0.07566   0.15528   0.00000  Uiso   1.00
H657   H     0.74728   0.10570   0.11514   0.00000  Uiso   1.00
H658   H     0.82002   0.14085   0.11383   0.00000  Uiso   1.00
H659   H     0.79055   0.14944   0.15798   0.00000  Uiso   1.00
H660   H     0.98921   0.14543   0.57453   0.00000  Uiso   1.00
H661   H     0.83293   0.11156   0.15694   0.00000  Uiso   1.00
H662   H     0.58492   0.23936   0.87996   0.00000  Uiso   1.00
H663   H     0.60457   0.26079   0.92548   0.00000  Uiso   1.00
H664   H     0.65609   0.27013   0.87275   0.00000  Uiso   1.00
H665   H     0.61765   0.29848   0.84414   0.00000  Uiso   1.00
H666   H     0.63669   0.32047   0.88947   0.00000  Uiso   1.00
H667   H     0.88367   0.27135   0.09993   0.00000  Uiso   1.00
H668   H     0.92782   0.28570   0.12865   0.00000  Uiso   1.00
H669   H     0.90728   0.23407   0.17945   0.00000  Uiso   1.00
H670   H     0.86643   0.27221   0.16985   0.00000  Uiso   1.00
H671   H     0.97987   0.09391   0.62725   0.00000  Uiso   1.00
H672   H     0.86187   0.21942   0.15066   0.00000  Uiso   1.00
H673   H     0.89961   0.15690   0.46337   0.00000  Uiso   1.00
H674   H     0.94887   0.10637   0.49712   0.00000  Uiso   1.00
H675   H     0.98480   0.11693   0.45877   0.00000  Uiso   1.00
H676   H     0.93503   0.09251   0.44795   0.00000  Uiso   1.00
H677   H     0.57080   0.37463   0.53104   0.00000  Uiso   1.00
H678   H     0.50300   0.40969   0.51905   0.00000  Uiso   1.00
H679   H     0.51809   0.41426   0.56884   0.00000  Uiso   1.00
H680   H     0.97962   0.37560   0.55414   0.00000  Uiso   1.00
H681   H     0.85439   0.09495   0.47051   0.00000  Uiso   1.00
H682   H     0.95152   0.13235   0.65586   0.00000  Uiso   1.00
H683   H     0.79160   0.14014   0.48311   0.00000  Uiso   1.00
H684   H     0.77038   0.11797   0.43849   0.00000  Uiso   1.00
H685   H     0.81793   0.14854   0.43736   0.00000  Uiso   1.00
H686   H     0.64637   0.41061   0.53166   0.00000  Uiso   1.00
H687   H     0.58289   0.44675   0.52898   0.00000  Uiso   1.00
H688   H     0.60735   0.49465   0.54529   0.00000  Uiso   1.00
H689   H     0.59764   0.45246   0.57898   0.00000  Uiso   1.00
H690   H     0.58939   0.35362   0.46833   0.00000  Uiso   1.00
H691   H     0.55327   0.41711   0.47108   0.00000  Uiso   1.00
H692   H     0.50536   0.39268   0.45474   0.00000  Uiso   1.00
N693   N     0.93183   0.15716   0.46032   0.00000  Uiso   1.00
N694   N     0.79305   0.11138   0.04008   0.00000  Uiso   1.00
N695   N     0.57465   0.33809   0.96071   0.00000  Uiso   1.00
N696   N     0.89767   0.19150   0.04084   0.00000  Uiso   1.00
N697   N     0.80850   0.10234   0.95916   0.00000  Uiso   1.00
N698   N     0.66190   0.42535   0.03929   0.00000  Uiso   1.00
N699   N     0.88862   0.20696   0.95992   0.00000  Uiso   1.00
N700   N     0.59284   0.31818   0.03968   0.00000  Uiso   1.00
N701   N     0.54305   0.36137   0.54008   0.00000  Uiso   1.00
N702   N     0.82466   0.08808   0.46071   0.00000  Uiso   1.00
N703   N     0.64768   0.44148   0.54084   0.00000  Uiso   1.00
N704   N     0.55851   0.35232   0.45917   0.00000  Uiso   1.00
N705   N     0.91191   0.17535   0.53929   0.00000  Uiso   1.00
N706   N     0.63863   0.45694   0.45992   0.00000  Uiso   1.00
N707   N     0.84285   0.06817   0.53968   0.00000  Uiso   1.00
N708   N     0.68182   0.40717   0.96032   0.00000  Uiso   1.00
O709   O     0.75000   0.00000   0.25000   0.00000  Uiso   1.00
O710   O     0.75000   0.46539   0.66251   0.00000  Uiso   1.00
O711   O     0.96539   0.25000   0.33749   0.00000  Uiso   1.00
O712   O     0.53462   0.25000   0.66251   0.00000  Uiso   1.00
O713   O     0.50000   0.21539   0.83749   0.00000  Uiso   1.00
O714   O     0.50000   0.28461   0.16251   0.00000  Uiso   1.00
O715   O     0.78462   0.00000   0.83749   0.00000  Uiso   1.00
O716   O     0.71539   0.00000   0.16251   0.00000  Uiso   1.00
O717   O     0.50000   0.28462   0.83749   0.00000  Uiso   1.00
O718   O     0.50000   0.21538   0.16251   0.00000  Uiso   1.00
O719   O     0.71539   0.00000   0.83749   0.00000  Uiso   1.00
O720   O     0.75000   0.00000   0.75000   0.00000  Uiso   1.00
O721   O     0.78462   0.00000   0.16251   0.00000  Uiso   1.00
O722   O     0.70127   0.08332   0.27298   0.00000  Uiso   1.00
O723   O     0.79874   0.41668   0.72702   0.00000  Uiso   1.00
O724   O     0.91668   0.20127   0.27298   0.00000  Uiso   1.00
O725   O     0.58332   0.29873   0.72702   0.00000  Uiso   1.00
O726   O     0.79874   0.41668   0.27298   0.00000  Uiso   1.00
O727   O     0.70127   0.08332   0.72702   0.00000  Uiso   1.00
O728   O     0.58332   0.29873   0.27298   0.00000  Uiso   1.00
O729   O     0.91668   0.20127   0.72702   0.00000  Uiso   1.00
O730   O     0.70127   0.41668   0.72702   0.00000  Uiso   1.00
O731   O     0.50000   0.25000   0.25000   0.00000  Uiso   1.00
O732   O     0.79874   0.08332   0.27298   0.00000  Uiso   1.00
O733   O     0.91668   0.29874   0.72702   0.00000  Uiso   1.00
O734   O     0.58332   0.20127   0.27298   0.00000  Uiso   1.00
O735   O     0.79874   0.08332   0.72702   0.00000  Uiso   1.00
O736   O     0.70127   0.41668   0.27298   0.00000  Uiso   1.00
O737   O     0.58332   0.20127   0.72702   0.00000  Uiso   1.00
O738   O     0.91668   0.29874   0.27298   0.00000  Uiso   1.00
O739   O     0.95127   0.33332   0.77298   0.00000  Uiso   1.00
O740   O     0.54874   0.16668   0.22702   0.00000  Uiso   1.00
O741   O     0.66668   0.45127   0.77298   0.00000  Uiso   1.00
O742   O     0.50000   0.25000   0.75000   0.00000  Uiso   1.00
O743   O     0.83332   0.04874   0.22702   0.00000  Uiso   1.00
O744   O     0.54874   0.16668   0.77298   0.00000  Uiso   1.00
O745   O     0.95127   0.33332   0.22702   0.00000  Uiso   1.00
O746   O     0.83332   0.04874   0.77298   0.00000  Uiso   1.00
O747   O     0.66668   0.45127   0.22702   0.00000  Uiso   1.00
O748   O     0.95127   0.16668   0.22702   0.00000  Uiso   1.00
O749   O     0.54874   0.33332   0.77298   0.00000  Uiso   1.00
O750   O     0.66668   0.04874   0.22702   0.00000  Uiso   1.00
O751   O     0.83332   0.45127   0.77298   0.00000  Uiso   1.00
O752   O     0.54874   0.33332   0.22702   0.00000  Uiso   1.00
O753   O     0.75000   0.46539   0.33749   0.00000  Uiso   1.00
O754   O     0.95127   0.16668   0.77298   0.00000  Uiso   1.00
O755   O     0.83332   0.45127   0.22702   0.00000  Uiso   1.00
O756   O     0.66668   0.04874   0.77298   0.00000  Uiso   1.00
O757   O     0.52632   0.32162   0.39535   0.00000  Uiso   1.00
O758   O     0.95399   0.19234   0.60221   0.00000  Uiso   1.00
O759   O     0.68711   0.45398   0.39790   0.00000  Uiso   1.00
O760   O     0.81863   0.02970   0.60167   0.00000  Uiso   1.00
O761   O     0.97030   0.18137   0.39833   0.00000  Uiso   1.00
O762   O     0.54603   0.31289   0.60210   0.00000  Uiso   1.00
O763   O     0.80766   0.04600   0.39779   0.00000  Uiso   1.00
O764   O     0.75000   0.03462   0.66251   0.00000  Uiso   1.00
O765   O     0.67837   0.47369   0.60465   0.00000  Uiso   1.00
O766   O     0.77632   0.07162   0.89534   0.00000  Uiso   1.00
O767   O     0.70399   0.44234   0.10221   0.00000  Uiso   1.00
O768   O     0.93711   0.20397   0.89790   0.00000  Uiso   1.00
O769   O     0.56863   0.27970   0.10167   0.00000  Uiso   1.00
O770   O     0.72030   0.43137   0.89834   0.00000  Uiso   1.00
O771   O     0.79603   0.06288   0.10210   0.00000  Uiso   1.00
O772   O     0.55766   0.29600   0.89779   0.00000  Uiso   1.00
O773   O     0.92837   0.22370   0.10466   0.00000  Uiso   1.00
O774   O     0.53462   0.25000   0.33749   0.00000  Uiso   1.00
O775   O     0.96539   0.25000   0.66251   0.00000  Uiso   1.00
O776   O     0.75000   0.03462   0.33749   0.00000  Uiso   1.00
Zn777  Zn    0.70053   0.00000   0.21730   0.00000  Uiso   1.00
Zn778  Zn    0.54948   0.25000   0.28270   0.00000  Uiso   1.00
Zn779  Zn    0.75000   0.45053   0.71730   0.00000  Uiso   1.00
Zn780  Zn    0.75000   0.04948   0.28270   0.00000  Uiso   1.00
Zn781  Zn    0.54948   0.25000   0.71730   0.00000  Uiso   1.00
Zn782  Zn    0.95053   0.25000   0.28270   0.00000  Uiso   1.00
Zn783  Zn    0.75000   0.04948   0.71730   0.00000  Uiso   1.00
Zn784  Zn    0.75000   0.45053   0.28270   0.00000  Uiso   1.00
Zn785  Zn    0.79948   0.00000   0.78270   0.00000  Uiso   1.00
Zn786  Zn    0.50000   0.20052   0.21730   0.00000  Uiso   1.00
Zn787  Zn    0.50000   0.29948   0.78270   0.00000  Uiso   1.00
Zn788  Zn    0.79948   0.00000   0.21730   0.00000  Uiso   1.00
Zn789  Zn    0.70053   0.00000   0.78270   0.00000  Uiso   1.00
Zn790  Zn    0.50000   0.29947   0.21730   0.00000  Uiso   1.00
Zn791  Zn    0.50000   0.20052   0.78270   0.00000  Uiso   1.00
Zn792  Zn    0.95053   0.25000   0.71730   0.00000  Uiso   1.00
C793   C     0.24992   0.50024   0.35594   0.00000  Uiso   1.00
C794   C     0.33004   0.91996   0.75000   0.00000  Uiso   1.00
C795   C     0.42751   0.71692   0.02087   0.00000  Uiso   1.00
C796   C     0.28308   0.57249   0.97913   0.00000  Uiso   1.00
C797   C     0.19508   0.94713   0.02004   0.00000  Uiso   1.00
C798   C     0.42602   0.71903   0.97987   0.00000  Uiso   1.00
C799   C     0.05890   0.79798   0.02000   0.00000  Uiso   1.00
C800   C     0.49115   0.84297   0.37913   0.00000  Uiso   1.00
C801   C     0.00480   0.86567   0.34242   0.00000  Uiso   1.00
C802   C     0.48113   0.65717   0.60413   0.00000  Uiso   1.00
C803   C     0.45910   0.62198   0.62582   0.00000  Uiso   1.00
C804   C     0.15886   0.97424   0.37197   0.00000  Uiso   1.00
C805   C     0.41998   0.66994   0.24996   0.00000  Uiso   1.00
C806   C     0.12456   0.94333   0.36015   0.00000  Uiso   1.00
C807   C     0.34293   0.99416   0.61239   0.00000  Uiso   1.00
C808   C     0.38208   0.50872   0.63407   0.00000  Uiso   1.00
C809   C     0.00584   0.65708   0.38762   0.00000  Uiso   1.00
C810   C     0.49128   0.61792   0.36593   0.00000  Uiso   1.00
C811   C     0.02577   0.84114   0.62803   0.00000  Uiso   1.00
C812   C     0.05668   0.87544   0.63985   0.00000  Uiso   1.00
C813   C     0.34283   0.51886   0.39587   0.00000  Uiso   1.00
C814   C     0.37803   0.54090   0.37418   0.00000  Uiso   1.00
C815   C     0.15706   0.50886   0.62093   0.00000  Uiso   1.00
C816   C     0.08000   0.83007   0.75001   0.00000  Uiso   1.00
C817   C     0.13466   0.99525   0.65780   0.00000  Uiso   1.00
C818   C     0.24115   0.59299   0.87915   0.00000  Uiso   1.00
C819   C     0.25483   0.61583   0.84253   0.00000  Uiso   1.00
C820   C     0.23113   0.90717   0.10413   0.00000  Uiso   1.00
C821   C     0.20910   0.87198   0.12582   0.00000  Uiso   1.00
C822   C     0.40886   0.72422   0.87197   0.00000  Uiso   1.00
C823   C     0.37456   0.69331   0.86016   0.00000  Uiso   1.00
C824   C     0.09292   0.74416   0.11238   0.00000  Uiso   1.00
C825   C     0.13208   0.75872   0.13406   0.00000  Uiso   1.00
C826   C     0.25584   0.90708   0.88762   0.00000  Uiso   1.00
C827   C     0.33001   0.91999   0.25000   0.00000  Uiso   1.00
C828   C     0.24129   0.86792   0.86594   0.00000  Uiso   1.00
C829   C     0.27578   0.59114   0.12803   0.00000  Uiso   1.00
C830   C     0.30670   0.62543   0.13984   0.00000  Uiso   1.00
C831   C     0.09283   0.76887   0.89587   0.00000  Uiso   1.00
C832   C     0.12802   0.79090   0.87418   0.00000  Uiso   1.00
C833   C     0.40701   0.75888   0.12085   0.00000  Uiso   1.00
C834   C     0.38419   0.74523   0.15748   0.00000  Uiso   1.00
C835   C     0.45106   0.61630   0.46639   0.00000  Uiso   1.00
C836   C     0.00925   0.89155   0.54572   0.00000  Uiso   1.00
C837   C     0.29970   0.62556   0.45469   0.00000  Uiso   1.00
C838   C     0.17000   0.58000   0.75000   0.00000  Uiso   1.00
C839   C     0.10696   0.95998   0.54880   0.00000  Uiso   1.00
C840   C     0.04003   0.89307   0.45123   0.00000  Uiso   1.00
C841   C     0.37443   0.70032   0.54531   0.00000  Uiso   1.00
C842   C     0.10846   0.99074   0.45429   0.00000  Uiso   1.00
C843   C     0.38371   0.54893   0.53361   0.00000  Uiso   1.00
C844   C     0.20105   0.86631   0.96639   0.00000  Uiso   1.00
C845   C     0.25925   0.64155   0.04573   0.00000  Uiso   1.00
C846   C     0.04968   0.87557   0.95469   0.00000  Uiso   1.00
C847   C     0.35692   0.70999   0.04876   0.00000  Uiso   1.00
C848   C     0.29001   0.64308   0.95124   0.00000  Uiso   1.00
C849   C     0.08006   0.83002   0.25004   0.00000  Uiso   1.00
C850   C     0.12443   0.95032   0.04531   0.00000  Uiso   1.00
C851   C     0.35845   0.74075   0.95427   0.00000  Uiso   1.00
C852   C     0.13370   0.79894   0.03361   0.00000  Uiso   1.00
C853   C     0.41993   0.67000   0.74999   0.00000  Uiso   1.00
C854   C     0.16998   0.91994   0.74996   0.00000  Uiso   1.00
C855   C     0.33000   0.58007   0.25001   0.00000  Uiso   1.00
C856   C     0.41996   0.83004   0.75000   0.00000  Uiso   1.00
C857   C     0.25027   0.99996   0.64416   0.00000  Uiso   1.00
C858   C     0.08004   0.66996   0.25000   0.00000  Uiso   1.00
C859   C     0.33006   0.58002   0.75004   0.00000  Uiso   1.00
C860   C     0.16993   0.92000   0.24999   0.00000  Uiso   1.00
C861   C     0.08001   0.66999   0.75000   0.00000  Uiso   1.00
C862   C     0.42000   0.83000   0.25000   0.00000  Uiso   1.00
C863   C     0.13827   0.88838   0.24999   0.00000  Uiso   1.00
C864   C     0.36169   0.61167   0.75007   0.00000  Uiso   1.00
C865   C     0.11167   0.63833   0.25000   0.00000  Uiso   1.00
C866   C     0.38833   0.86167   0.75000   0.00000  Uiso   1.00
C867   C     0.36162   0.61173   0.25001   0.00000  Uiso   1.00
C868   C     0.00004   0.74973   0.35584   0.00000  Uiso   1.00
C869   C     0.13833   0.88831   0.74993   0.00000  Uiso   1.00
C870   C     0.38834   0.86166   0.25000   0.00000  Uiso   1.00
C871   C     0.11167   0.63833   0.75000   0.00000  Uiso   1.00
C872   C     0.13834   0.61166   0.75000   0.00000  Uiso   1.00
C873   C     0.36167   0.88833   0.25000   0.00000  Uiso   1.00
C874   C     0.11162   0.86173   0.75001   0.00000  Uiso   1.00
C875   C     0.38833   0.63831   0.24993   0.00000  Uiso   1.00
C876   C     0.36167   0.88833   0.75000   0.00000  Uiso   1.00
C877   C     0.13833   0.61167   0.25000   0.00000  Uiso   1.00
C878   C     0.38827   0.63838   0.74999   0.00000  Uiso   1.00
C879   C     0.49976   0.75008   0.64407   0.00000  Uiso   1.00
C880   C     0.11169   0.86167   0.25007   0.00000  Uiso   1.00
C881   C     0.01297   0.78769   0.41731   0.00000  Uiso   1.00
C882   C     0.47358   0.72412   0.58157   0.00000  Uiso   1.00
C883   C     0.21253   0.98274   0.41760   0.00000  Uiso   1.00
C884   C     0.28323   0.51663   0.58129   0.00000  Uiso   1.00
C885   C     0.48337   0.71678   0.41871   0.00000  Uiso   1.00
C886   C     0.01726   0.78748   0.58240   0.00000  Uiso   1.00
C887   C     0.27589   0.52641   0.41843   0.00000  Uiso   1.00
C888   C     0.21232   0.98703   0.58269   0.00000  Uiso   1.00
C889   C     0.26296   0.53769   0.91731   0.00000  Uiso   1.00
C890   C     0.49992   0.75024   0.85594   0.00000  Uiso   1.00
C891   C     0.22358   0.97412   0.08157   0.00000  Uiso   1.00
C892   C     0.46252   0.73274   0.91760   0.00000  Uiso   1.00
C893   C     0.03322   0.76663   0.08129   0.00000  Uiso   1.00
C894   C     0.23337   0.96678   0.91871   0.00000  Uiso   1.00
C895   C     0.26726   0.53748   0.08240   0.00000  Uiso   1.00
C896   C     0.02588   0.77642   0.91843   0.00000  Uiso   1.00
C897   C     0.46231   0.73704   0.08269   0.00000  Uiso   1.00
C898   C     0.49977   0.75098   0.39819   0.00000  Uiso   1.00
C899   C     0.49792   0.75368   0.60182   0.00000  Uiso   1.00
C900   C     0.24632   0.50208   0.39818   0.00000  Uiso   1.00
C901   C     0.00027   0.74996   0.14416   0.00000  Uiso   1.00
C902   C     0.24902   0.50023   0.60182   0.00000  Uiso   1.00
C903   C     0.24977   0.50098   0.89819   0.00000  Uiso   1.00
C904   C     0.24792   0.50368   0.10182   0.00000  Uiso   1.00
C905   C     0.49632   0.75208   0.89818   0.00000  Uiso   1.00
C906   C     0.49902   0.75023   0.10181   0.00000  Uiso   1.00
C907   C     0.47670   0.72061   0.45923   0.00000  Uiso   1.00
C908   C     0.01372   0.78993   0.54116   0.00000  Uiso   1.00
C909   C     0.27378   0.52988   0.45920   0.00000  Uiso   1.00
C910   C     0.21114   0.98605   0.54155   0.00000  Uiso   1.00
C911   C     0.01395   0.78886   0.45845   0.00000  Uiso   1.00
C912   C     0.25004   0.99973   0.85584   0.00000  Uiso   1.00
C913   C     0.47011   0.72623   0.54080   0.00000  Uiso   1.00
C914   C     0.21007   0.98628   0.45884   0.00000  Uiso   1.00
C915   C     0.27939   0.52330   0.54078   0.00000  Uiso   1.00
C916   C     0.22669   0.97062   0.95923   0.00000  Uiso   1.00
C917   C     0.26371   0.53994   0.04116   0.00000  Uiso   1.00
C918   C     0.02377   0.77989   0.95920   0.00000  Uiso   1.00
C919   C     0.46113   0.73606   0.04155   0.00000  Uiso   1.00
C920   C     0.26394   0.53887   0.95845   0.00000  Uiso   1.00
C921   C     0.22011   0.97623   0.04080   0.00000  Uiso   1.00
C922   C     0.46007   0.73629   0.95884   0.00000  Uiso   1.00
C923   C     0.24976   0.50008   0.14407   0.00000  Uiso   1.00
C924   C     0.02939   0.77331   0.04078   0.00000  Uiso   1.00
C925   C     0.49415   0.75587   0.47933   0.00000  Uiso   1.00
C926   C     0.49281   0.75732   0.52043   0.00000  Uiso   1.00
C927   C     0.24269   0.50719   0.47957   0.00000  Uiso   1.00
C928   C     0.24414   0.50585   0.52067   0.00000  Uiso   1.00
C929   C     0.24414   0.50587   0.97933   0.00000  Uiso   1.00
C930   C     0.24280   0.50732   0.02043   0.00000  Uiso   1.00
C931   C     0.49268   0.75720   0.97957   0.00000  Uiso   1.00
C932   C     0.49413   0.75586   0.02067   0.00000  Uiso   1.00
C933   C     0.45203   0.69110   0.48000   0.00000  Uiso   1.00
C934   C     0.16996   0.58004   0.25000   0.00000  Uiso   1.00
C935   C     0.03097   0.82397   0.52013   0.00000  Uiso   1.00
C936   C     0.30288   0.55490   0.47996   0.00000  Uiso   1.00
C937   C     0.17753   0.96690   0.52087   0.00000  Uiso   1.00
C938   C     0.03309   0.82248   0.47913   0.00000  Uiso   1.00
C939   C     0.44509   0.69713   0.52004   0.00000  Uiso   1.00
C940   C     0.17604   0.96902   0.47987   0.00000  Uiso   1.00
C941   C     0.30891   0.54797   0.52000   0.00000  Uiso   1.00
C942   C     0.20202   0.94110   0.98000   0.00000  Uiso   1.00
C943   C     0.28097   0.57398   0.02013   0.00000  Uiso   1.00
C944   C     0.05287   0.80491   0.97996   0.00000  Uiso   1.00
H945   H     0.47874   0.86640   0.40000   0.00000  Uiso   1.00
H946   H     0.42952   0.61332   0.61053   0.00000  Uiso   1.00
H947   H     0.04755   0.90241   0.42106   0.00000  Uiso   1.00
H948   H     0.40503   0.64562   0.52949   0.00000  Uiso   1.00
H949   H     0.35986   0.70842   0.51689   0.00000  Uiso   1.00
H950   H     0.38203   0.72963   0.56151   0.00000  Uiso   1.00
H951   H     0.35145   0.68208   0.56264   0.00000  Uiso   1.00
H952   H     0.12538   0.92919   0.46896   0.00000  Uiso   1.00
H953   H     0.09031   0.99698   0.48097   0.00000  Uiso   1.00
H954   H     0.08574   0.98190   0.43117   0.00000  Uiso   1.00
H955   H     0.12440   0.52038   0.44589   0.00000  Uiso   1.00
H956   H     0.34311   0.60039   0.53663   0.00000  Uiso   1.00
H957   H     0.17434   0.98387   0.34473   0.00000  Uiso   1.00
H958   H     0.39364   0.55112   0.50288   0.00000  Uiso   1.00
H959   H     0.38307   0.51519   0.54124   0.00000  Uiso   1.00
H960   H     0.40750   0.56497   0.55205   0.00000  Uiso   1.00
H961   H     0.14960   0.90691   0.96337   0.00000  Uiso   1.00
H962   H     0.19886   0.85637   0.99712   0.00000  Uiso   1.00
H963   H     0.23479   0.86694   0.95877   0.00000  Uiso   1.00
H964   H     0.18502   0.84251   0.94795   0.00000  Uiso   1.00
H965   H     0.32080   0.62464   0.03104   0.00000  Uiso   1.00
H966   H     0.25299   0.65970   0.01906   0.00000  Uiso   1.00
H967   H     0.26809   0.66426   0.06886   0.00000  Uiso   1.00
H968   H     0.14430   0.50274   0.38489   0.00000  Uiso   1.00
H969   H     0.22962   0.62560   0.05415   0.00000  Uiso   1.00
H970   H     0.10438   0.84497   0.97051   0.00000  Uiso   1.00
H971   H     0.04158   0.89014   0.98311   0.00000  Uiso   1.00
H972   H     0.02038   0.86797   0.93848   0.00000  Uiso   1.00
H973   H     0.06792   0.89855   0.93736   0.00000  Uiso   1.00
H974   H     0.39637   0.66062   0.03168   0.00000  Uiso   1.00
H975   H     0.33289   0.69674   0.02892   0.00000  Uiso   1.00
H976   H     0.35731   0.74465   0.04526   0.00000  Uiso   1.00
H977   H     0.34758   0.70246   0.07893   0.00000  Uiso   1.00
H978   H     0.33938   0.60363   0.96832   0.00000  Uiso   1.00
H979   H     0.10914   0.93000   0.38617   0.00000  Uiso   1.00
H980   H     0.30326   0.66712   0.97108   0.00000  Uiso   1.00
H981   H     0.25535   0.64270   0.95476   0.00000  Uiso   1.00
H982   H     0.29753   0.65243   0.92107   0.00000  Uiso   1.00
H983   H     0.15503   0.89562   0.02949   0.00000  Uiso   1.00
H984   H     0.10985   0.95843   0.01690   0.00000  Uiso   1.00
H985   H     0.13203   0.97963   0.06152   0.00000  Uiso   1.00
H986   H     0.10145   0.93209   0.06264   0.00000  Uiso   1.00
H987   H     0.37536   0.67921   0.96897   0.00000  Uiso   1.00
H988   H     0.34031   0.74702   0.98095   0.00000  Uiso   1.00
H989   H     0.33574   0.73191   0.93115   0.00000  Uiso   1.00
H990   H     0.10056   0.95949   0.34202   0.00000  Uiso   1.00
H991   H     0.37440   0.77039   0.94585   0.00000  Uiso   1.00
H992   H     0.09310   0.85040   0.03663   0.00000  Uiso   1.00
H993   H     0.14363   0.80113   0.00288   0.00000  Uiso   1.00
H994   H     0.13307   0.76520   0.04124   0.00000  Uiso   1.00
H995   H     0.15749   0.81498   0.05205   0.00000  Uiso   1.00
H996   H     0.13843   0.91710   0.34305   0.00000  Uiso   1.00
H997   H     0.35249   0.97555   0.58645   0.00000  Uiso   1.00
H998   H     0.32557   0.97284   0.63207   0.00000  Uiso   1.00
H999   H     0.37293   0.52607   0.66083   0.00000  Uiso   1.00
H1000  H     0.40148   0.98108   0.64239   0.00000  Uiso   1.00
H1001  H     0.46430   0.82218   0.37140   0.00000  Uiso   1.00
H1002  H     0.40116   0.52971   0.61548   0.00000  Uiso   1.00
H1003  H     0.02444   0.64751   0.41356   0.00000  Uiso   1.00
H1004  H     0.02716   0.67444   0.36794   0.00000  Uiso   1.00
H1005  H     0.47396   0.62707   0.33917   0.00000  Uiso   1.00
H1006  H     0.01892   0.59852   0.35764   0.00000  Uiso   1.00
H1007  H     0.47028   0.59886   0.38451   0.00000  Uiso   1.00
H1008  H     0.01615   0.82566   0.65528   0.00000  Uiso   1.00
H1009  H     0.49727   0.85570   0.61513   0.00000  Uiso   1.00
H1010  H     0.07000   0.89086   0.61383   0.00000  Uiso   1.00
H1011  H     0.04054   0.89944   0.65798   0.00000  Uiso   1.00
H1012  H     0.01587   0.84250   0.32050   0.00000  Uiso   1.00
H1013  H     0.08292   0.86156   0.65694   0.00000  Uiso   1.00
H1014  H     0.33492   0.98936   0.37995   0.00000  Uiso   1.00
H1015  H     0.35457   0.51079   0.42547   0.00000  Uiso   1.00
H1016  H     0.40609   0.52013   0.37275   0.00000  Uiso   1.00
H1017  H     0.36765   0.54848   0.34414   0.00000  Uiso   1.00
H1018  H     0.38669   0.57047   0.38947   0.00000  Uiso   1.00
H1019  H     0.13345   0.52115   0.60018   0.00000  Uiso   1.00
H1020  H     0.17783   0.53579   0.62846   0.00000  Uiso   1.00
H1021  H     0.15801   0.98427   0.67961   0.00000  Uiso   1.00
H1022  H     0.11690   0.52219   0.67023   0.00000  Uiso   1.00
H1023  H     0.47785   0.88347   0.33005   0.00000  Uiso   1.00
H1024  H     0.11238   0.96932   0.65123   0.00000  Uiso   1.00
H1025  H     0.22868   0.61632   0.90008   0.00000  Uiso   1.00
H1026  H     0.21434   0.57219   0.87132   0.00000  Uiso   1.00
H1027  H     0.26597   0.59274   0.82055   0.00000  Uiso   1.00
H1028  H     0.22787   0.63363   0.83017   0.00000  Uiso   1.00
H1029  H     0.28066   0.63813   0.84937   0.00000  Uiso   1.00
H1030  H     0.26064   0.91508   0.12004   0.00000  Uiso   1.00
H1031  H     0.23920   0.89543   0.07452   0.00000  Uiso   1.00
H1032  H     0.22987   0.84392   0.12725   0.00000  Uiso   1.00
H1033  H     0.20152   0.88235   0.15586   0.00000  Uiso   1.00
H1034  H     0.03068   0.88795   0.34918   0.00000  Uiso   1.00
H1035  H     0.17953   0.86332   0.11053   0.00000  Uiso   1.00
H1036  H     0.42434   0.73384   0.84472   0.00000  Uiso   1.00
H1037  H     0.39430   0.75273   0.88486   0.00000  Uiso   1.00
H1038  H     0.35914   0.67999   0.88618   0.00000  Uiso   1.00
H1039  H     0.35056   0.70946   0.84202   0.00000  Uiso   1.00
H1040  H     0.38844   0.66707   0.84306   0.00000  Uiso   1.00
H1041  H     0.10249   0.72555   0.08644   0.00000  Uiso   1.00
H1042  H     0.07556   0.72284   0.13206   0.00000  Uiso   1.00
H1043  H     0.12293   0.77606   0.16082   0.00000  Uiso   1.00
H1044  H     0.15148   0.73108   0.14238   0.00000  Uiso   1.00
H1045  H     0.01064   0.66508   0.62005   0.00000  Uiso   1.00
H1046  H     0.15115   0.77970   0.11548   0.00000  Uiso   1.00
H1047  H     0.27444   0.89752   0.91356   0.00000  Uiso   1.00
H1048  H     0.27716   0.92444   0.86794   0.00000  Uiso   1.00
H1049  H     0.22394   0.87707   0.83918   0.00000  Uiso   1.00
H1050  H     0.26893   0.84853   0.85762   0.00000  Uiso   1.00
H1051  H     0.22030   0.84885   0.88452   0.00000  Uiso   1.00
H1052  H     0.26616   0.57566   0.15528   0.00000  Uiso   1.00
H1053  H     0.24728   0.60570   0.11514   0.00000  Uiso   1.00
H1054  H     0.32002   0.64085   0.11383   0.00000  Uiso   1.00
H1055  H     0.29055   0.64944   0.15798   0.00000  Uiso   1.00
H1056  H     0.48921   0.64543   0.57453   0.00000  Uiso   1.00
H1057  H     0.33293   0.61156   0.15694   0.00000  Uiso   1.00
H1058  H     0.08492   0.73936   0.87996   0.00000  Uiso   1.00
H1059  H     0.10457   0.76079   0.92548   0.00000  Uiso   1.00
H1060  H     0.15609   0.77013   0.87275   0.00000  Uiso   1.00
H1061  H     0.11765   0.79848   0.84414   0.00000  Uiso   1.00
H1062  H     0.13669   0.82047   0.88947   0.00000  Uiso   1.00
H1063  H     0.38367   0.77135   0.09993   0.00000  Uiso   1.00
H1064  H     0.42782   0.78570   0.12865   0.00000  Uiso   1.00
H1065  H     0.40728   0.73407   0.17945   0.00000  Uiso   1.00
H1066  H     0.36643   0.77221   0.16985   0.00000  Uiso   1.00
H1067  H     0.47987   0.59391   0.62725   0.00000  Uiso   1.00
H1068  H     0.36187   0.71942   0.15066   0.00000  Uiso   1.00
H1069  H     0.39961   0.65690   0.46337   0.00000  Uiso   1.00
H1070  H     0.44887   0.60637   0.49712   0.00000  Uiso   1.00
H1071  H     0.48480   0.61693   0.45877   0.00000  Uiso   1.00
H1072  H     0.43503   0.59251   0.44795   0.00000  Uiso   1.00
H1073  H     0.07080   0.87463   0.53104   0.00000  Uiso   1.00
H1074  H     0.00300   0.90969   0.51905   0.00000  Uiso   1.00
H1075  H     0.01809   0.91426   0.56884   0.00000  Uiso   1.00
H1076  H     0.47962   0.87560   0.55414   0.00000  Uiso   1.00
H1077  H     0.35439   0.59495   0.47051   0.00000  Uiso   1.00
H1078  H     0.45152   0.63235   0.65586   0.00000  Uiso   1.00
H1079  H     0.29160   0.64014   0.48311   0.00000  Uiso   1.00
H1080  H     0.27038   0.61797   0.43849   0.00000  Uiso   1.00
H1081  H     0.31793   0.64854   0.43736   0.00000  Uiso   1.00
H1082  H     0.14637   0.91061   0.53166   0.00000  Uiso   1.00
H1083  H     0.08289   0.94675   0.52898   0.00000  Uiso   1.00
H1084  H     0.10735   0.99465   0.54529   0.00000  Uiso   1.00
H1085  H     0.09764   0.95246   0.57898   0.00000  Uiso   1.00
H1086  H     0.08939   0.85362   0.46833   0.00000  Uiso   1.00
H1087  H     0.05327   0.91711   0.47108   0.00000  Uiso   1.00
H1088  H     0.00536   0.89268   0.45474   0.00000  Uiso   1.00
N1089  N     0.43183   0.65716   0.46032   0.00000  Uiso   1.00
N1090  N     0.29305   0.61138   0.04008   0.00000  Uiso   1.00
N1091  N     0.07465   0.83809   0.96071   0.00000  Uiso   1.00
N1092  N     0.39767   0.69150   0.04084   0.00000  Uiso   1.00
N1093  N     0.30850   0.60234   0.95916   0.00000  Uiso   1.00
N1094  N     0.16190   0.92535   0.03929   0.00000  Uiso   1.00
N1095  N     0.38862   0.70696   0.95992   0.00000  Uiso   1.00
N1096  N     0.09284   0.81818   0.03968   0.00000  Uiso   1.00
N1097  N     0.04305   0.86137   0.54008   0.00000  Uiso   1.00
N1098  N     0.32466   0.58808   0.46071   0.00000  Uiso   1.00
N1099  N     0.14768   0.94148   0.54084   0.00000  Uiso   1.00
N1100  N     0.05851   0.85232   0.45917   0.00000  Uiso   1.00
N1101  N     0.41191   0.67535   0.53929   0.00000  Uiso   1.00
N1102  N     0.13863   0.95694   0.45992   0.00000  Uiso   1.00
N1103  N     0.34285   0.56817   0.53968   0.00000  Uiso   1.00
N1104  N     0.18182   0.90717   0.96032   0.00000  Uiso   1.00
O1105  O     0.25000   0.50000   0.25000   0.00000  Uiso   1.00
O1106  O     0.25000   0.96539   0.66251   0.00000  Uiso   1.00
O1107  O     0.46539   0.75000   0.33749   0.00000  Uiso   1.00
O1108  O     0.03462   0.75000   0.66251   0.00000  Uiso   1.00
O1109  O     0.00000   0.71539   0.83749   0.00000  Uiso   1.00
O1110  O     0.00000   0.78461   0.16251   0.00000  Uiso   1.00
O1111  O     0.28462   0.50000   0.83749   0.00000  Uiso   1.00
O1112  O     0.21539   0.50000   0.16251   0.00000  Uiso   1.00
O1113  O     0.00000   0.78462   0.83749   0.00000  Uiso   1.00
O1114  O     0.00000   0.71538   0.16251   0.00000  Uiso   1.00
O1115  O     0.21539   0.50000   0.83749   0.00000  Uiso   1.00
O1116  O     0.25000   0.50000   0.75000   0.00000  Uiso   1.00
O1117  O     0.28462   0.50000   0.16251   0.00000  Uiso   1.00
O1118  O     0.20127   0.58332   0.27298   0.00000  Uiso   1.00
O1119  O     0.29874   0.91668   0.72702   0.00000  Uiso   1.00
O1120  O     0.41668   0.70127   0.27298   0.00000  Uiso   1.00
O1121  O     0.08332   0.79873   0.72702   0.00000  Uiso   1.00
O1122  O     0.29874   0.91668   0.27298   0.00000  Uiso   1.00
O1123  O     0.20127   0.58332   0.72702   0.00000  Uiso   1.00
O1124  O     0.08332   0.79873   0.27298   0.00000  Uiso   1.00
O1125  O     0.41668   0.70127   0.72702   0.00000  Uiso   1.00
O1126  O     0.20127   0.91668   0.72702   0.00000  Uiso   1.00
O1127  O     0.00000   0.75000   0.25000   0.00000  Uiso   1.00
O1128  O     0.29874   0.58332   0.27298   0.00000  Uiso   1.00
O1129  O     0.41668   0.79874   0.72702   0.00000  Uiso   1.00
O1130  O     0.08332   0.70127   0.27298   0.00000  Uiso   1.00
O1131  O     0.29874   0.58332   0.72702   0.00000  Uiso   1.00
O1132  O     0.20127   0.91668   0.27298   0.00000  Uiso   1.00
O1133  O     0.08332   0.70127   0.72702   0.00000  Uiso   1.00
O1134  O     0.41668   0.79874   0.27298   0.00000  Uiso   1.00
O1135  O     0.45127   0.83332   0.77298   0.00000  Uiso   1.00
O1136  O     0.04874   0.66668   0.22702   0.00000  Uiso   1.00
O1137  O     0.16668   0.95127   0.77298   0.00000  Uiso   1.00
O1138  O     0.00000   0.75000   0.75000   0.00000  Uiso   1.00
O1139  O     0.33332   0.54874   0.22702   0.00000  Uiso   1.00
O1140  O     0.04874   0.66668   0.77298   0.00000  Uiso   1.00
O1141  O     0.45127   0.83332   0.22702   0.00000  Uiso   1.00
O1142  O     0.33332   0.54874   0.77298   0.00000  Uiso   1.00
O1143  O     0.16668   0.95127   0.22702   0.00000  Uiso   1.00
O1144  O     0.45127   0.66668   0.22702   0.00000  Uiso   1.00
O1145  O     0.04874   0.83332   0.77298   0.00000  Uiso   1.00
O1146  O     0.16668   0.54874   0.22702   0.00000  Uiso   1.00
O1147  O     0.33332   0.95127   0.77298   0.00000  Uiso   1.00
O1148  O     0.04874   0.83332   0.22702   0.00000  Uiso   1.00
O1149  O     0.25000   0.96539   0.33749   0.00000  Uiso   1.00
O1150  O     0.45127   0.66668   0.77298   0.00000  Uiso   1.00
O1151  O     0.33332   0.95127   0.22702   0.00000  Uiso   1.00
O1152  O     0.16668   0.54874   0.77298   0.00000  Uiso   1.00
O1153  O     0.02632   0.82162   0.39535   0.00000  Uiso   1.00
O1154  O     0.45399   0.69234   0.60221   0.00000  Uiso   1.00
O1155  O     0.18711   0.95398   0.39790   0.00000  Uiso   1.00
O1156  O     0.31863   0.52970   0.60167   0.00000  Uiso   1.00
O1157  O     0.47030   0.68137   0.39833   0.00000  Uiso   1.00
O1158  O     0.04603   0.81289   0.60210   0.00000  Uiso   1.00
O1159  O     0.30766   0.54600   0.39779   0.00000  Uiso   1.00
O1160  O     0.25000   0.53462   0.66251   0.00000  Uiso   1.00
O1161  O     0.17837   0.97369   0.60465   0.00000  Uiso   1.00
O1162  O     0.27632   0.57162   0.89534   0.00000  Uiso   1.00
O1163  O     0.20399   0.94234   0.10221   0.00000  Uiso   1.00
O1164  O     0.43711   0.70397   0.89790   0.00000  Uiso   1.00
O1165  O     0.06863   0.77970   0.10167   0.00000  Uiso   1.00
O1166  O     0.22030   0.93137   0.89834   0.00000  Uiso   1.00
O1167  O     0.29603   0.56288   0.10210   0.00000  Uiso   1.00
O1168  O     0.05766   0.79600   0.89779   0.00000  Uiso   1.00
O1169  O     0.42837   0.72370   0.10466   0.00000  Uiso   1.00
O1170  O     0.03462   0.75000   0.33749   0.00000  Uiso   1.00
O1171  O     0.46539   0.75000   0.66251   0.00000  Uiso   1.00
O1172  O     0.25000   0.53462   0.33749   0.00000  Uiso   1.00
Zn1173 Zn    0.20053   0.50000   0.21730   0.00000  Uiso   1.00
Zn1174 Zn    0.04948   0.75000   0.28270   0.00000  Uiso   1.00
Zn1175 Zn    0.25000   0.95053   0.71730   0.00000  Uiso   1.00
Zn1176 Zn    0.25000   0.54948   0.28270   0.00000  Uiso   1.00
Zn1177 Zn    0.04948   0.75000   0.71730   0.00000  Uiso   1.00
Zn1178 Zn    0.45053   0.75000   0.28270   0.00000  Uiso   1.00
Zn1179 Zn    0.25000   0.54948   0.71730   0.00000  Uiso   1.00
Zn1180 Zn    0.25000   0.95053   0.28270   0.00000  Uiso   1.00
Zn1181 Zn    0.29948   0.50000   0.78270   0.00000  Uiso   1.00
Zn1182 Zn    0.00000   0.70052   0.21730   0.00000  Uiso   1.00
Zn1183 Zn    0.00000   0.79948   0.78270   0.00000  Uiso   1.00
Zn1184 Zn    0.29948   0.50000   0.21730   0.00000  Uiso   1.00
Zn1185 Zn    0.20053   0.50000   0.78270   0.00000  Uiso   1.00
Zn1186 Zn    0.00000   0.79947   0.21730   0.00000  Uiso   1.00
Zn1187 Zn    0.00000   0.70052   0.78270   0.00000  Uiso   1.00
Zn1188 Zn    0.45053   0.75000   0.71730   0.00000  Uiso   1.00
C1189  C     0.74992   0.50024   0.35594   0.00000  Uiso   1.00
C1190  C     0.83004   0.91996   0.75000   0.00000  Uiso   1.00
C1191  C     0.92751   0.71692   0.02087   0.00000  Uiso   1.00
C1192  C     0.78308   0.57249   0.97913   0.00000  Uiso   1.00
C1193  C     0.69508   0.94713   0.02004   0.00000  Uiso   1.00
C1194  C     0.92602   0.71903   0.97987   0.00000  Uiso   1.00
C1195  C     0.55890   0.79798   0.02000   0.00000  Uiso   1.00
C1196  C     0.99115   0.84297   0.37913   0.00000  Uiso   1.00
C1197  C     0.50480   0.86567   0.34242   0.00000  Uiso   1.00
C1198  C     0.98113   0.65717   0.60413   0.00000  Uiso   1.00
C1199  C     0.95910   0.62198   0.62582   0.00000  Uiso   1.00
C1200  C     0.65886   0.97424   0.37197   0.00000  Uiso   1.00
C1201  C     0.91998   0.66994   0.24996   0.00000  Uiso   1.00
C1202  C     0.62456   0.94333   0.36015   0.00000  Uiso   1.00
C1203  C     0.84293   0.99416   0.61239   0.00000  Uiso   1.00
C1204  C     0.88208   0.50872   0.63407   0.00000  Uiso   1.00
C1205  C     0.50584   0.65708   0.38762   0.00000  Uiso   1.00
C1206  C     0.99128   0.61792   0.36593   0.00000  Uiso   1.00
C1207  C     0.52577   0.84114   0.62803   0.00000  Uiso   1.00
C1208  C     0.55668   0.87544   0.63985   0.00000  Uiso   1.00
C1209  C     0.84283   0.51886   0.39587   0.00000  Uiso   1.00
C1210  C     0.87803   0.54090   0.37418   0.00000  Uiso   1.00
C1211  C     0.65706   0.50886   0.62093   0.00000  Uiso   1.00
C1212  C     0.58000   0.83007   0.75001   0.00000  Uiso   1.00
C1213  C     0.63466   0.99525   0.65780   0.00000  Uiso   1.00
C1214  C     0.74115   0.59299   0.87915   0.00000  Uiso   1.00
C1215  C     0.75483   0.61583   0.84253   0.00000  Uiso   1.00
C1216  C     0.73113   0.90717   0.10413   0.00000  Uiso   1.00
C1217  C     0.70910   0.87198   0.12582   0.00000  Uiso   1.00
C1218  C     0.90886   0.72422   0.87197   0.00000  Uiso   1.00
C1219  C     0.87456   0.69331   0.86016   0.00000  Uiso   1.00
C1220  C     0.59292   0.74416   0.11238   0.00000  Uiso   1.00
C1221  C     0.63208   0.75872   0.13406   0.00000  Uiso   1.00
C1222  C     0.75584   0.90708   0.88762   0.00000  Uiso   1.00
C1223  C     0.83001   0.91999   0.25000   0.00000  Uiso   1.00
C1224  C     0.74129   0.86792   0.86594   0.00000  Uiso   1.00
C1225  C     0.77578   0.59114   0.12803   0.00000  Uiso   1.00
C1226  C     0.80670   0.62543   0.13984   0.00000  Uiso   1.00
C1227  C     0.59283   0.76887   0.89587   0.00000  Uiso   1.00
C1228  C     0.62802   0.79090   0.87418   0.00000  Uiso   1.00
C1229  C     0.90701   0.75888   0.12085   0.00000  Uiso   1.00
C1230  C     0.88419   0.74523   0.15748   0.00000  Uiso   1.00
C1231  C     0.95106   0.61630   0.46639   0.00000  Uiso   1.00
C1232  C     0.50925   0.89155   0.54572   0.00000  Uiso   1.00
C1233  C     0.79970   0.62556   0.45469   0.00000  Uiso   1.00
C1234  C     0.67000   0.58000   0.75000   0.00000  Uiso   1.00
C1235  C     0.60696   0.95998   0.54880   0.00000  Uiso   1.00
C1236  C     0.54003   0.89307   0.45123   0.00000  Uiso   1.00
C1237  C     0.87443   0.70032   0.54531   0.00000  Uiso   1.00
C1238  C     0.60846   0.99074   0.45429   0.00000  Uiso   1.00
C1239  C     0.88371   0.54893   0.53361   0.00000  Uiso   1.00
C1240  C     0.70105   0.86631   0.96639   0.00000  Uiso   1.00
C1241  C     0.75925   0.64155   0.04573   0.00000  Uiso   1.00
C1242  C     0.54968   0.87557   0.95469   0.00000  Uiso   1.00
C1243  C     0.85692   0.70999   0.04876   0.00000  Uiso   1.00
C1244  C     0.79001   0.64308   0.95124   0.00000  Uiso   1.00
C1245  C     0.58006   0.83002   0.25004   0.00000  Uiso   1.00
C1246  C     0.62443   0.95032   0.04531   0.00000  Uiso   1.00
C1247  C     0.85845   0.74075   0.95427   0.00000  Uiso   1.00
C1248  C     0.63370   0.79894   0.03361   0.00000  Uiso   1.00
C1249  C     0.91993   0.67000   0.74999   0.00000  Uiso   1.00
C1250  C     0.66998   0.91994   0.74996   0.00000  Uiso   1.00
C1251  C     0.83000   0.58007   0.25001   0.00000  Uiso   1.00
C1252  C     0.91996   0.83004   0.75000   0.00000  Uiso   1.00
C1253  C     0.75027   0.99996   0.64416   0.00000  Uiso   1.00
C1254  C     0.58004   0.66996   0.25000   0.00000  Uiso   1.00
C1255  C     0.83006   0.58002   0.75004   0.00000  Uiso   1.00
C1256  C     0.66993   0.92000   0.24999   0.00000  Uiso   1.00
C1257  C     0.58001   0.66999   0.75000   0.00000  Uiso   1.00
C1258  C     0.92000   0.83000   0.25000   0.00000  Uiso   1.00
C1259  C     0.63827   0.88838   0.24999   0.00000  Uiso   1.00
C1260  C     0.86169   0.61167   0.75007   0.00000  Uiso   1.00
C1261  C     0.61167   0.63833   0.25000   0.00000  Uiso   1.00
C1262  C     0.88833   0.86167   0.75000   0.00000  Uiso   1.00
C1263  C     0.86162   0.61173   0.25001   0.00000  Uiso   1.00
C1264  C     0.50004   0.74973   0.35584   0.00000  Uiso   1.00
C1265  C     0.63833   0.88831   0.74993   0.00000  Uiso   1.00
C1266  C     0.88834   0.86166   0.25000   0.00000  Uiso   1.00
C1267  C     0.61167   0.63833   0.75000   0.00000  Uiso   1.00
C1268  C     0.63834   0.61166   0.75000   0.00000  Uiso   1.00
C1269  C     0.86167   0.88833   0.25000   0.00000  Uiso   1.00
C1270  C     0.61162   0.86173   0.75001   0.00000  Uiso   1.00
C1271  C     0.88833   0.63831   0.24993   0.00000  Uiso   1.00
C1272  C     0.86167   0.88833   0.75000   0.00000  Uiso   1.00
C1273  C     0.63833   0.61167   0.25000   0.00000  Uiso   1.00
C1274  C     0.88827   0.63838   0.74999   0.00000  Uiso   1.00
C1275  C     0.99976   0.75008   0.64407   0.00000  Uiso   1.00
C1276  C     0.61169   0.86167   0.25007   0.00000  Uiso   1.00
C1277  C     0.51297   0.78769   0.41731   0.00000  Uiso   1.00
C1278  C     0.97358   0.72412   0.58157   0.00000  Uiso   1.00
C1279  C     0.71253   0.98274   0.41760   0.00000  Uiso   1.00
C1280  C     0.78323   0.51663   0.58129   0.00000  Uiso   1.00
C1281  C     0.98337   0.71678   0.41871   0.00000  Uiso   1.00
C1282  C     0.51726   0.78748   0.58240   0.00000  Uiso   1.00
C1283  C     0.77589   0.52641   0.41843   0.00000  Uiso   1.00
C1284  C     0.71232   0.98703   0.58269   0.00000  Uiso   1.00
C1285  C     0.76296   0.53769   0.91731   0.00000  Uiso   1.00
C1286  C     0.99992   0.75024   0.85594   0.00000  Uiso   1.00
C1287  C     0.72358   0.97412   0.08157   0.00000  Uiso   1.00
C1288  C     0.96252   0.73274   0.91760   0.00000  Uiso   1.00
C1289  C     0.53322   0.76663   0.08129   0.00000  Uiso   1.00
C1290  C     0.73337   0.96678   0.91871   0.00000  Uiso   1.00
C1291  C     0.76726   0.53748   0.08240   0.00000  Uiso   1.00
C1292  C     0.52588   0.77642   0.91843   0.00000  Uiso   1.00
C1293  C     0.96231   0.73704   0.08269   0.00000  Uiso   1.00
C1294  C     0.99977   0.75098   0.39819   0.00000  Uiso   1.00
C1295  C     0.99792   0.75368   0.60182   0.00000  Uiso   1.00
C1296  C     0.74632   0.50208   0.39818   0.00000  Uiso   1.00
C1297  C     0.50027   0.74996   0.14416   0.00000  Uiso   1.00
C1298  C     0.74902   0.50023   0.60182   0.00000  Uiso   1.00
C1299  C     0.74977   0.50098   0.89819   0.00000  Uiso   1.00
C1300  C     0.74792   0.50368   0.10182   0.00000  Uiso   1.00
C1301  C     0.99632   0.75208   0.89818   0.00000  Uiso   1.00
C1302  C     0.99902   0.75023   0.10181   0.00000  Uiso   1.00
C1303  C     0.97670   0.72061   0.45923   0.00000  Uiso   1.00
C1304  C     0.51372   0.78993   0.54116   0.00000  Uiso   1.00
C1305  C     0.77378   0.52988   0.45920   0.00000  Uiso   1.00
C1306  C     0.71114   0.98605   0.54155   0.00000  Uiso   1.00
C1307  C     0.51395   0.78886   0.45845   0.00000  Uiso   1.00
C1308  C     0.75004   0.99973   0.85584   0.00000  Uiso   1.00
C1309  C     0.97011   0.72623   0.54080   0.00000  Uiso   1.00
C1310  C     0.71007   0.98628   0.45884   0.00000  Uiso   1.00
C1311  C     0.77939   0.52330   0.54078   0.00000  Uiso   1.00
C1312  C     0.72669   0.97062   0.95923   0.00000  Uiso   1.00
C1313  C     0.76371   0.53994   0.04116   0.00000  Uiso   1.00
C1314  C     0.52377   0.77989   0.95920   0.00000  Uiso   1.00
C1315  C     0.96113   0.73606   0.04155   0.00000  Uiso   1.00
C1316  C     0.76394   0.53887   0.95845   0.00000  Uiso   1.00
C1317  C     0.72011   0.97623   0.04080   0.00000  Uiso   1.00
C1318  C     0.96007   0.73629   0.95884   0.00000  Uiso   1.00
C1319  C     0.74976   0.50008   0.14407   0.00000  Uiso   1.00
C1320  C     0.52939   0.77331   0.04078   0.00000  Uiso   1.00
C1321  C     0.99415   0.75587   0.47933   0.00000  Uiso   1.00
C1322  C     0.99281   0.75732   0.52043   0.00000  Uiso   1.00
C1323  C     0.74269   0.50719   0.47957   0.00000  Uiso   1.00
C1324  C     0.74414   0.50585   0.52067   0.00000  Uiso   1.00
C1325  C     0.74414   0.50587   0.97933   0.00000  Uiso   1.00
C1326  C     0.74280   0.50732   0.02043   0.00000  Uiso   1.00
C1327  C     0.99268   0.75720   0.97957   0.00000  Uiso   1.00
C1328  C     0.99413   0.75586   0.02067   0.00000  Uiso   1.00
C1329  C     0.95203   0.69110   0.48000   0.00000  Uiso   1.00
C1330  C     0.66996   0.58004   0.25000   0.00000  Uiso   1.00
C1331  C     0.53097   0.82397   0.52013   0.00000  Uiso   1.00
C1332  C     0.80288   0.55490   0.47996   0.00000  Uiso   1.00
C1333  C     0.67753   0.96690   0.52087   0.00000  Uiso   1.00
C1334  C     0.53309   0.82248   0.47913   0.00000  Uiso   1.00
C1335  C     0.94509   0.69713   0.52004   0.00000  Uiso   1.00
C1336  C     0.67604   0.96902   0.47987   0.00000  Uiso   1.00
C1337  C     0.80891   0.54797   0.52000   0.00000  Uiso   1.00
C1338  C     0.70202   0.94110   0.98000   0.00000  Uiso   1.00
C1339  C     0.78097   0.57398   0.02013   0.00000  Uiso   1.00
C1340  C     0.55287   0.80491   0.97996   0.00000  Uiso   1.00
H1341  H     0.97874   0.86640   0.40000   0.00000  Uiso   1.00
H1342  H     0.92952   0.61332   0.61053   0.00000  Uiso   1.00
H1343  H     0.54755   0.90241   0.42106   0.00000  Uiso   1.00
H1344  H     0.90503   0.64562   0.52949   0.00000  Uiso   1.00
H1345  H     0.85986   0.70842   0.51689   0.00000  Uiso   1.00
H1346  H     0.88203   0.72963   0.56151   0.00000  Uiso   1.00
H1347  H     0.85145   0.68208   0.56264   0.00000  Uiso   1.00
H1348  H     0.62538   0.92919   0.46896   0.00000  Uiso   1.00
H1349  H     0.59031   0.99698   0.48097   0.00000  Uiso   1.00
H1350  H     0.58574   0.98190   0.43117   0.00000  Uiso   1.00
H1351  H     0.62440   0.52038   0.44589   0.00000  Uiso   1.00
H1352  H     0.84311   0.60039   0.53663   0.00000  Uiso   1.00
H1353  H     0.67434   0.98387   0.34473   0.00000  Uiso   1.00
H1354  H     0.89364   0.55112   0.50288   0.00000  Uiso   1.00
H1355  H     0.88307   0.51519   0.54124   0.00000  Uiso   1.00
H1356  H     0.90750   0.56497   0.55205   0.00000  Uiso   1.00
H1357  H     0.64960   0.90691   0.96337   0.00000  Uiso   1.00
H1358  H     0.69886   0.85637   0.99712   0.00000  Uiso   1.00
H1359  H     0.73479   0.86694   0.95877   0.00000  Uiso   1.00
H1360  H     0.68502   0.84251   0.94795   0.00000  Uiso   1.00
H1361  H     0.82080   0.62464   0.03104   0.00000  Uiso   1.00
H1362  H     0.75299   0.65970   0.01906   0.00000  Uiso   1.00
H1363  H     0.76809   0.66426   0.06886   0.00000  Uiso   1.00
H1364  H     0.64430   0.50274   0.38489   0.00000  Uiso   1.00
H1365  H     0.72962   0.62560   0.05415   0.00000  Uiso   1.00
H1366  H     0.60438   0.84497   0.97051   0.00000  Uiso   1.00
H1367  H     0.54158   0.89014   0.98311   0.00000  Uiso   1.00
H1368  H     0.52038   0.86797   0.93848   0.00000  Uiso   1.00
H1369  H     0.56792   0.89855   0.93736   0.00000  Uiso   1.00
H1370  H     0.89637   0.66062   0.03168   0.00000  Uiso   1.00
H1371  H     0.83289   0.69674   0.02892   0.00000  Uiso   1.00
H1372  H     0.85731   0.74465   0.04526   0.00000  Uiso   1.00
H1373  H     0.84758   0.70246   0.07893   0.00000  Uiso   1.00
H1374  H     0.83938   0.60363   0.96832   0.00000  Uiso   1.00
H1375  H     0.60914   0.93000   0.38617   0.00000  Uiso   1.00
H1376  H     0.80326   0.66712   0.97108   0.00000  Uiso   1.00
H1377  H     0.75535   0.64270   0.95476   0.00000  Uiso   1.00
H1378  H     0.79753   0.65243   0.92107   0.00000  Uiso   1.00
H1379  H     0.65503   0.89562   0.02949   0.00000  Uiso   1.00
H1380  H     0.60985   0.95843   0.01690   0.00000  Uiso   1.00
H1381  H     0.63203   0.97963   0.06152   0.00000  Uiso   1.00
H1382  H     0.60145   0.93209   0.06264   0.00000  Uiso   1.00
H1383  H     0.87536   0.67921   0.96897   0.00000  Uiso   1.00
H1384  H     0.84031   0.74702   0.98095   0.00000  Uiso   1.00
H1385  H     0.83574   0.73191   0.93115   0.00000  Uiso   1.00
H1386  H     0.60056   0.95949   0.34202   0.00000  Uiso   1.00
H1387  H     0.87440   0.77039   0.94585   0.00000  Uiso   1.00
H1388  H     0.59310   0.85040   0.03663   0.00000  Uiso   1.00
H1389  H     0.64363   0.80113   0.00288   0.00000  Uiso   1.00
H1390  H     0.63307   0.76520   0.04124   0.00000  Uiso   1.00
H1391  H     0.65749   0.81498   0.05205   0.00000  Uiso   1.00
H1392  H     0.63843   0.91710   0.34305   0.00000  Uiso   1.00
H1393  H     0.85249   0.97555   0.58645   0.00000  Uiso   1.00
H1394  H     0.82557   0.97284   0.63207   0.00000  Uiso   1.00
H1395  H     0.87293   0.52607   0.66083   0.00000  Uiso   1.00
H1396  H     0.90148   0.98108   0.64239   0.00000  Uiso   1.00
H1397  H     0.96430   0.82218   0.37140   0.00000  Uiso   1.00
H1398  H     0.90116   0.52971   0.61548   0.00000  Uiso   1.00
H1399  H     0.52444   0.64751   0.41356   0.00000  Uiso   1.00
H1400  H     0.52716   0.67444   0.36794   0.00000  Uiso   1.00
H1401  H     0.97396   0.62707   0.33917   0.00000  Uiso   1.00
H1402  H     0.51892   0.59852   0.35764   0.00000  Uiso   1.00
H1403  H     0.97028   0.59886   0.38451   0.00000  Uiso   1.00
H1404  H     0.51615   0.82566   0.65528   0.00000  Uiso   1.00
H1405  H     0.99727   0.85570   0.61513   0.00000  Uiso   1.00
H1406  H     0.57000   0.89086   0.61383   0.00000  Uiso   1.00
H1407  H     0.54054   0.89944   0.65798   0.00000  Uiso   1.00
H1408  H     0.51587   0.84250   0.32050   0.00000  Uiso   1.00
H1409  H     0.58292   0.86156   0.65694   0.00000  Uiso   1.00
H1410  H     0.83492   0.98936   0.37995   0.00000  Uiso   1.00
H1411  H     0.85457   0.51079   0.42547   0.00000  Uiso   1.00
H1412  H     0.90609   0.52013   0.37275   0.00000  Uiso   1.00
H1413  H     0.86765   0.54848   0.34414   0.00000  Uiso   1.00
H1414  H     0.88669   0.57047   0.38947   0.00000  Uiso   1.00
H1415  H     0.63345   0.52115   0.60018   0.00000  Uiso   1.00
H1416  H     0.67783   0.53579   0.62846   0.00000  Uiso   1.00
H1417  H     0.65801   0.98427   0.67961   0.00000  Uiso   1.00
H1418  H     0.61690   0.52219   0.67023   0.00000  Uiso   1.00
H1419  H     0.97785   0.88347   0.33005   0.00000  Uiso   1.00
H1420  H     0.61238   0.96932   0.65123   0.00000  Uiso   1.00
H1421  H     0.72868   0.61632   0.90008   0.00000  Uiso   1.00
H1422  H     0.71434   0.57219   0.87132   0.00000  Uiso   1.00
H1423  H     0.76597   0.59274   0.82055   0.00000  Uiso   1.00
H1424  H     0.72787   0.63363   0.83017   0.00000  Uiso   1.00
H1425  H     0.78066   0.63813   0.84937   0.00000  Uiso   1.00
H1426  H     0.76064   0.91508   0.12004   0.00000  Uiso   1.00
H1427  H     0.73920   0.89543   0.07452   0.00000  Uiso   1.00
H1428  H     0.72987   0.84392   0.12725   0.00000  Uiso   1.00
H1429  H     0.70152   0.88235   0.15586   0.00000  Uiso   1.00
H1430  H     0.53068   0.88795   0.34918   0.00000  Uiso   1.00
H1431  H     0.67953   0.86332   0.11053   0.00000  Uiso   1.00
H1432  H     0.92434   0.73384   0.84472   0.00000  Uiso   1.00
H1433  H     0.89430   0.75273   0.88486   0.00000  Uiso   1.00
H1434  H     0.85914   0.67999   0.88618   0.00000  Uiso   1.00
H1435  H     0.85056   0.70946   0.84202   0.00000  Uiso   1.00
H1436  H     0.88844   0.66707   0.84306   0.00000  Uiso   1.00
H1437  H     0.60249   0.72555   0.08644   0.00000  Uiso   1.00
H1438  H     0.57556   0.72284   0.13206   0.00000  Uiso   1.00
H1439  H     0.62293   0.77606   0.16082   0.00000  Uiso   1.00
H1440  H     0.65148   0.73108   0.14238   0.00000  Uiso   1.00
H1441  H     0.51064   0.66508   0.62005   0.00000  Uiso   1.00
H1442  H     0.65115   0.77970   0.11548   0.00000  Uiso   1.00
H1443  H     0.77444   0.89752   0.91356   0.00000  Uiso   1.00
H1444  H     0.77716   0.92444   0.86794   0.00000  Uiso   1.00
H1445  H     0.72394   0.87707   0.83918   0.00000  Uiso   1.00
H1446  H     0.76893   0.84853   0.85762   0.00000  Uiso   1.00
H1447  H     0.72030   0.84885   0.88452   0.00000  Uiso   1.00
H1448  H     0.76616   0.57566   0.15528   0.00000  Uiso   1.00
H1449  H     0.74728   0.60570   0.11514   0.00000  Uiso   1.00
H1450  H     0.82002   0.64085   0.11383   0.00000  Uiso   1.00
H1451  H     0.79055   0.64944   0.15798   0.00000  Uiso   1.00
H1452  H     0.98921   0.64543   0.57453   0.00000  Uiso   1.00
H1453  H     0.83293   0.61156   0.15694   0.00000  Uiso   1.00
H1454  H     0.58492   0.73936   0.87996   0.00000  Uiso   1.00
H1455  H     0.60457   0.76079   0.92548   0.00000  Uiso   1.00
H1456  H     0.65609   0.77013   0.87275   0.00000  Uiso   1.00
H1457  H     0.61765   0.79848   0.84414   0.00000  Uiso   1.00
H1458  H     0.63669   0.82047   0.88947   0.00000  Uiso   1.00
H1459  H     0.88367   0.77135   0.09993   0.00000  Uiso   1.00
H1460  H     0.92782   0.78570   0.12865   0.00000  Uiso   1.00
H1461  H     0.90728   0.73407   0.17945   0.00000  Uiso   1.00
H1462  H     0.86643   0.77221   0.16985   0.00000  Uiso   1.00
H1463  H     0.97987   0.59391   0.62725   0.00000  Uiso   1.00
H1464  H     0.86187   0.71942   0.15066   0.00000  Uiso   1.00
H1465  H     0.89961   0.65690   0.46337   0.00000  Uiso   1.00
H1466  H     0.94887   0.60637   0.49712   0.00000  Uiso   1.00
H1467  H     0.98480   0.61693   0.45877   0.00000  Uiso   1.00
H1468  H     0.93503   0.59251   0.44795   0.00000  Uiso   1.00
H1469  H     0.57080   0.87463   0.53104   0.00000  Uiso   1.00
H1470  H     0.50300   0.90969   0.51905   0.00000  Uiso   1.00
H1471  H     0.51809   0.91426   0.56884   0.00000  Uiso   1.00
H1472  H     0.97962   0.87560   0.55414   0.00000  Uiso   1.00
H1473  H     0.85439   0.59495   0.47051   0.00000  Uiso   1.00
H1474  H     0.95152   0.63235   0.65586   0.00000  Uiso   1.00
H1475  H     0.79160   0.64014   0.48311   0.00000  Uiso   1.00
H1476  H     0.77038   0.61797   0.43849   0.00000  Uiso   1.00
H1477  H     0.81793   0.64854   0.43736   0.00000  Uiso   1.00
H1478  H     0.64637   0.91061   0.53166   0.00000  Uiso   1.00
H1479  H     0.58289   0.94675   0.52898   0.00000  Uiso   1.00
H1480  H     0.60735   0.99465   0.54529   0.00000  Uiso   1.00
H1481  H     0.59764   0.95246   0.57898   0.00000  Uiso   1.00
H1482  H     0.58939   0.85362   0.46833   0.00000  Uiso   1.00
H1483  H     0.55327   0.91711   0.47108   0.00000  Uiso   1.00
H1484  H     0.50536   0.89268   0.45474   0.00000  Uiso   1.00
N1485  N     0.93183   0.65716   0.46032   0.00000  Uiso   1.00
N1486  N     0.79305   0.61138   0.04008   0.00000  Uiso   1.00
N1487  N     0.57465   0.83809   0.96071   0.00000  Uiso   1.00
N1488  N     0.89767   0.69150   0.04084   0.00000  Uiso   1.00
N1489  N     0.80850   0.60234   0.95916   0.00000  Uiso   1.00
N1490  N     0.66190   0.92535   0.03929   0.00000  Uiso   1.00
N1491  N     0.88862   0.70696   0.95992   0.00000  Uiso   1.00
N1492  N     0.59284   0.81818   0.03968   0.00000  Uiso   1.00
N1493  N     0.54305   0.86137   0.54008   0.00000  Uiso   1.00
N1494  N     0.82466   0.58808   0.46071   0.00000  Uiso   1.00
N1495  N     0.64768   0.94148   0.54084   0.00000  Uiso   1.00
N1496  N     0.55851   0.85232   0.45917   0.00000  Uiso   1.00
N1497  N     0.91191   0.67535   0.53929   0.00000  Uiso   1.00
N1498  N     0.63863   0.95694   0.45992   0.00000  Uiso   1.00
N1499  N     0.84285   0.56817   0.53968   0.00000  Uiso   1.00
N1500  N     0.68182   0.90717   0.96032   0.00000  Uiso   1.00
O1501  O     0.75000   0.50000   0.25000   0.00000  Uiso   1.00
O1502  O     0.75000   0.96539   0.66251   0.00000  Uiso   1.00
O1503  O     0.96539   0.75000   0.33749   0.00000  Uiso   1.00
O1504  O     0.53462   0.75000   0.66251   0.00000  Uiso   1.00
O1505  O     0.50000   0.71539   0.83749   0.00000  Uiso   1.00
O1506  O     0.50000   0.78461   0.16251   0.00000  Uiso   1.00
O1507  O     0.78462   0.50000   0.83749   0.00000  Uiso   1.00
O1508  O     0.71539   0.50000   0.16251   0.00000  Uiso   1.00
O1509  O     0.50000   0.78462   0.83749   0.00000  Uiso   1.00
O1510  O     0.50000   0.71538   0.16251   0.00000  Uiso   1.00
O1511  O     0.71539   0.50000   0.83749   0.00000  Uiso   1.00
O1512  O     0.75000   0.50000   0.75000   0.00000  Uiso   1.00
O1513  O     0.78462   0.50000   0.16251   0.00000  Uiso   1.00
O1514  O     0.70127   0.58332   0.27298   0.00000  Uiso   1.00
O1515  O     0.79874   0.91668   0.72702   0.00000  Uiso   1.00
O1516  O     0.91668   0.70127   0.27298   0.00000  Uiso   1.00
O1517  O     0.58332   0.79873   0.72702   0.00000  Uiso   1.00
O1518  O     0.79874   0.91668   0.27298   0.00000  Uiso   1.00
O1519  O     0.70127   0.58332   0.72702   0.00000  Uiso   1.00
O1520  O     0.58332   0.79873   0.27298   0.00000  Uiso   1.00
O1521  O     0.91668   0.70127   0.72702   0.00000  Uiso   1.00
O1522  O     0.70127   0.91668   0.72702   0.00000  Uiso   1.00
O1523  O     0.50000   0.75000   0.25000   0.00000  Uiso   1.00
O1524  O     0.79874   0.58332   0.27298   0.00000  Uiso   1.00
O1525  O     0.91668   0.79874   0.72702   0.00000  Uiso   1.00
O1526  O     0.58332   0.70127   0.27298   0.00000  Uiso   1.00
O1527  O     0.79874   0.58332   0.72702   0.00000  Uiso   1.00
O1528  O     0.70127   0.91668   0.27298   0.00000  Uiso   1.00
O1529  O     0.58332   0.70127   0.72702   0.00000  Uiso   1.00
O1530  O     0.91668   0.79874   0.27298   0.00000  Uiso   1.00
O1531  O     0.95127   0.83332   0.77298   0.00000  Uiso   1.00
O1532  O     0.54874   0.66668   0.22702   0.00000  Uiso   1.00
O1533  O     0.66668   0.95127   0.77298   0.00000  Uiso   1.00
O1534  O     0.50000   0.75000   0.75000   0.00000  Uiso   1.00
O1535  O     0.83332   0.54874   0.22702   0.00000  Uiso   1.00
O1536  O     0.54874   0.66668   0.77298   0.00000  Uiso   1.00
O1537  O     0.95127   0.83332   0.22702   0.00000  Uiso   1.00
O1538  O     0.83332   0.54874   0.77298   0.00000  Uiso   1.00
O1539  O     0.66668   0.95127   0.22702   0.00000  Uiso   1.00
O1540  O     0.95127   0.66668   0.22702   0.00000  Uiso   1.00
O1541  O     0.54874   0.83332   0.77298   0.00000  Uiso   1.00
O1542  O     0.66668   0.54874   0.22702   0.00000  Uiso   1.00
O1543  O     0.83332   0.95127   0.77298   0.00000  Uiso   1.00
O1544  O     0.54874   0.83332   0.22702   0.00000  Uiso   1.00
O1545  O     0.75000   0.96539   0.33749   0.00000  Uiso   1.00
O1546  O     0.95127   0.66668   0.77298   0.00000  Uiso   1.00
O1547  O     0.83332   0.95127   0.22702   0.00000  Uiso   1.00
O1548  O     0.66668   0.54874   0.77298   0.00000  Uiso   1.00
O1549  O     0.52632   0.82162   0.39535   0.00000  Uiso   1.00
O1550  O     0.95399   0.69234   0.60221   0.00000  Uiso   1.00
O1551  O     0.68711   0.95398   0.39790   0.00000  Uiso   1.00
O1552  O     0.81863   0.52970   0.60167   0.00000  Uiso   1.00
O1553  O     0.97030   0.68137   0.39833   0.00000  Uiso   1.00
O1554  O     0.54603   0.81289   0.60210   0.00000  Uiso   1.00
O1555  O     0.80766   0.54600   0.39779   0.00000  Uiso   1.00
O1556  O     0.75000   0.53462   0.66251   0.00000  Uiso   1.00
O1557  O     0.67837   0.97369   0.60465   0.00000  Uiso   1.00
O1558  O     0.77632   0.57162   0.89534   0.00000  Uiso   1.00
O1559  O     0.70399   0.94234   0.10221   0.00000  Uiso   1.00
O1560  O     0.93711   0.70397   0.89790   0.00000  Uiso   1.00
O1561  O     0.56863   0.77970   0.10167   0.00000  Uiso   1.00
O1562  O     0.72030   0.93137   0.89834   0.00000  Uiso   1.00
O1563  O     0.79603   0.56288   0.10210   0.00000  Uiso   1.00
O1564  O     0.55766   0.79600   0.89779   0.00000  Uiso   1.00
O1565  O     0.92837   0.72370   0.10466   0.00000  Uiso   1.00
O1566  O     0.53462   0.75000   0.33749   0.00000  Uiso   1.00
O1567  O     0.96539   0.75000   0.66251   0.00000  Uiso   1.00
O1568  O     0.75000   0.53462   0.33749   0.00000  Uiso   1.00
Zn1569 Zn    0.70053   0.50000   0.21730   0.00000  Uiso   1.00
Zn1570 Zn    0.54948   0.75000   0.28270   0.00000  Uiso   1.00
Zn1571 Zn    0.75000   0.95053   0.71730   0.00000  Uiso   1.00
Zn1572 Zn    0.75000   0.54948   0.28270   0.00000  Uiso   1.00
Zn1573 Zn    0.54948   0.75000   0.71730   0.00000  Uiso   1.00
Zn1574 Zn    0.95053   0.75000   0.28270   0.00000  Uiso   1.00
Zn1575 Zn    0.75000   0.54948   0.71730   0.00000  Uiso   1.00
Zn1576 Zn    0.75000   0.95053   0.28270   0.00000  Uiso   1.00
Zn1577 Zn    0.79948   0.50000   0.78270   0.00000  Uiso   1.00
Zn1578 Zn    0.50000   0.70052   0.21730   0.00000  Uiso   1.00
Zn1579 Zn    0.50000   0.79948   0.78270   0.00000  Uiso   1.00
Zn1580 Zn    0.79948   0.50000   0.21730   0.00000  Uiso   1.00
Zn1581 Zn    0.70053   0.50000   0.78270   0.00000  Uiso   1.00
Zn1582 Zn    0.50000   0.79947   0.21730   0.00000  Uiso   1.00
Zn1583 Zn    0.50000   0.70052   0.78270   0.00000  Uiso   1.00
Zn1584 Zn    0.95053   0.75000   0.71730   0.00000  Uiso   1.00
loop_
_geom_bond_atom_site_label_1
_geom_bond_atom_site_label_2
_geom_bond_distance
_geom_bond_site_symmetry_2
_ccdc_geom_bond_type
C1     O380    1.266   .     A
C1     C108    1.459   .     S
C1     O1149   1.276   1_545 S
C2     C84     1.421   .     S
C2     O327    1.273   .     A
C2     O355    1.273   .     A
C3     N300    1.428   .     S
C3     C127    1.419   .     A
C3     C6      1.413   1_554 S
C4     N301    1.428   .     S
C4     C128    1.419   .     A
C4     C151    1.413   1_556 S
C5     C129    1.412   .     A
C5     N302    1.430   .     S
C5     C150    1.408   1_554 S
C6     C130    1.417   .     A
C6     N303    1.424   .     S
C6     C3      1.413   1_556 S
C7     C132    1.421   .     A
C7     N304    1.425   .     S
C7     C152    1.408   1_554 S
C8     H153    1.106   .     S
C8     H209    1.112   .     S
C8     C405    1.522   .     S
C8     O757    1.421   .     S
C9     H220    1.111   .     S
C9     H242    1.111   .     S
C9     C404    1.522   1_455 S
C9     H627    1.110   1_455 S
C10    C11     1.521   .     S
C10    O362    1.413   .     S
C10    H264    1.114   .     S
C10    H649    1.114   .     S
C11    H154    1.111   .     S
C11    H275    1.110   .     S
C11    H286    1.111   .     S
C12    O363    1.419   .     S
C12    H165    1.105   .     S
C12    C14     1.523   .     S
C12    H968    1.109   .     S
C13    C83     1.425   .     S
C13    O328    1.275   .     A
C13    O352    1.276   .     A
C14    H187    1.108   .     S
C14    H204    1.111   .     S
C14    H198    1.110   .     S
C15    H206    1.109   .     S
C15    H205    1.112   .     S
C15    C808    1.522   .     S
C15    O1156   1.417   .     S
C16    H207    1.111   .     S
C16    H210    1.109   .     S
C16    C807    1.522   1_545 S
C16    H1000   1.111   1_545 S
C17    H212    1.109   .     S
C17    H211    1.112   .     S
C17    C414    1.522   1_455 S
C17    O761    1.417   1_455 S
C18    H213    1.111   .     S
C18    H215    1.109   .     S
C18    C413    1.522   .     S
C18    H610    1.110   .     S
C19    C20     1.523   .     S
C19    O366    1.419   .     S
C19    H216    1.105   .     S
C19    H613    1.109   1_455 S
C20    H219    1.110   .     S
C20    H221    1.111   .     S
C20    H218    1.108   .     S
C21    H223    1.114   .     S
C21    O367    1.413   .     S
C21    C22     1.521   .     S
C21    H1014   1.114   1_545 S
C22    H225    1.111   .     S
C22    H224    1.110   .     S
C22    H226    1.111   .     S
C23    H228    1.112   .     S
C23    H227    1.106   .     S
C23    C817    1.522   1_545 S
C23    O1161   1.421   1_545 S
C24    O329    1.275   .     A
C24    C82     1.425   .     S
C24    O353    1.276   .     A
C25    H232    1.111   .     S
C25    H229    1.111   .     S
C25    C815    1.522   .     S
C25    H1022   1.111   .     S
C26    H234    1.112   .     S
C26    O370    1.421   .     S
C26    C27     1.522   .     S
C26    H233    1.106   .     S
C27    H236    1.111   .     S
C27    H237    1.111   .     S
C27    H235    1.111   .     S
C28    O371    1.413   .     S
C28    C29     1.521   .     S
C28    H239    1.114   .     S
C28    H238    1.114   .     S
C29    H243    1.111   .     S
C29    H240    1.110   .     S
C29    H241    1.111   .     S
C30    O372    1.419   .     S
C30    C31     1.523   .     S
C30    H245    1.109   .     S
C30    H244    1.105   .     S
C31    H247    1.110   .     S
C31    H248    1.111   .     S
C31    H246    1.108   .     S
C32    H249    1.112   .     S
C32    C33     1.522   .     S
C32    H250    1.109   .     S
C32    O373    1.417   .     S
C33    H252    1.110   .     S
C33    H254    1.109   .     S
C33    H251    1.111   .     S
C34    H255    1.112   .     S
C34    H256    1.109   .     S
C34    C36     1.522   .     S
C34    O374    1.417   .     S
C35    O359    1.277   .     A
C35    C81     1.423   .     S
C35    O330    1.277   .     A
C36    H259    1.109   .     S
C36    H258    1.111   .     S
C36    H257    1.111   .     S
C37    O375    1.419   .     S
C37    C38     1.523   .     S
C37    H261    1.109   .     S
C37    H260    1.105   .     S
C38    H262    1.108   .     S
C38    H263    1.110   .     S
C38    H265    1.111   .     S
C39    C40     1.521   .     S
C39    H267    1.114   .     S
C39    O376    1.413   .     S
C39    H266    1.114   .     S
C40    H270    1.111   .     S
C40    H268    1.110   .     S
C40    H269    1.111   .     S
C41    H272    1.112   .     S
C41    H271    1.106   .     S
C41    C42     1.522   .     S
C41    O377    1.421   .     S
C42    H274    1.111   .     S
C42    H276    1.111   .     S
C42    H273    1.111   .     S
C43    N297    1.451   .     S
C43    H279    1.106   .     S
C43    H280    1.110   .     S
C43    H278    1.107   .     S
C44    H283    1.109   .     S
C44    N305    1.452   .     S
C44    H282    1.103   .     S
C44    H680    1.111   1_455 S
C45    H289    1.110   .     S
C45    H288    1.111   .     S
C45    N306    1.446   .     S
C45    H287    1.111   .     S
C46    O360    1.277   .     A
C46    C80     1.422   .     S
C46    O331    1.277   .     A
C47    H291    1.106   .     S
C47    N307    1.448   .     S
C47    H293    1.108   .     S
C47    H292    1.110   .     S
C48    H155    1.108   .     S
C48    H296    1.110   .     S
C48    N308    1.448   .     S
C48    H295    1.106   .     S
C49    H157    1.111   .     S
C49    H159    1.110   .     S
C49    N309    1.446   .     S
C49    H158    1.111   .     S
C50    H162    1.109   .     S
C50    H161    1.103   .     S
C50    N310    1.452   .     S
C50    H955    1.111   .     S
C51    H167    1.106   .     S
C51    N311    1.451   .     S
C51    H168    1.110   .     S
C51    H166    1.107   .     S
C52    H170    1.107   .     S
C52    H172    1.110   .     S
C52    N312    1.451   .     S
C52    H171    1.106   .     S
C53    H177    1.111   .     S
C53    N298    1.452   .     S
C53    H175    1.109   .     S
C53    H174    1.103   .     S
C54    H181    1.110   .     S
C54    H179    1.112   .     S
C54    N299    1.446   .     S
C54    H180    1.111   .     S
C55    H184    1.110   .     S
C55    H183    1.106   .     S
C55    H185    1.108   .     S
C55    N300    1.448   .     S
C56    N301    1.448   .     S
C56    H190    1.108   .     S
C56    H188    1.106   .     S
C56    H189    1.110   .     S
C57    O356    1.275   .     A
C57    O332    1.276   .     A
C57    C88     1.425   .     S
C58    H193    1.111   .     S
C58    H194    1.110   .     S
C58    N302    1.446   .     S
C58    H192    1.111   .     S
C59    N303    1.452   .     S
C59    H196    1.103   .     S
C59    H199    1.111   .     S
C59    H197    1.109   .     S
C60    H202    1.106   .     S
C60    N304    1.451   .     S
C60    H201    1.107   .     S
C60    H203    1.110   .     S
C61    O358    1.275   .     A
C61    O333    1.276   .     A
C61    C86     1.425   .     S
C62    C77     1.425   .     S
C62    O334    1.276   .     A
C62    O345    1.275   .     A
C63    C75     1.425   .     S
C63    O347    1.275   .     A
C63    O336    1.276   .     A
C64    C74     1.421   .     S
C64    O337    1.273   .     A
C64    O343    1.273   .     A
C65    O314    1.270   .     A
C65    C902    1.457   .     S
C65    O1160   1.268   .     S
C66    O338    1.273   .     A
C66    C73     1.421   .     S
C66    O344    1.273   .     A
C67    C72     1.425   .     S
C67    O350    1.276   .     A
C67    O339    1.275   .     A
C68    O351    1.276   .     A
C68    C71     1.425   .     S
C68    O340    1.275   .     A
C69    C79     1.423   .     S
C69    O348    1.277   .     A
C69    O341    1.277   .     A
C70    O342    1.277   .     A
C70    C78     1.422   .     S
C70    O349    1.277   .     A
C71    C88     1.200   .     T
C72    C86     1.200   .     T
C73    C85     1.198   .     T
C74    C84     1.198   .     T
C75    C83     1.200   .     T
C76    O378    1.270   .     A
C76    C502    1.457   1_455 S
C76    O711    1.268   1_455 S
C77    C82     1.200   .     T
C78    C81     1.198   .     T
C79    C80     1.198   .     T
C85    C142    1.421   .     S
C87    O379    1.266   .     A
C87    C107    1.459   .     S
C87    O712    1.276   .     S
C89    C119    1.416   .     A
C89    O361    1.388   .     S
C89    C502    1.402   1_455 S
C90    C107    1.401   .     A
C90    O362    1.387   .     S
C90    C121    1.408   .     A
C91    C122    1.425   .     A
C91    O363    1.394   .     S
C91    C900    1.411   .     S
C92    C123    1.416   .     A
C92    C110    1.401   .     A
C92    O364    1.388   .     S
C93    C106    1.401   .     A
C93    C115    1.416   .     A
C93    O365    1.388   .     S
C94    C116    1.425   .     A
C94    O366    1.394   .     S
C94    C503    1.411   1_455 S
C95    C108    1.401   .     A
C95    C117    1.408   .     A
C95    O367    1.387   .     S
C96    O369    1.388   .     S
C96    C118    1.416   .     A
C96    C902    1.402   .     S
C97    O370    1.388   .     S
C97    C128    1.416   .     A
C97    C111    1.402   .     A
C98    O713    1.276   .     A
C98    O717    1.266   .     A
C98    C113    1.459   .     S
C99    C129    1.408   .     A
C99    O371    1.387   .     S
C99    C904    1.401   .     S
C100   C130    1.425   .     A
C100   O372    1.394   .     S
C100   C113    1.411   .     A
C101   O373    1.388   .     S
C101   C132    1.416   .     A
C101   C510    1.401   1_455 S
C102   O374    1.388   .     S
C102   C124    1.416   .     A
C102   C903    1.401   .     S
C103   C112    1.411   .     A
C103   O375    1.394   .     S
C103   C125    1.425   .     A
C104   O376    1.387   .     S
C104   C126    1.408   .     A
C104   C509    1.401   1_455 S
C105   C127    1.416   .     A
C105   O377    1.388   .     S
C105   C114    1.402   .     A
C106   C472    1.457   .     S
C106   C485    1.402   .     S
C107   C490    1.411   .     S
C108   C883    1.411   1_545 S
C109   O318    1.268   .     A
C109   O322    1.270   .     A
C109   C510    1.457   1_455 S
C110   C857    1.457   1_545 S
C110   C888    1.402   1_545 S
C111   C894    1.401   1_545 S
C111   C912    1.457   1_545 S
C112   C131    1.459   .     S
C112   C891    1.401   1_545 S
C113   C500    1.401   .     S
C114   C505    1.457   .     S
C114   C497    1.401   .     S
C115   C141    1.421   .     A
C115   C133    1.428   .     A
C116   C143    1.417   .     A
C116   C530    1.422   1_455 S
C117   C135    1.415   .     A
C117   C144    1.412   .     A
C118   C145    1.419   .     A
C118   C928    1.423   .     S
C119   C146    1.419   .     A
C119   C529    1.423   1_455 S
C120   C903    1.457   .     S
C120   O1111   1.270   .     S
C120   O1115   1.268   .     S
C121   C147    1.412   .     A
C121   C134    1.415   .     A
C122   C148    1.417   .     A
C122   C927    1.422   .     S
C123   C149    1.421   .     A
C123   C136    1.428   .     A
C124   C150    1.421   .     A
C124   C929    1.428   .     S
C125   C138    1.422   .     A
C125   C151    1.417   .     A
C126   C152    1.412   .     A
C126   C535    1.415   1_455 S
C127   C140    1.423   .     A
C128   C137    1.423   .     A
C129   C930    1.415   .     S
C130   C139    1.422   .     A
C131   O320    1.266   .     A
C131   O325    1.276   .     A
C132   C536    1.428   1_455 S
C133   C134    1.415   .     A
C133   C515    1.423   .     S
C134   C512    1.422   .     S
C135   C136    1.416   .     A
C135   C914    1.422   1_545 S
C136   C910    1.423   1_545 S
C137   C916    1.428   1_545 S
C137   C138    1.416   1_556 S
C138   C921    1.415   1_545 S
C138   C137    1.416   1_554 S
C139   C522    1.415   .     S
C139   C140    1.416   1_556 S
C140   C528    1.428   .     S
C140   C139    1.416   1_554 S
C141   C147    1.408   .     A
C141   N297    1.425   .     S
C142   O354    1.273   .     A
C142   O326    1.273   .     A
C143   C146    1.413   .     A
C143   N305    1.424   .     S
C144   N306    1.430   .     S
C144   C149    1.408   .     A
C145   C148    1.413   .     A
C145   N307    1.428   .     S
C146   N308    1.428   .     S
C147   N309    1.430   .     S
C148   N310    1.424   .     S
C149   N311    1.425   .     S
C150   N312    1.425   .     S
C150   C5      1.408   1_556 S
C151   N298    1.424   .     S
C151   C4      1.413   1_554 S
C152   N299    1.430   .     S
C152   C7      1.408   1_556 S
H156   N309    1.026   .     S
H160   N310    1.029   .     S
H163   C842    1.111   1_545 S
H164   N311    1.031   .     S
H169   N312    1.031   .     S
H173   N298    1.029   .     S
H176   C804    1.109   1_545 S
H178   N299    1.026   .     S
H182   N300    1.031   .     S
H186   N301    1.031   .     S
H191   N302    1.026   .     S
H195   N303    1.029   .     S
H200   N304    1.031   .     S
H208   C808    1.111   .     S
H214   C414    1.110   1_455 S
H217   C415    1.109   .     S
H222   C813    1.114   .     S
H230   C817    1.111   1_545 S
H231   C405    1.110   .     S
H253   C406    1.114   1_455 S
H277   N297    1.031   .     S
H281   N305    1.029   .     S
H284   C440    1.111   .     S
H285   N306    1.026   .     S
H290   N307    1.031   .     S
H294   N308    1.031   .     S
O313   Zn384   1.931   .     S
O313   Zn381   1.931   .     S
O313   Zn1180  1.938   1_545 S
O313   Zn392   1.938   .     S
O314   Zn383   1.945   .     S
O315   Zn386   1.942   .     S
O315   C472    1.268   .     S
O316   Zn385   1.942   .     S
O316   C483    1.276   1_455 S
O317   C494    1.276   1_455 A
O317   Zn395   1.942   .     S
O318   Zn394   1.942   .     S
O319   C912    1.270   1_545 S
O319   Zn389   1.945   .     S
O320   Zn381   1.945   .     S
O321   Zn391   1.945   .     S
O321   C494    1.266   1_455 A
O322   Zn390   1.945   .     S
O323   C912    1.268   1_545 S
O323   Zn393   1.942   .     S
O324   Zn387   1.938   .     S
O324   Zn1175  1.931   1_545 S
O324   Zn389   1.931   .     S
O324   Zn393   1.938   .     S
O325   Zn392   1.942   .     S
O326   Zn384   1.914   .     S
O327   Zn383   1.914   .     S
O328   Zn386   1.917   .     S
O329   Zn385   1.917   .     S
O330   Zn388   1.915   .     S
O331   Zn387   1.915   .     S
O332   Zn382   1.920   .     S
O333   Zn396   1.920   .     S
O334   Zn383   1.920   .     S
O335   Zn390   1.931   .     S
O335   Zn382   1.931   .     S
O335   Zn394   1.938   .     S
O335   Zn782   1.938   1_455 S
O336   Zn384   1.920   .     S
O337   Zn396   1.914   .     S
O338   Zn382   1.914   .     S
O339   Zn387   1.917   .     S
O340   Zn388   1.917   .     S
O341   Zn385   1.915   .     S
O342   Zn386   1.915   .     S
O343   Zn787   1.914   .     S
O344   Zn390   1.914   .     S
O345   Zn1185  1.917   .     S
O346   Zn395   1.938   .     S
O346   Zn385   1.938   .     S
O346   Zn391   1.931   .     S
O346   Zn792   1.931   1_455 S
O347   Zn392   1.917   .     S
O348   Zn395   1.915   .     S
O349   Zn790   1.915   .     S
O350   Zn389   1.920   .     S
O351   Zn1173  1.920   .     S
O352   Zn786   1.920   .     S
O353   Zn391   1.920   .     S
O354   Zn381   1.914   .     S
O355   Zn1181  1.914   .     S
O356   Zn394   1.917   .     S
O357   Zn388   1.942   .     S
O357   C793    1.276   .     S
O358   Zn791   1.917   .     S
O359   Zn1184  1.915   .     S
O360   Zn393   1.915   .     S
O361   C404    1.421   1_455 S
O364   C807    1.417   1_545 S
O365   C413    1.417   .     S
O368   Zn387   1.942   .     S
O368   C857    1.268   1_545 S
O369   C815    1.421   .     S
O378   Zn382   1.945   .     S
O379   Zn396   1.945   .     S
O380   Zn384   1.945   .     S
Zn381  O1143   1.920   1_545 S
Zn383  O1116   1.931   .     S
Zn386  O731    1.938   .     S
Zn388  O1105   1.938   .     S
Zn389  O1147   1.914   1_545 S
Zn390  O748    1.920   1_455 S
Zn391  O739    1.914   1_455 S
Zn392  O1151   1.915   1_545 S
Zn393  O1137   1.917   1_545 S
Zn394  O745    1.915   1_455 S
Zn395  O754    1.917   1_455 S
Zn396  O742    1.931   .     S
C397   O776    1.266   .     A
C397   C504    1.459   .     S
C397   O1545   1.276   1_545 S
C398   C480    1.421   .     S
C398   O723    1.273   .     A
C398   O751    1.273   .     A
C399   N696    1.428   .     S
C399   C523    1.419   .     A
C399   C402    1.413   1_554 S
C400   N697    1.428   .     S
C400   C524    1.419   .     A
C400   C547    1.413   1_556 S
C401   C525    1.412   .     A
C401   N698    1.430   .     S
C401   C546    1.408   1_554 S
C402   C526    1.417   .     A
C402   N699    1.424   .     S
C402   C399    1.413   1_556 S
C403   C528    1.421   .     A
C403   N700    1.425   .     S
C403   C548    1.408   1_554 S
C404   H549    1.106   .     S
C404   H605    1.112   .     S
C404   C9      1.522   1_655 S
C404   O361    1.421   1_655 S
C405   H616    1.111   .     S
C405   H638    1.111   .     S
C406   C407    1.521   .     S
C406   O758    1.413   .     S
C406   H660    1.114   .     S
C406   H253    1.114   1_655 S
C407   H550    1.111   .     S
C407   H671    1.110   .     S
C407   H682    1.111   .     S
C408   O759    1.419   .     S
C408   H561    1.105   .     S
C408   C410    1.523   .     S
C408   H1364   1.109   .     S
C409   C479    1.425   .     S
C409   O724    1.275   .     A
C409   O748    1.276   .     A
C410   H583    1.108   .     S
C410   H600    1.111   .     S
C410   H594    1.110   .     S
C411   H602    1.109   .     S
C411   H601    1.112   .     S
C411   C1204   1.522   .     S
C411   O1552   1.417   .     S
C412   H603    1.111   .     S
C412   H606    1.109   .     S
C412   C1203   1.522   1_545 S
C412   H1396   1.111   1_545 S
C413   H608    1.109   .     S
C413   H607    1.112   .     S
C414   H609    1.111   .     S
C414   H611    1.109   .     S
C414   C17     1.522   1_655 S
C414   H214    1.110   1_655 S
C415   C416    1.523   .     S
C415   O762    1.419   .     S
C415   H612    1.105   .     S
C416   H615    1.110   .     S
C416   H617    1.111   .     S
C416   H614    1.108   .     S
C417   H619    1.114   .     S
C417   O763    1.413   .     S
C417   C418    1.521   .     S
C417   H1410   1.114   1_545 S
C418   H621    1.111   .     S
C418   H620    1.110   .     S
C418   H622    1.111   .     S
C419   H624    1.112   .     S
C419   H623    1.106   .     S
C419   C1213   1.522   1_545 S
C419   O1557   1.421   1_545 S
C420   O725    1.275   .     A
C420   C478    1.425   .     S
C420   O749    1.276   .     A
C421   H628    1.111   .     S
C421   H625    1.111   .     S
C421   C1211   1.522   .     S
C421   H1418   1.111   .     S
C422   H630    1.112   .     S
C422   O766    1.421   .     S
C422   C423    1.522   .     S
C422   H629    1.106   .     S
C423   H632    1.111   .     S
C423   H633    1.111   .     S
C423   H631    1.111   .     S
C424   O767    1.413   .     S
C424   C425    1.521   .     S
C424   H635    1.114   .     S
C424   H634    1.114   .     S
C425   H639    1.111   .     S
C425   H636    1.110   .     S
C425   H637    1.111   .     S
C426   O768    1.419   .     S
C426   C427    1.523   .     S
C426   H641    1.109   .     S
C426   H640    1.105   .     S
C427   H643    1.110   .     S
C427   H644    1.111   .     S
C427   H642    1.108   .     S
C428   H645    1.112   .     S
C428   C429    1.522   .     S
C428   H646    1.109   .     S
C428   O769    1.417   .     S
C429   H648    1.110   .     S
C429   H650    1.109   .     S
C429   H647    1.111   .     S
C430   H651    1.112   .     S
C430   H652    1.109   .     S
C430   C432    1.522   .     S
C430   O770    1.417   .     S
C431   O755    1.277   .     A
C431   C477    1.423   .     S
C431   O726    1.277   .     A
C432   H655    1.109   .     S
C432   H654    1.111   .     S
C432   H653    1.111   .     S
C433   O771    1.419   .     S
C433   C434    1.523   .     S
C433   H657    1.109   .     S
C433   H656    1.105   .     S
C434   H658    1.108   .     S
C434   H659    1.110   .     S
C434   H661    1.111   .     S
C435   C436    1.521   .     S
C435   H663    1.114   .     S
C435   O772    1.413   .     S
C435   H662    1.114   .     S
C436   H666    1.111   .     S
C436   H664    1.110   .     S
C436   H665    1.111   .     S
C437   H668    1.112   .     S
C437   H667    1.106   .     S
C437   C438    1.522   .     S
C437   O773    1.421   .     S
C438   H670    1.111   .     S
C438   H672    1.111   .     S
C438   H669    1.111   .     S
C439   N693    1.451   .     S
C439   H675    1.106   .     S
C439   H676    1.110   .     S
C439   H674    1.107   .     S
C440   H679    1.109   .     S
C440   N701    1.452   .     S
C440   H678    1.103   .     S
C441   H685    1.110   .     S
C441   H684    1.111   .     S
C441   N702    1.446   .     S
C441   H683    1.111   .     S
C442   O756    1.277   .     A
C442   C476    1.422   .     S
C442   O727    1.277   .     A
C443   H687    1.106   .     S
C443   N703    1.448   .     S
C443   H689    1.108   .     S
C443   H688    1.110   .     S
C444   H551    1.108   .     S
C444   H692    1.110   .     S
C444   N704    1.448   .     S
C444   H691    1.106   .     S
C445   H553    1.111   .     S
C445   H555    1.110   .     S
C445   N705    1.446   .     S
C445   H554    1.111   .     S
C446   H558    1.109   .     S
C446   H557    1.103   .     S
C446   N706    1.452   .     S
C446   H1351   1.111   .     S
C447   H563    1.106   .     S
C447   N707    1.451   .     S
C447   H564    1.110   .     S
C447   H562    1.107   .     S
C448   H566    1.107   .     S
C448   H568    1.110   .     S
C448   N708    1.451   .     S
C448   H567    1.106   .     S
C449   H573    1.111   .     S
C449   N694    1.452   .     S
C449   H571    1.109   .     S
C449   H570    1.103   .     S
C450   H577    1.110   .     S
C450   H575    1.112   .     S
C450   N695    1.446   .     S
C450   H576    1.111   .     S
C451   H580    1.110   .     S
C451   H579    1.106   .     S
C451   H581    1.108   .     S
C451   N696    1.448   .     S
C452   N697    1.448   .     S
C452   H586    1.108   .     S
C452   H584    1.106   .     S
C452   H585    1.110   .     S
C453   O752    1.275   .     A
C453   O728    1.276   .     A
C453   C484    1.425   .     S
C454   H589    1.111   .     S
C454   H590    1.110   .     S
C454   N698    1.446   .     S
C454   H588    1.111   .     S
C455   N699    1.452   .     S
C455   H592    1.103   .     S
C455   H595    1.111   .     S
C455   H593    1.109   .     S
C456   H598    1.106   .     S
C456   N700    1.451   .     S
C456   H597    1.107   .     S
C456   H599    1.110   .     S
C457   O754    1.275   .     A
C457   O729    1.276   .     A
C457   C482    1.425   .     S
C458   C473    1.425   .     S
C458   O730    1.276   .     A
C458   O741    1.275   .     A
C459   C471    1.425   .     S
C459   O743    1.275   .     A
C459   O732    1.276   .     A
C460   C470    1.421   .     S
C460   O733    1.273   .     A
C460   O739    1.273   .     A
C461   O710    1.270   .     A
C461   C1298   1.457   .     S
C461   O1556   1.268   .     S
C462   O734    1.273   .     A
C462   C469    1.421   .     S
C462   O740    1.273   .     A
C463   C468    1.425   .     S
C463   O746    1.276   .     A
C463   O735    1.275   .     A
C464   O747    1.276   .     A
C464   C467    1.425   .     S
C464   O736    1.275   .     A
C465   C475    1.423   .     S
C465   O744    1.277   .     A
C465   O737    1.277   .     A
C466   O738    1.277   .     A
C466   C474    1.422   .     S
C466   O745    1.277   .     A
C467   C484    1.200   .     T
C468   C482    1.200   .     T
C469   C481    1.198   .     T
C470   C480    1.198   .     T
C471   C479    1.200   .     T
C472   O774    1.270   .     A
C473   C478    1.200   .     T
C474   C477    1.198   .     T
C475   C476    1.198   .     T
C481   C538    1.421   .     S
C483   O775    1.266   .     A
C483   C503    1.459   .     S
C483   O316    1.276   1_655 S
C485   C515    1.416   .     A
C485   O757    1.388   .     S
C486   C503    1.401   .     A
C486   O758    1.387   .     S
C486   C517    1.408   .     A
C487   C518    1.425   .     A
C487   O759    1.394   .     S
C487   C1296   1.411   .     S
C488   C519    1.416   .     A
C488   C506    1.401   .     A
C488   O760    1.388   .     S
C489   C502    1.401   .     A
C489   C511    1.416   .     A
C489   O761    1.388   .     S
C490   C512    1.425   .     A
C490   O762    1.394   .     S
C491   C504    1.401   .     A
C491   C513    1.408   .     A
C491   O763    1.387   .     S
C492   O765    1.388   .     S
C492   C514    1.416   .     A
C492   C1298   1.402   .     S
C493   O766    1.388   .     S
C493   C524    1.416   .     A
C493   C507    1.402   .     A
C494   O317    1.276   1_655 A
C494   O321    1.266   1_655 A
C494   C509    1.459   .     S
C495   C525    1.408   .     A
C495   O767    1.387   .     S
C495   C1300   1.401   .     S
C496   C526    1.425   .     A
C496   O768    1.394   .     S
C496   C509    1.411   .     A
C497   O769    1.388   .     S
C497   C528    1.416   .     A
C498   O770    1.388   .     S
C498   C520    1.416   .     A
C498   C1299   1.401   .     S
C499   C508    1.411   .     A
C499   O771    1.394   .     S
C499   C521    1.425   .     A
C500   O772    1.387   .     S
C500   C522    1.408   .     A
C501   C523    1.416   .     A
C501   O773    1.388   .     S
C501   C510    1.402   .     A
C502   C76     1.457   1_655 S
C502   C89     1.402   1_655 S
C503   C94     1.411   1_655 S
C504   C1279   1.411   1_545 S
C505   O714    1.268   .     A
C505   O718    1.270   .     A
C506   C1253   1.457   1_545 S
C506   C1284   1.402   1_545 S
C507   C1290   1.401   1_545 S
C507   C1308   1.457   1_545 S
C508   C527    1.459   .     S
C508   C1287   1.401   1_545 S
C509   C104    1.401   1_655 S
C510   C109    1.457   1_655 S
C510   C101    1.401   1_655 S
C511   C537    1.421   .     A
C511   C529    1.428   .     A
C512   C539    1.417   .     A
C513   C531    1.415   .     A
C513   C540    1.412   .     A
C514   C541    1.419   .     A
C514   C1324   1.423   .     S
C515   C542    1.419   .     A
C516   C1299   1.457   .     S
C516   O1507   1.270   .     S
C516   O1511   1.268   .     S
C517   C543    1.412   .     A
C517   C530    1.415   .     A
C518   C544    1.417   .     A
C518   C1323   1.422   .     S
C519   C545    1.421   .     A
C519   C532    1.428   .     A
C520   C546    1.421   .     A
C520   C1325   1.428   .     S
C521   C534    1.422   .     A
C521   C547    1.417   .     A
C522   C548    1.412   .     A
C523   C536    1.423   .     A
C524   C533    1.423   .     A
C525   C1326   1.415   .     S
C526   C535    1.422   .     A
C527   O716    1.266   .     A
C527   O721    1.276   .     A
C529   C530    1.415   .     A
C529   C119    1.423   1_655 S
C530   C116    1.422   1_655 S
C531   C532    1.416   .     A
C531   C1310   1.422   1_545 S
C532   C1306   1.423   1_545 S
C533   C1312   1.428   1_545 S
C533   C534    1.416   1_556 S
C534   C1317   1.415   1_545 S
C534   C533    1.416   1_554 S
C535   C126    1.415   1_655 S
C535   C536    1.416   1_556 S
C536   C132    1.428   1_655 S
C536   C535    1.416   1_554 S
C537   C543    1.408   .     A
C537   N693    1.425   .     S
C538   O750    1.273   .     A
C538   O722    1.273   .     A
C539   C542    1.413   .     A
C539   N701    1.424   .     S
C540   N702    1.430   .     S
C540   C545    1.408   .     A
C541   C544    1.413   .     A
C541   N703    1.428   .     S
C542   N704    1.428   .     S
C543   N705    1.430   .     S
C544   N706    1.424   .     S
C545   N707    1.425   .     S
C546   N708    1.425   .     S
C546   C401    1.408   1_556 S
C547   N694    1.424   .     S
C547   C400    1.413   1_554 S
C548   N695    1.430   .     S
C548   C403    1.408   1_556 S
H552   N705    1.026   .     S
H556   N706    1.029   .     S
H559   C1238   1.111   1_545 S
H560   N707    1.031   .     S
H565   N708    1.031   .     S
H569   N694    1.029   .     S
H572   C1200   1.109   1_545 S
H574   N695    1.026   .     S
H578   N696    1.031   .     S
H582   N697    1.031   .     S
H587   N698    1.026   .     S
H591   N699    1.029   .     S
H596   N700    1.031   .     S
H604   C1204   1.111   .     S
H613   C19     1.109   1_655 S
H618   C1209   1.114   .     S
H626   C1213   1.111   1_545 S
H627   C9      1.110   1_655 S
H673   N693    1.031   .     S
H677   N701    1.029   .     S
H680   C44     1.111   1_655 S
H681   N702    1.026   .     S
H686   N703    1.031   .     S
H690   N704    1.031   .     S
O709   Zn780   1.931   .     S
O709   Zn777   1.931   .     S
O709   Zn1576  1.938   1_545 S
O709   Zn788   1.938   .     S
O710   Zn779   1.945   .     S
O711   Zn782   1.942   .     S
O711   C76     1.268   1_655 S
O712   Zn781   1.942   .     S
O713   Zn791   1.942   .     S
O714   Zn790   1.942   .     S
O715   C1308   1.270   1_545 S
O715   Zn785   1.945   .     S
O716   Zn777   1.945   .     S
O717   Zn787   1.945   .     S
O718   Zn786   1.945   .     S
O719   C1308   1.268   1_545 S
O719   Zn789   1.942   .     S
O720   Zn783   1.938   .     S
O720   Zn1571  1.931   1_545 S
O720   Zn785   1.931   .     S
O720   Zn789   1.938   .     S
O721   Zn788   1.942   .     S
O722   Zn780   1.914   .     S
O723   Zn779   1.914   .     S
O724   Zn782   1.917   .     S
O725   Zn781   1.917   .     S
O726   Zn784   1.915   .     S
O727   Zn783   1.915   .     S
O728   Zn778   1.920   .     S
O729   Zn792   1.920   .     S
O730   Zn779   1.920   .     S
O731   Zn786   1.931   .     S
O731   Zn778   1.931   .     S
O731   Zn790   1.938   .     S
O732   Zn780   1.920   .     S
O733   Zn792   1.914   .     S
O734   Zn778   1.914   .     S
O735   Zn783   1.917   .     S
O736   Zn784   1.917   .     S
O737   Zn781   1.915   .     S
O738   Zn782   1.915   .     S
O739   Zn391   1.914   1_655 S
O740   Zn786   1.914   .     S
O741   Zn1581  1.917   .     S
O742   Zn791   1.938   .     S
O742   Zn781   1.938   .     S
O742   Zn787   1.931   .     S
O743   Zn788   1.917   .     S
O744   Zn791   1.915   .     S
O745   Zn394   1.915   1_655 S
O746   Zn785   1.920   .     S
O747   Zn1569  1.920   .     S
O748   Zn390   1.920   1_655 S
O749   Zn787   1.920   .     S
O750   Zn777   1.914   .     S
O751   Zn1577  1.914   .     S
O752   Zn790   1.917   .     S
O753   Zn784   1.942   .     S
O753   C1189   1.276   .     S
O754   Zn395   1.917   1_655 S
O755   Zn1580  1.915   .     S
O756   Zn789   1.915   .     S
O760   C1203   1.417   1_545 S
O761   C17     1.417   1_655 S
O764   Zn783   1.942   .     S
O764   C1253   1.268   1_545 S
O765   C1211   1.421   .     S
O774   Zn778   1.945   .     S
O775   Zn792   1.945   .     S
O776   Zn780   1.945   .     S
Zn777  O1539   1.920   1_545 S
Zn779  O1512   1.931   .     S
Zn782  O335    1.938   1_655 S
Zn784  O1501   1.938   .     S
Zn785  O1543   1.914   1_545 S
Zn788  O1547   1.915   1_545 S
Zn789  O1533   1.917   1_545 S
Zn792  O346    1.931   1_655 S
C793   O1172   1.266   .     A
C793   C900    1.459   .     S
C794   C876    1.421   .     S
C794   O1119   1.273   .     A
C794   O1147   1.273   .     A
C795   N1092   1.428   .     S
C795   C919    1.419   .     A
C795   C798    1.413   1_554 S
C796   N1093   1.428   .     S
C796   C920    1.419   .     A
C796   C943    1.413   1_556 S
C797   C921    1.412   .     A
C797   N1094   1.430   .     S
C797   C942    1.408   1_554 S
C798   C922    1.417   .     A
C798   N1095   1.424   .     S
C798   C795    1.413   1_556 S
C799   C924    1.421   .     A
C799   N1096   1.425   .     S
C799   C944    1.408   1_554 S
C800   H945    1.106   .     S
C800   H1001   1.112   .     S
C800   C1197   1.522   .     S
C800   O1549   1.421   .     S
C801   H1012   1.111   .     S
C801   H1034   1.111   .     S
C801   C1196   1.522   1_455 S
C801   H1419   1.110   1_455 S
C802   C803    1.521   .     S
C802   O1154   1.413   .     S
C802   H1056   1.114   .     S
C802   H1441   1.114   .     S
C803   H946    1.111   .     S
C803   H1067   1.110   .     S
C803   H1078   1.111   .     S
C804   O1155   1.419   .     S
C804   H957    1.105   .     S
C804   C806    1.523   .     S
C804   H176    1.109   1_565 S
C805   C875    1.425   .     S
C805   O1120   1.275   .     A
C805   O1144   1.276   .     A
C806   H979    1.108   .     S
C806   H996    1.111   .     S
C806   H990    1.110   .     S
C807   H998    1.109   .     S
C807   H997    1.112   .     S
C807   C16     1.522   1_565 S
C807   O364    1.417   1_565 S
C808   H999    1.111   .     S
C808   H1002   1.109   .     S
C809   H1004   1.109   .     S
C809   H1003   1.112   .     S
C809   C1206   1.522   1_455 S
C809   O1553   1.417   1_455 S
C810   H1005   1.111   .     S
C810   H1007   1.109   .     S
C810   C1205   1.522   .     S
C810   H1402   1.110   .     S
C811   C812    1.523   .     S
C811   O1158   1.419   .     S
C811   H1008   1.105   .     S
C811   H1405   1.109   1_455 S
C812   H1011   1.110   .     S
C812   H1013   1.111   .     S
C812   H1010   1.108   .     S
C813   H1015   1.114   .     S
C813   O1159   1.413   .     S
C813   C814    1.521   .     S
C814   H1017   1.111   .     S
C814   H1016   1.110   .     S
C814   H1018   1.111   .     S
C815   H1020   1.112   .     S
C815   H1019   1.106   .     S
C816   O1121   1.275   .     A
C816   C874    1.425   .     S
C816   O1145   1.276   .     A
C817   H1024   1.111   .     S
C817   H1021   1.111   .     S
C817   C23     1.522   1_565 S
C817   H230    1.111   1_565 S
C818   H1026   1.112   .     S
C818   O1162   1.421   .     S
C818   C819    1.522   .     S
C818   H1025   1.106   .     S
C819   H1028   1.111   .     S
C819   H1029   1.111   .     S
C819   H1027   1.111   .     S
C820   O1163   1.413   .     S
C820   C821    1.521   .     S
C820   H1031   1.114   .     S
C820   H1030   1.114   .     S
C821   H1035   1.111   .     S
C821   H1032   1.110   .     S
C821   H1033   1.111   .     S
C822   O1164   1.419   .     S
C822   C823    1.523   .     S
C822   H1037   1.109   .     S
C822   H1036   1.105   .     S
C823   H1039   1.110   .     S
C823   H1040   1.111   .     S
C823   H1038   1.108   .     S
C824   H1041   1.112   .     S
C824   C825    1.522   .     S
C824   H1042   1.109   .     S
C824   O1165   1.417   .     S
C825   H1044   1.110   .     S
C825   H1046   1.109   .     S
C825   H1043   1.111   .     S
C826   H1047   1.112   .     S
C826   H1048   1.109   .     S
C826   C828    1.522   .     S
C826   O1166   1.417   .     S
C827   O1151   1.277   .     A
C827   C873    1.423   .     S
C827   O1122   1.277   .     A
C828   H1051   1.109   .     S
C828   H1050   1.111   .     S
C828   H1049   1.111   .     S
C829   O1167   1.419   .     S
C829   C830    1.523   .     S
C829   H1053   1.109   .     S
C829   H1052   1.105   .     S
C830   H1054   1.108   .     S
C830   H1055   1.110   .     S
C830   H1057   1.111   .     S
C831   C832    1.521   .     S
C831   H1059   1.114   .     S
C831   O1168   1.413   .     S
C831   H1058   1.114   .     S
C832   H1062   1.111   .     S
C832   H1060   1.110   .     S
C832   H1061   1.111   .     S
C833   H1064   1.112   .     S
C833   H1063   1.106   .     S
C833   C834    1.522   .     S
C833   O1169   1.421   .     S
C834   H1066   1.111   .     S
C834   H1068   1.111   .     S
C834   H1065   1.111   .     S
C835   N1089   1.451   .     S
C835   H1071   1.106   .     S
C835   H1072   1.110   .     S
C835   H1070   1.107   .     S
C836   H1075   1.109   .     S
C836   N1097   1.452   .     S
C836   H1074   1.103   .     S
C836   H1472   1.111   1_455 S
C837   H1081   1.110   .     S
C837   H1080   1.111   .     S
C837   N1098   1.446   .     S
C837   H1079   1.111   .     S
C838   O1152   1.277   .     A
C838   C872    1.422   .     S
C838   O1123   1.277   .     A
C839   H1083   1.106   .     S
C839   N1099   1.448   .     S
C839   H1085   1.108   .     S
C839   H1084   1.110   .     S
C840   H947    1.108   .     S
C840   H1088   1.110   .     S
C840   N1100   1.448   .     S
C840   H1087   1.106   .     S
C841   H949    1.111   .     S
C841   H951    1.110   .     S
C841   N1101   1.446   .     S
C841   H950    1.111   .     S
C842   H954    1.109   .     S
C842   H953    1.103   .     S
C842   N1102   1.452   .     S
C842   H163    1.111   1_565 S
C843   H959    1.106   .     S
C843   N1103   1.451   .     S
C843   H960    1.110   .     S
C843   H958    1.107   .     S
C844   H962    1.107   .     S
C844   H964    1.110   .     S
C844   N1104   1.451   .     S
C844   H963    1.106   .     S
C845   H969    1.111   .     S
C845   N1090   1.452   .     S
C845   H967    1.109   .     S
C845   H966    1.103   .     S
C846   H973    1.110   .     S
C846   H971    1.112   .     S
C846   N1091   1.446   .     S
C846   H972    1.111   .     S
C847   H976    1.110   .     S
C847   H975    1.106   .     S
C847   H977    1.108   .     S
C847   N1092   1.448   .     S
C848   N1093   1.448   .     S
C848   H982    1.108   .     S
C848   H980    1.106   .     S
C848   H981    1.110   .     S
C849   O1148   1.275   .     A
C849   O1124   1.276   .     A
C849   C880    1.425   .     S
C850   H985    1.111   .     S
C850   H986    1.110   .     S
C850   N1094   1.446   .     S
C850   H984    1.111   .     S
C851   N1095   1.452   .     S
C851   H988    1.103   .     S
C851   H991    1.111   .     S
C851   H989    1.109   .     S
C852   H994    1.106   .     S
C852   N1096   1.451   .     S
C852   H993    1.107   .     S
C852   H995    1.110   .     S
C853   O1150   1.275   .     A
C853   O1125   1.276   .     A
C853   C878    1.425   .     S
C854   C869    1.425   .     S
C854   O1126   1.276   .     A
C854   O1137   1.275   .     A
C855   C867    1.425   .     S
C855   O1139   1.275   .     A
C855   O1128   1.276   .     A
C856   C866    1.421   .     S
C856   O1129   1.273   .     A
C856   O1135   1.273   .     A
C857   O1106   1.270   .     A
C857   C110    1.457   1_565 S
C857   O368    1.268   1_565 S
C858   O1130   1.273   .     A
C858   C865    1.421   .     S
C858   O1136   1.273   .     A
C859   C864    1.425   .     S
C859   O1142   1.276   .     A
C859   O1131   1.275   .     A
C860   O1143   1.276   .     A
C860   C863    1.425   .     S
C860   O1132   1.275   .     A
C861   C871    1.423   .     S
C861   O1140   1.277   .     A
C861   O1133   1.277   .     A
C862   O1134   1.277   .     A
C862   C870    1.422   .     S
C862   O1141   1.277   .     A
C863   C880    1.200   .     T
C864   C878    1.200   .     T
C865   C877    1.198   .     T
C866   C876    1.198   .     T
C867   C875    1.200   .     T
C868   O1170   1.270   .     A
C868   C1294   1.457   1_455 S
C868   O1503   1.268   1_455 S
C869   C874    1.200   .     T
C870   C873    1.198   .     T
C871   C872    1.198   .     T
C877   C934    1.421   .     S
C879   O1171   1.266   .     A
C879   C899    1.459   .     S
C879   O1504   1.276   .     S
C881   C911    1.416   .     A
C881   O1153   1.388   .     S
C881   C1294   1.402   1_455 S
C882   C899    1.401   .     A
C882   O1154   1.387   .     S
C882   C913    1.408   .     A
C883   C914    1.425   .     A
C883   O1155   1.394   .     S
C883   C108    1.411   1_565 S
C884   C915    1.416   .     A
C884   C902    1.401   .     A
C884   O1156   1.388   .     S
C885   C898    1.401   .     A
C885   C907    1.416   .     A
C885   O1157   1.388   .     S
C886   C908    1.425   .     A
C886   O1158   1.394   .     S
C886   C1295   1.411   1_455 S
C887   C900    1.401   .     A
C887   C909    1.408   .     A
C887   O1159   1.387   .     S
C888   O1161   1.388   .     S
C888   C910    1.416   .     A
C888   C110    1.402   1_565 S
C889   O1162   1.388   .     S
C889   C920    1.416   .     A
C889   C903    1.402   .     A
C890   O1505   1.276   .     A
C890   O1509   1.266   .     A
C890   C905    1.459   .     S
C891   C921    1.408   .     A
C891   O1163   1.387   .     S
C891   C112    1.401   1_565 S
C892   C922    1.425   .     A
C892   O1164   1.394   .     S
C892   C905    1.411   .     A
C893   O1165   1.388   .     S
C893   C924    1.416   .     A
C893   C1302   1.401   1_455 S
C894   O1166   1.388   .     S
C894   C916    1.416   .     A
C894   C111    1.401   1_565 S
C895   C904    1.411   .     A
C895   O1167   1.394   .     S
C895   C917    1.425   .     A
C896   O1168   1.387   .     S
C896   C918    1.408   .     A
C896   C1301   1.401   1_455 S
C897   C919    1.416   .     A
C897   O1169   1.388   .     S
C897   C906    1.402   .     A
C898   C1264   1.457   .     S
C898   C1277   1.402   .     S
C899   C1282   1.411   .     S
C901   O1110   1.268   .     A
C901   O1114   1.270   .     A
C901   C1302   1.457   1_455 S
C904   C923    1.459   .     S
C905   C1292   1.401   .     S
C906   C1297   1.457   .     S
C906   C1289   1.401   .     S
C907   C933    1.421   .     A
C907   C925    1.428   .     A
C908   C935    1.417   .     A
C908   C1322   1.422   1_455 S
C909   C927    1.415   .     A
C909   C936    1.412   .     A
C910   C937    1.419   .     A
C910   C136    1.423   1_565 S
C911   C938    1.419   .     A
C911   C1321   1.423   1_455 S
C912   C111    1.457   1_565 S
C912   O319    1.270   1_565 S
C912   O323    1.268   1_565 S
C913   C939    1.412   .     A
C913   C926    1.415   .     A
C914   C940    1.417   .     A
C914   C135    1.422   1_565 S
C915   C941    1.421   .     A
C915   C928    1.428   .     A
C916   C942    1.421   .     A
C916   C137    1.428   1_565 S
C917   C930    1.422   .     A
C917   C943    1.417   .     A
C918   C944    1.412   .     A
C918   C1327   1.415   1_455 S
C919   C932    1.423   .     A
C920   C929    1.423   .     A
C921   C138    1.415   1_565 S
C922   C931    1.422   .     A
C923   O1112   1.266   .     A
C923   O1117   1.276   .     A
C924   C1328   1.428   1_455 S
C925   C926    1.415   .     A
C925   C1307   1.423   .     S
C926   C1304   1.422   .     S
C927   C928    1.416   .     A
C929   C930    1.416   1_556 S
C930   C929    1.416   1_554 S
C931   C1314   1.415   .     S
C931   C932    1.416   1_556 S
C932   C1320   1.428   .     S
C932   C931    1.416   1_554 S
C933   C939    1.408   .     A
C933   N1089   1.425   .     S
C934   O1146   1.273   .     A
C934   O1118   1.273   .     A
C935   C938    1.413   .     A
C935   N1097   1.424   .     S
C936   N1098   1.430   .     S
C936   C941    1.408   .     A
C937   C940    1.413   .     A
C937   N1099   1.428   .     S
C938   N1100   1.428   .     S
C939   N1101   1.430   .     S
C940   N1102   1.424   .     S
C941   N1103   1.425   .     S
C942   N1104   1.425   .     S
C942   C797    1.408   1_556 S
C943   N1090   1.424   .     S
C943   C796    1.413   1_554 S
C944   N1091   1.430   .     S
C944   C799    1.408   1_556 S
H948   N1101   1.026   .     S
H952   N1102   1.029   .     S
H956   N1103   1.031   .     S
H961   N1104   1.031   .     S
H965   N1090   1.029   .     S
H970   N1091   1.026   .     S
H974   N1092   1.031   .     S
H978   N1093   1.031   .     S
H983   N1094   1.026   .     S
H987   N1095   1.029   .     S
H992   N1096   1.031   .     S
H1000  C16     1.111   1_565 S
H1006  C1206   1.110   1_455 S
H1009  C1207   1.109   .     S
H1014  C21     1.114   1_565 S
H1023  C1197   1.110   .     S
H1045  C1198   1.114   1_455 S
H1069  N1089   1.031   .     S
H1073  N1097   1.029   .     S
H1076  C1232   1.111   .     S
H1077  N1098   1.026   .     S
H1082  N1099   1.031   .     S
H1086  N1100   1.031   .     S
O1105  Zn1176  1.931   .     S
O1105  Zn1173  1.931   .     S
O1105  Zn1184  1.938   .     S
O1106  Zn1175  1.945   .     S
O1107  Zn1178  1.942   .     S
O1107  C1264   1.268   .     S
O1108  Zn1177  1.942   .     S
O1108  C1275   1.276   1_455 S
O1109  C1286   1.276   1_455 A
O1109  Zn1187  1.942   .     S
O1110  Zn1186  1.942   .     S
O1111  Zn1181  1.945   .     S
O1112  Zn1173  1.945   .     S
O1113  Zn1183  1.945   .     S
O1113  C1286   1.266   1_455 A
O1114  Zn1182  1.945   .     S
O1115  Zn1185  1.942   .     S
O1116  Zn1179  1.938   .     S
O1116  Zn1181  1.931   .     S
O1116  Zn1185  1.938   .     S
O1117  Zn1184  1.942   .     S
O1118  Zn1176  1.914   .     S
O1119  Zn1175  1.914   .     S
O1120  Zn1178  1.917   .     S
O1121  Zn1177  1.917   .     S
O1122  Zn1180  1.915   .     S
O1123  Zn1179  1.915   .     S
O1124  Zn1174  1.920   .     S
O1125  Zn1188  1.920   .     S
O1126  Zn1175  1.920   .     S
O1127  Zn1182  1.931   .     S
O1127  Zn1174  1.931   .     S
O1127  Zn1186  1.938   .     S
O1127  Zn1574  1.938   1_455 S
O1128  Zn1176  1.920   .     S
O1129  Zn1188  1.914   .     S
O1130  Zn1174  1.914   .     S
O1131  Zn1179  1.917   .     S
O1132  Zn1180  1.917   .     S
O1133  Zn1177  1.915   .     S
O1134  Zn1178  1.915   .     S
O1135  Zn1579  1.914   .     S
O1136  Zn1182  1.914   .     S
O1137  Zn393   1.917   1_565 S
O1138  Zn1187  1.938   .     S
O1138  Zn1177  1.938   .     S
O1138  Zn1183  1.931   .     S
O1138  Zn1584  1.931   1_455 S
O1139  Zn1184  1.917   .     S
O1140  Zn1187  1.915   .     S
O1141  Zn1582  1.915   .     S
O1142  Zn1181  1.920   .     S
O1143  Zn381   1.920   1_565 S
O1144  Zn1578  1.920   .     S
O1145  Zn1183  1.920   .     S
O1146  Zn1173  1.914   .     S
O1147  Zn389   1.914   1_565 S
O1148  Zn1186  1.917   .     S
O1149  Zn1180  1.942   .     S
O1149  C1      1.276   1_565 S
O1150  Zn1583  1.917   .     S
O1151  Zn392   1.915   1_565 S
O1152  Zn1185  1.915   .     S
O1153  C1196   1.421   1_455 S
O1157  C1205   1.417   .     S
O1160  Zn1179  1.942   .     S
O1161  C23     1.421   1_565 S
O1170  Zn1174  1.945   .     S
O1171  Zn1188  1.945   .     S
O1172  Zn1176  1.945   .     S
Zn1175 O324    1.931   1_565 S
Zn1178 O1523   1.938   .     S
Zn1180 O313    1.938   1_565 S
Zn1182 O1540   1.920   1_455 S
Zn1183 O1531   1.914   1_455 S
Zn1186 O1537   1.915   1_455 S
Zn1187 O1546   1.917   1_455 S
Zn1188 O1534   1.931   .     S
C1189  O1568   1.266   .     A
C1189  C1296   1.459   .     S
C1190  C1272   1.421   .     S
C1190  O1515   1.273   .     A
C1190  O1543   1.273   .     A
C1191  N1488   1.428   .     S
C1191  C1315   1.419   .     A
C1191  C1194   1.413   1_554 S
C1192  N1489   1.428   .     S
C1192  C1316   1.419   .     A
C1192  C1339   1.413   1_556 S
C1193  C1317   1.412   .     A
C1193  N1490   1.430   .     S
C1193  C1338   1.408   1_554 S
C1194  C1318   1.417   .     A
C1194  N1491   1.424   .     S
C1194  C1191   1.413   1_556 S
C1195  C1320   1.421   .     A
C1195  N1492   1.425   .     S
C1195  C1340   1.408   1_554 S
C1196  H1341   1.106   .     S
C1196  H1397   1.112   .     S
C1196  C801    1.522   1_655 S
C1196  O1153   1.421   1_655 S
C1197  H1408   1.111   .     S
C1197  H1430   1.111   .     S
C1198  C1199   1.521   .     S
C1198  O1550   1.413   .     S
C1198  H1452   1.114   .     S
C1198  H1045   1.114   1_655 S
C1199  H1342   1.111   .     S
C1199  H1463   1.110   .     S
C1199  H1474   1.111   .     S
C1200  O1551   1.419   .     S
C1200  H1353   1.105   .     S
C1200  C1202   1.523   .     S
C1200  H572    1.109   1_565 S
C1201  C1271   1.425   .     S
C1201  O1516   1.275   .     A
C1201  O1540   1.276   .     A
C1202  H1375   1.108   .     S
C1202  H1392   1.111   .     S
C1202  H1386   1.110   .     S
C1203  H1394   1.109   .     S
C1203  H1393   1.112   .     S
C1203  C412    1.522   1_565 S
C1203  O760    1.417   1_565 S
C1204  H1395   1.111   .     S
C1204  H1398   1.109   .     S
C1205  H1400   1.109   .     S
C1205  H1399   1.112   .     S
C1206  H1401   1.111   .     S
C1206  H1403   1.109   .     S
C1206  C809    1.522   1_655 S
C1206  H1006   1.110   1_655 S
C1207  C1208   1.523   .     S
C1207  O1554   1.419   .     S
C1207  H1404   1.105   .     S
C1208  H1407   1.110   .     S
C1208  H1409   1.111   .     S
C1208  H1406   1.108   .     S
C1209  H1411   1.114   .     S
C1209  O1555   1.413   .     S
C1209  C1210   1.521   .     S
C1210  H1413   1.111   .     S
C1210  H1412   1.110   .     S
C1210  H1414   1.111   .     S
C1211  H1416   1.112   .     S
C1211  H1415   1.106   .     S
C1212  O1517   1.275   .     A
C1212  C1270   1.425   .     S
C1212  O1541   1.276   .     A
C1213  H1420   1.111   .     S
C1213  H1417   1.111   .     S
C1213  C419    1.522   1_565 S
C1213  H626    1.111   1_565 S
C1214  H1422   1.112   .     S
C1214  O1558   1.421   .     S
C1214  C1215   1.522   .     S
C1214  H1421   1.106   .     S
C1215  H1424   1.111   .     S
C1215  H1425   1.111   .     S
C1215  H1423   1.111   .     S
C1216  O1559   1.413   .     S
C1216  C1217   1.521   .     S
C1216  H1427   1.114   .     S
C1216  H1426   1.114   .     S
C1217  H1431   1.111   .     S
C1217  H1428   1.110   .     S
C1217  H1429   1.111   .     S
C1218  O1560   1.419   .     S
C1218  C1219   1.523   .     S
C1218  H1433   1.109   .     S
C1218  H1432   1.105   .     S
C1219  H1435   1.110   .     S
C1219  H1436   1.111   .     S
C1219  H1434   1.108   .     S
C1220  H1437   1.112   .     S
C1220  C1221   1.522   .     S
C1220  H1438   1.109   .     S
C1220  O1561   1.417   .     S
C1221  H1440   1.110   .     S
C1221  H1442   1.109   .     S
C1221  H1439   1.111   .     S
C1222  H1443   1.112   .     S
C1222  H1444   1.109   .     S
C1222  C1224   1.522   .     S
C1222  O1562   1.417   .     S
C1223  O1547   1.277   .     A
C1223  C1269   1.423   .     S
C1223  O1518   1.277   .     A
C1224  H1447   1.109   .     S
C1224  H1446   1.111   .     S
C1224  H1445   1.111   .     S
C1225  O1563   1.419   .     S
C1225  C1226   1.523   .     S
C1225  H1449   1.109   .     S
C1225  H1448   1.105   .     S
C1226  H1450   1.108   .     S
C1226  H1451   1.110   .     S
C1226  H1453   1.111   .     S
C1227  C1228   1.521   .     S
C1227  H1455   1.114   .     S
C1227  O1564   1.413   .     S
C1227  H1454   1.114   .     S
C1228  H1458   1.111   .     S
C1228  H1456   1.110   .     S
C1228  H1457   1.111   .     S
C1229  H1460   1.112   .     S
C1229  H1459   1.106   .     S
C1229  C1230   1.522   .     S
C1229  O1565   1.421   .     S
C1230  H1462   1.111   .     S
C1230  H1464   1.111   .     S
C1230  H1461   1.111   .     S
C1231  N1485   1.451   .     S
C1231  H1467   1.106   .     S
C1231  H1468   1.110   .     S
C1231  H1466   1.107   .     S
C1232  H1471   1.109   .     S
C1232  N1493   1.452   .     S
C1232  H1470   1.103   .     S
C1233  H1477   1.110   .     S
C1233  H1476   1.111   .     S
C1233  N1494   1.446   .     S
C1233  H1475   1.111   .     S
C1234  O1548   1.277   .     A
C1234  C1268   1.422   .     S
C1234  O1519   1.277   .     A
C1235  H1479   1.106   .     S
C1235  N1495   1.448   .     S
C1235  H1481   1.108   .     S
C1235  H1480   1.110   .     S
C1236  H1343   1.108   .     S
C1236  H1484   1.110   .     S
C1236  N1496   1.448   .     S
C1236  H1483   1.106   .     S
C1237  H1345   1.111   .     S
C1237  H1347   1.110   .     S
C1237  N1497   1.446   .     S
C1237  H1346   1.111   .     S
C1238  H1350   1.109   .     S
C1238  H1349   1.103   .     S
C1238  N1498   1.452   .     S
C1238  H559    1.111   1_565 S
C1239  H1355   1.106   .     S
C1239  N1499   1.451   .     S
C1239  H1356   1.110   .     S
C1239  H1354   1.107   .     S
C1240  H1358   1.107   .     S
C1240  H1360   1.110   .     S
C1240  N1500   1.451   .     S
C1240  H1359   1.106   .     S
C1241  H1365   1.111   .     S
C1241  N1486   1.452   .     S
C1241  H1363   1.109   .     S
C1241  H1362   1.103   .     S
C1242  H1369   1.110   .     S
C1242  H1367   1.112   .     S
C1242  N1487   1.446   .     S
C1242  H1368   1.111   .     S
C1243  H1372   1.110   .     S
C1243  H1371   1.106   .     S
C1243  H1373   1.108   .     S
C1243  N1488   1.448   .     S
C1244  N1489   1.448   .     S
C1244  H1378   1.108   .     S
C1244  H1376   1.106   .     S
C1244  H1377   1.110   .     S
C1245  O1544   1.275   .     A
C1245  O1520   1.276   .     A
C1245  C1276   1.425   .     S
C1246  H1381   1.111   .     S
C1246  H1382   1.110   .     S
C1246  N1490   1.446   .     S
C1246  H1380   1.111   .     S
C1247  N1491   1.452   .     S
C1247  H1384   1.103   .     S
C1247  H1387   1.111   .     S
C1247  H1385   1.109   .     S
C1248  H1390   1.106   .     S
C1248  N1492   1.451   .     S
C1248  H1389   1.107   .     S
C1248  H1391   1.110   .     S
C1249  O1546   1.275   .     A
C1249  O1521   1.276   .     A
C1249  C1274   1.425   .     S
C1250  C1265   1.425   .     S
C1250  O1522   1.276   .     A
C1250  O1533   1.275   .     A
C1251  C1263   1.425   .     S
C1251  O1535   1.275   .     A
C1251  O1524   1.276   .     A
C1252  C1262   1.421   .     S
C1252  O1525   1.273   .     A
C1252  O1531   1.273   .     A
C1253  O1502   1.270   .     A
C1253  C506    1.457   1_565 S
C1253  O764    1.268   1_565 S
C1254  O1526   1.273   .     A
C1254  C1261   1.421   .     S
C1254  O1532   1.273   .     A
C1255  C1260   1.425   .     S
C1255  O1538   1.276   .     A
C1255  O1527   1.275   .     A
C1256  O1539   1.276   .     A
C1256  C1259   1.425   .     S
C1256  O1528   1.275   .     A
C1257  C1267   1.423   .     S
C1257  O1536   1.277   .     A
C1257  O1529   1.277   .     A
C1258  O1530   1.277   .     A
C1258  C1266   1.422   .     S
C1258  O1537   1.277   .     A
C1259  C1276   1.200   .     T
C1260  C1274   1.200   .     T
C1261  C1273   1.198   .     T
C1262  C1272   1.198   .     T
C1263  C1271   1.200   .     T
C1264  O1566   1.270   .     A
C1265  C1270   1.200   .     T
C1266  C1269   1.198   .     T
C1267  C1268   1.198   .     T
C1273  C1330   1.421   .     S
C1275  O1567   1.266   .     A
C1275  C1295   1.459   .     S
C1275  O1108   1.276   1_655 S
C1277  C1307   1.416   .     A
C1277  O1549   1.388   .     S
C1278  C1295   1.401   .     A
C1278  O1550   1.387   .     S
C1278  C1309   1.408   .     A
C1279  C1310   1.425   .     A
C1279  O1551   1.394   .     S
C1279  C504    1.411   1_565 S
C1280  C1311   1.416   .     A
C1280  C1298   1.401   .     A
C1280  O1552   1.388   .     S
C1281  C1294   1.401   .     A
C1281  C1303   1.416   .     A
C1281  O1553   1.388   .     S
C1282  C1304   1.425   .     A
C1282  O1554   1.394   .     S
C1283  C1296   1.401   .     A
C1283  C1305   1.408   .     A
C1283  O1555   1.387   .     S
C1284  O1557   1.388   .     S
C1284  C1306   1.416   .     A
C1284  C506    1.402   1_565 S
C1285  O1558   1.388   .     S
C1285  C1316   1.416   .     A
C1285  C1299   1.402   .     A
C1286  O1109   1.276   1_655 A
C1286  O1113   1.266   1_655 A
C1286  C1301   1.459   .     S
C1287  C1317   1.408   .     A
C1287  O1559   1.387   .     S
C1287  C508    1.401   1_565 S
C1288  C1318   1.425   .     A
C1288  O1560   1.394   .     S
C1288  C1301   1.411   .     A
C1289  O1561   1.388   .     S
C1289  C1320   1.416   .     A
C1290  O1562   1.388   .     S
C1290  C1312   1.416   .     A
C1290  C507    1.401   1_565 S
C1291  C1300   1.411   .     A
C1291  O1563   1.394   .     S
C1291  C1313   1.425   .     A
C1292  O1564   1.387   .     S
C1292  C1314   1.408   .     A
C1293  C1315   1.416   .     A
C1293  O1565   1.388   .     S
C1293  C1302   1.402   .     A
C1294  C868    1.457   1_655 S
C1294  C881    1.402   1_655 S
C1295  C886    1.411   1_655 S
C1297  O1506   1.268   .     A
C1297  O1510   1.270   .     A
C1300  C1319   1.459   .     S
C1301  C896    1.401   1_655 S
C1302  C901    1.457   1_655 S
C1302  C893    1.401   1_655 S
C1303  C1329   1.421   .     A
C1303  C1321   1.428   .     A
C1304  C1331   1.417   .     A
C1305  C1323   1.415   .     A
C1305  C1332   1.412   .     A
C1306  C1333   1.419   .     A
C1306  C532    1.423   1_565 S
C1307  C1334   1.419   .     A
C1308  C507    1.457   1_565 S
C1308  O715    1.270   1_565 S
C1308  O719    1.268   1_565 S
C1309  C1335   1.412   .     A
C1309  C1322   1.415   .     A
C1310  C1336   1.417   .     A
C1310  C531    1.422   1_565 S
C1311  C1337   1.421   .     A
C1311  C1324   1.428   .     A
C1312  C1338   1.421   .     A
C1312  C533    1.428   1_565 S
C1313  C1326   1.422   .     A
C1313  C1339   1.417   .     A
C1314  C1340   1.412   .     A
C1315  C1328   1.423   .     A
C1316  C1325   1.423   .     A
C1317  C534    1.415   1_565 S
C1318  C1327   1.422   .     A
C1319  O1508   1.266   .     A
C1319  O1513   1.276   .     A
C1321  C1322   1.415   .     A
C1321  C911    1.423   1_655 S
C1322  C908    1.422   1_655 S
C1323  C1324   1.416   .     A
C1325  C1326   1.416   1_556 S
C1326  C1325   1.416   1_554 S
C1327  C918    1.415   1_655 S
C1327  C1328   1.416   1_556 S
C1328  C924    1.428   1_655 S
C1328  C1327   1.416   1_554 S
C1329  C1335   1.408   .     A
C1329  N1485   1.425   .     S
C1330  O1542   1.273   .     A
C1330  O1514   1.273   .     A
C1331  C1334   1.413   .     A
C1331  N1493   1.424   .     S
C1332  N1494   1.430   .     S
C1332  C1337   1.408   .     A
C1333  C1336   1.413   .     A
C1333  N1495   1.428   .     S
C1334  N1496   1.428   .     S
C1335  N1497   1.430   .     S
C1336  N1498   1.424   .     S
C1337  N1499   1.425   .     S
C1338  N1500   1.425   .     S
C1338  C1193   1.408   1_556 S
C1339  N1486   1.424   .     S
C1339  C1192   1.413   1_554 S
C1340  N1487   1.430   .     S
C1340  C1195   1.408   1_556 S
H1344  N1497   1.026   .     S
H1348  N1498   1.029   .     S
H1352  N1499   1.031   .     S
H1357  N1500   1.031   .     S
H1361  N1486   1.029   .     S
H1366  N1487   1.026   .     S
H1370  N1488   1.031   .     S
H1374  N1489   1.031   .     S
H1379  N1490   1.026   .     S
H1383  N1491   1.029   .     S
H1388  N1492   1.031   .     S
H1396  C412    1.111   1_565 S
H1405  C811    1.109   1_655 S
H1410  C417    1.114   1_565 S
H1419  C801    1.110   1_655 S
H1465  N1485   1.031   .     S
H1469  N1493   1.029   .     S
H1472  C836    1.111   1_655 S
H1473  N1494   1.026   .     S
H1478  N1495   1.031   .     S
H1482  N1496   1.031   .     S
O1501  Zn1572  1.931   .     S
O1501  Zn1569  1.931   .     S
O1501  Zn1580  1.938   .     S
O1502  Zn1571  1.945   .     S
O1503  Zn1574  1.942   .     S
O1503  C868    1.268   1_655 S
O1504  Zn1573  1.942   .     S
O1505  Zn1583  1.942   .     S
O1506  Zn1582  1.942   .     S
O1507  Zn1577  1.945   .     S
O1508  Zn1569  1.945   .     S
O1509  Zn1579  1.945   .     S
O1510  Zn1578  1.945   .     S
O1511  Zn1581  1.942   .     S
O1512  Zn1575  1.938   .     S
O1512  Zn1577  1.931   .     S
O1512  Zn1581  1.938   .     S
O1513  Zn1580  1.942   .     S
O1514  Zn1572  1.914   .     S
O1515  Zn1571  1.914   .     S
O1516  Zn1574  1.917   .     S
O1517  Zn1573  1.917   .     S
O1518  Zn1576  1.915   .     S
O1519  Zn1575  1.915   .     S
O1520  Zn1570  1.920   .     S
O1521  Zn1584  1.920   .     S
O1522  Zn1571  1.920   .     S
O1523  Zn1578  1.931   .     S
O1523  Zn1570  1.931   .     S
O1523  Zn1582  1.938   .     S
O1524  Zn1572  1.920   .     S
O1525  Zn1584  1.914   .     S
O1526  Zn1570  1.914   .     S
O1527  Zn1575  1.917   .     S
O1528  Zn1576  1.917   .     S
O1529  Zn1573  1.915   .     S
O1530  Zn1574  1.915   .     S
O1531  Zn1183  1.914   1_655 S
O1532  Zn1578  1.914   .     S
O1533  Zn789   1.917   1_565 S
O1534  Zn1583  1.938   .     S
O1534  Zn1573  1.938   .     S
O1534  Zn1579  1.931   .     S
O1535  Zn1580  1.917   .     S
O1536  Zn1583  1.915   .     S
O1537  Zn1186  1.915   1_655 S
O1538  Zn1577  1.920   .     S
O1539  Zn777   1.920   1_565 S
O1540  Zn1182  1.920   1_655 S
O1541  Zn1579  1.920   .     S
O1542  Zn1569  1.914   .     S
O1543  Zn785   1.914   1_565 S
O1544  Zn1582  1.917   .     S
O1545  Zn1576  1.942   .     S
O1545  C397    1.276   1_565 S
O1546  Zn1187  1.917   1_655 S
O1547  Zn788   1.915   1_565 S
O1548  Zn1581  1.915   .     S
O1553  C809    1.417   1_655 S
O1556  Zn1575  1.942   .     S
O1557  C419    1.421   1_565 S
O1566  Zn1570  1.945   .     S
O1567  Zn1584  1.945   .     S
O1568  Zn1572  1.945   .     S
Zn1571 O720    1.931   1_565 S
Zn1574 O1127   1.938   1_655 S
Zn1576 O709    1.938   1_565 S
Zn1584 O1138   1.931   1_655 S
