data_str_m1_o10_o16_pcu_sym.243
_audit_creation_date              2020-01-03
_audit_creation_method            'Materials Studio'
_symmetry_space_group_name_H-M    'P1'
_symmetry_Int_Tables_number       1
_symmetry_cell_setting            triclinic
loop_
_symmetry_equiv_pos_as_xyz
  x,y,z
_cell_length_a                    32.5232
_cell_length_b                    32.6577
_cell_length_c                    31.0459
_cell_angle_alpha                 96.3780
_cell_angle_beta                  74.3564
_cell_angle_gamma                 98.3477
loop_
_atom_site_label
_atom_site_type_symbol
_atom_site_fract_x
_atom_site_fract_y
_atom_site_fract_z
_atom_site_U_iso_or_equiv
_atom_site_adp_type
_atom_site_occupancy
C1     C     0.05277   0.15981   0.26002   0.00000  Uiso   1.00
C2     C     0.16682   0.15564   0.05951   0.00000  Uiso   1.00
C3     C     0.23546   0.13384   0.05637   0.00000  Uiso   1.00
C4     C     0.28082   0.17387   0.23997   0.00000  Uiso   1.00
C5     C     0.13869   0.19021   0.42027   0.00000  Uiso   1.00
C6     C     0.32676   0.17658   0.23579   0.00000  Uiso   1.00
C7     C     0.00742   0.15766   0.26415   0.00000  Uiso   1.00
C8     C     0.18000   0.32254   0.23787   0.00000  Uiso   1.00
C9     C     0.15074   0.01232   0.26460   0.00000  Uiso   1.00
C10    C     0.15672   0.05607   0.25963   0.00000  Uiso   1.00
C11    C     0.17642   0.27792   0.24034   0.00000  Uiso   1.00
C12    C     0.08327   0.19681   0.48969   0.00000  Uiso   1.00
C13    C     0.18554   0.14842   0.12935   0.00000  Uiso   1.00
C14    C     0.14902   0.18513   0.37087   0.00000  Uiso   1.00
C15    C     0.24925   0.13948   0.01088   0.00000  Uiso   1.00
C16    C     0.19478   0.14294   0.08081   0.00000  Uiso   1.00
C17    C     0.09722   0.19893   0.44359   0.00000  Uiso   1.00
C18    C     0.28481   0.16733   0.41854   0.00000  Uiso   1.00
C19    C     0.10991   0.18485   0.01314   0.00000  Uiso   1.00
C20    C     0.15240   0.17644   0.49100   0.00000  Uiso   1.00
C21    C     0.16747   0.18164   0.44436   0.00000  Uiso   1.00
C22    C     0.18020   0.16270   0.01346   0.00000  Uiso   1.00
C23    C     0.22320   0.15622   0.48930   0.00000  Uiso   1.00
C24    C     0.23907   0.16690   0.44443   0.00000  Uiso   1.00
C25    C     0.21113   0.17927   0.42284   0.00000  Uiso   1.00
H26    H     0.25725   0.12390   0.07298   0.00000  Uiso   1.00
H27    H     0.01596   0.19391   0.20952   0.00000  Uiso   1.00
H28    H     0.09767   0.01856   0.31706   0.00000  Uiso   1.00
H29    H     0.09088   0.31483   0.27686   0.00000  Uiso   1.00
H30    H     0.29254   0.16109   0.38234   0.00000  Uiso   1.00
H31    H     0.31888   0.14044   0.29088   0.00000  Uiso   1.00
H32    H     0.20754   0.00384   0.21378   0.00000  Uiso   1.00
H33    H     0.28077   0.13128   0.49333   0.00000  Uiso   1.00
H34    H     0.13590   0.16205   0.08055   0.00000  Uiso   1.00
H35    H     0.07484   0.20588   0.42591   0.00000  Uiso   1.00
H36    H     0.09609   0.18281   0.04856   0.00000  Uiso   1.00
H37    H     0.05096   0.20313   0.00724   0.00000  Uiso   1.00
H38    H     0.22464   0.18892   0.38918   0.00000  Uiso   1.00
N39    N     0.11241   0.32818   0.29560   0.00000  Uiso   1.00
O40    O     0.16667   0.16667   0.25000   0.00000  Uiso   1.00
O41    O     0.15451   0.12637   0.15458   0.00000  Uiso   1.00
O42    O     0.12940   0.20391   0.34968   0.00000  Uiso   1.00
O43    O     0.20824   0.17759   0.14606   0.00000  Uiso   1.00
O44    O     0.17451   0.15880   0.34968   0.00000  Uiso   1.00
O45    O     0.31423   0.17726   0.43652   0.00000  Uiso   1.00
O46    O     0.17930   0.08019   0.28213   0.00000  Uiso   1.00
O47    O     0.14632   0.26085   0.27013   0.00000  Uiso   1.00
O48    O     0.07412   0.13291   0.23413   0.00000  Uiso   1.00
O49    O     0.26693   0.19272   0.21360   0.00000  Uiso   1.00
O50    O     0.07071   0.18878   0.28213   0.00000  Uiso   1.00
O51    O     0.25491   0.15226   0.27013   0.00000  Uiso   1.00
O52    O     0.13760   0.06944   0.23413   0.00000  Uiso   1.00
O53    O     0.20345   0.25620   0.21360   0.00000  Uiso   1.00
Zn54   Zn    0.19338   0.13994   0.28734   0.00000  Uiso   1.00
Zn55   Zn    0.13379   0.12458   0.21875   0.00000  Uiso   1.00
Zn56   Zn    0.21056   0.19775   0.20657   0.00000  Uiso   1.00
Zn57   Zn    0.12893   0.20439   0.28733   0.00000  Uiso   1.00
C58    C     0.38610   0.15981   0.26002   0.00000  Uiso   1.00
C59    C     0.50015   0.15564   0.05951   0.00000  Uiso   1.00
C60    C     0.56879   0.13384   0.05637   0.00000  Uiso   1.00
C61    C     0.61415   0.17387   0.23997   0.00000  Uiso   1.00
C62    C     0.47202   0.19021   0.42027   0.00000  Uiso   1.00
C63    C     0.66010   0.17658   0.23579   0.00000  Uiso   1.00
C64    C     0.34076   0.15766   0.26415   0.00000  Uiso   1.00
C65    C     0.51333   0.32254   0.23787   0.00000  Uiso   1.00
C66    C     0.48407   0.01232   0.26460   0.00000  Uiso   1.00
C67    C     0.49006   0.05607   0.25963   0.00000  Uiso   1.00
C68    C     0.50975   0.27792   0.24034   0.00000  Uiso   1.00
C69    C     0.41660   0.19681   0.48969   0.00000  Uiso   1.00
C70    C     0.51888   0.14842   0.12935   0.00000  Uiso   1.00
C71    C     0.48235   0.18513   0.37087   0.00000  Uiso   1.00
C72    C     0.58258   0.13948   0.01088   0.00000  Uiso   1.00
C73    C     0.52812   0.14294   0.08081   0.00000  Uiso   1.00
C74    C     0.43055   0.19893   0.44359   0.00000  Uiso   1.00
C75    C     0.61815   0.16733   0.41854   0.00000  Uiso   1.00
C76    C     0.44324   0.18485   0.01314   0.00000  Uiso   1.00
C77    C     0.48573   0.17644   0.49100   0.00000  Uiso   1.00
C78    C     0.50080   0.18164   0.44436   0.00000  Uiso   1.00
C79    C     0.51354   0.16270   0.01346   0.00000  Uiso   1.00
C80    C     0.55653   0.15622   0.48930   0.00000  Uiso   1.00
C81    C     0.57240   0.16690   0.44443   0.00000  Uiso   1.00
C82    C     0.54446   0.17927   0.42284   0.00000  Uiso   1.00
H83    H     0.59059   0.12390   0.07298   0.00000  Uiso   1.00
H84    H     0.34929   0.19391   0.20952   0.00000  Uiso   1.00
H85    H     0.43101   0.01856   0.31706   0.00000  Uiso   1.00
H86    H     0.42421   0.31483   0.27686   0.00000  Uiso   1.00
H87    H     0.62587   0.16109   0.38234   0.00000  Uiso   1.00
H88    H     0.65222   0.14044   0.29088   0.00000  Uiso   1.00
H89    H     0.54087   0.00384   0.21378   0.00000  Uiso   1.00
H90    H     0.61410   0.13128   0.49333   0.00000  Uiso   1.00
H91    H     0.46923   0.16205   0.08055   0.00000  Uiso   1.00
H92    H     0.40817   0.20588   0.42591   0.00000  Uiso   1.00
H93    H     0.42943   0.18281   0.04856   0.00000  Uiso   1.00
H94    H     0.38430   0.20313   0.00724   0.00000  Uiso   1.00
H95    H     0.55797   0.18892   0.38918   0.00000  Uiso   1.00
N96    N     0.44574   0.32818   0.29560   0.00000  Uiso   1.00
O97    O     0.50000   0.16667   0.25000   0.00000  Uiso   1.00
O98    O     0.48784   0.12637   0.15458   0.00000  Uiso   1.00
O99    O     0.46274   0.20391   0.34968   0.00000  Uiso   1.00
O100   O     0.54157   0.17759   0.14606   0.00000  Uiso   1.00
O101   O     0.50785   0.15880   0.34968   0.00000  Uiso   1.00
O102   O     0.64756   0.17726   0.43652   0.00000  Uiso   1.00
O103   O     0.51264   0.08019   0.28213   0.00000  Uiso   1.00
O104   O     0.47965   0.26085   0.27013   0.00000  Uiso   1.00
O105   O     0.40745   0.13291   0.23413   0.00000  Uiso   1.00
O106   O     0.60026   0.19272   0.21360   0.00000  Uiso   1.00
O107   O     0.40405   0.18878   0.28213   0.00000  Uiso   1.00
O108   O     0.58824   0.15226   0.27013   0.00000  Uiso   1.00
O109   O     0.47093   0.06944   0.23413   0.00000  Uiso   1.00
O110   O     0.53678   0.25620   0.21360   0.00000  Uiso   1.00
Zn111  Zn    0.52672   0.13994   0.28734   0.00000  Uiso   1.00
Zn112  Zn    0.46713   0.12458   0.21875   0.00000  Uiso   1.00
Zn113  Zn    0.54389   0.19775   0.20657   0.00000  Uiso   1.00
Zn114  Zn    0.46226   0.20439   0.28733   0.00000  Uiso   1.00
C115   C     0.71943   0.15981   0.26002   0.00000  Uiso   1.00
C116   C     0.83349   0.15564   0.05951   0.00000  Uiso   1.00
C117   C     0.90213   0.13384   0.05637   0.00000  Uiso   1.00
C118   C     0.94749   0.17387   0.23997   0.00000  Uiso   1.00
C119   C     0.80535   0.19021   0.42027   0.00000  Uiso   1.00
C120   C     0.99343   0.17658   0.23579   0.00000  Uiso   1.00
C121   C     0.67409   0.15766   0.26415   0.00000  Uiso   1.00
C122   C     0.84667   0.32254   0.23787   0.00000  Uiso   1.00
C123   C     0.81740   0.01232   0.26460   0.00000  Uiso   1.00
C124   C     0.82339   0.05607   0.25963   0.00000  Uiso   1.00
C125   C     0.84309   0.27792   0.24034   0.00000  Uiso   1.00
C126   C     0.74994   0.19681   0.48969   0.00000  Uiso   1.00
C127   C     0.85221   0.14842   0.12935   0.00000  Uiso   1.00
C128   C     0.81568   0.18513   0.37087   0.00000  Uiso   1.00
C129   C     0.91592   0.13948   0.01088   0.00000  Uiso   1.00
C130   C     0.86145   0.14294   0.08081   0.00000  Uiso   1.00
C131   C     0.76388   0.19893   0.44359   0.00000  Uiso   1.00
C132   C     0.95148   0.16733   0.41854   0.00000  Uiso   1.00
C133   C     0.77658   0.18485   0.01314   0.00000  Uiso   1.00
C134   C     0.81906   0.17644   0.49100   0.00000  Uiso   1.00
C135   C     0.83413   0.18164   0.44436   0.00000  Uiso   1.00
C136   C     0.84687   0.16270   0.01346   0.00000  Uiso   1.00
C137   C     0.88986   0.15622   0.48930   0.00000  Uiso   1.00
C138   C     0.90574   0.16690   0.44443   0.00000  Uiso   1.00
C139   C     0.87780   0.17927   0.42284   0.00000  Uiso   1.00
H140   H     0.92392   0.12390   0.07298   0.00000  Uiso   1.00
H141   H     0.68263   0.19391   0.20952   0.00000  Uiso   1.00
H142   H     0.76434   0.01856   0.31706   0.00000  Uiso   1.00
H143   H     0.75755   0.31483   0.27686   0.00000  Uiso   1.00
H144   H     0.95920   0.16109   0.38234   0.00000  Uiso   1.00
H145   H     0.98555   0.14044   0.29088   0.00000  Uiso   1.00
H146   H     0.87421   0.00384   0.21378   0.00000  Uiso   1.00
H147   H     0.94744   0.13128   0.49333   0.00000  Uiso   1.00
H148   H     0.80256   0.16205   0.08055   0.00000  Uiso   1.00
H149   H     0.74151   0.20588   0.42591   0.00000  Uiso   1.00
H150   H     0.76276   0.18281   0.04856   0.00000  Uiso   1.00
H151   H     0.71763   0.20313   0.00724   0.00000  Uiso   1.00
H152   H     0.89130   0.18892   0.38918   0.00000  Uiso   1.00
N153   N     0.77908   0.32818   0.29560   0.00000  Uiso   1.00
O154   O     0.83333   0.16667   0.25000   0.00000  Uiso   1.00
O155   O     0.82118   0.12637   0.15458   0.00000  Uiso   1.00
O156   O     0.79607   0.20391   0.34968   0.00000  Uiso   1.00
O157   O     0.87491   0.17759   0.14606   0.00000  Uiso   1.00
O158   O     0.84118   0.15880   0.34968   0.00000  Uiso   1.00
O159   O     0.98090   0.17726   0.43652   0.00000  Uiso   1.00
O160   O     0.84597   0.08019   0.28213   0.00000  Uiso   1.00
O161   O     0.81298   0.26085   0.27013   0.00000  Uiso   1.00
O162   O     0.74078   0.13291   0.23413   0.00000  Uiso   1.00
O163   O     0.93360   0.19272   0.21360   0.00000  Uiso   1.00
O164   O     0.73738   0.18878   0.28213   0.00000  Uiso   1.00
O165   O     0.92158   0.15226   0.27013   0.00000  Uiso   1.00
O166   O     0.80426   0.06944   0.23413   0.00000  Uiso   1.00
O167   O     0.87012   0.25620   0.21360   0.00000  Uiso   1.00
Zn168  Zn    0.86005   0.13994   0.28734   0.00000  Uiso   1.00
Zn169  Zn    0.80046   0.12458   0.21875   0.00000  Uiso   1.00
Zn170  Zn    0.87723   0.19775   0.20657   0.00000  Uiso   1.00
Zn171  Zn    0.79560   0.20439   0.28733   0.00000  Uiso   1.00
C172   C     0.05277   0.49315   0.26002   0.00000  Uiso   1.00
C173   C     0.16682   0.48897   0.05951   0.00000  Uiso   1.00
C174   C     0.23546   0.46717   0.05637   0.00000  Uiso   1.00
C175   C     0.28082   0.50721   0.23997   0.00000  Uiso   1.00
C176   C     0.13869   0.52355   0.42027   0.00000  Uiso   1.00
C177   C     0.32676   0.50991   0.23579   0.00000  Uiso   1.00
C178   C     0.00742   0.49100   0.26415   0.00000  Uiso   1.00
C179   C     0.18000   0.65587   0.23787   0.00000  Uiso   1.00
C180   C     0.15074   0.34565   0.26460   0.00000  Uiso   1.00
C181   C     0.15672   0.38940   0.25963   0.00000  Uiso   1.00
C182   C     0.17642   0.61125   0.24034   0.00000  Uiso   1.00
C183   C     0.08327   0.53014   0.48969   0.00000  Uiso   1.00
C184   C     0.18554   0.48176   0.12935   0.00000  Uiso   1.00
C185   C     0.14902   0.51846   0.37087   0.00000  Uiso   1.00
C186   C     0.24925   0.47282   0.01088   0.00000  Uiso   1.00
C187   C     0.19478   0.47627   0.08081   0.00000  Uiso   1.00
C188   C     0.09722   0.53227   0.44359   0.00000  Uiso   1.00
C189   C     0.28481   0.50066   0.41854   0.00000  Uiso   1.00
C190   C     0.10991   0.51819   0.01314   0.00000  Uiso   1.00
C191   C     0.15240   0.50977   0.49100   0.00000  Uiso   1.00
C192   C     0.16747   0.51497   0.44436   0.00000  Uiso   1.00
C193   C     0.18020   0.49604   0.01346   0.00000  Uiso   1.00
C194   C     0.22320   0.48955   0.48930   0.00000  Uiso   1.00
C195   C     0.23907   0.50024   0.44443   0.00000  Uiso   1.00
C196   C     0.21113   0.51260   0.42284   0.00000  Uiso   1.00
H197   H     0.25725   0.45723   0.07298   0.00000  Uiso   1.00
H198   H     0.01596   0.52725   0.20952   0.00000  Uiso   1.00
H199   H     0.09767   0.35189   0.31706   0.00000  Uiso   1.00
H200   H     0.09088   0.64817   0.27686   0.00000  Uiso   1.00
H201   H     0.29254   0.49442   0.38234   0.00000  Uiso   1.00
H202   H     0.31888   0.47378   0.29088   0.00000  Uiso   1.00
H203   H     0.20754   0.33717   0.21378   0.00000  Uiso   1.00
H204   H     0.28077   0.46462   0.49333   0.00000  Uiso   1.00
H205   H     0.13590   0.49539   0.08055   0.00000  Uiso   1.00
H206   H     0.07484   0.53922   0.42591   0.00000  Uiso   1.00
H207   H     0.09609   0.51615   0.04856   0.00000  Uiso   1.00
H208   H     0.05096   0.53646   0.00724   0.00000  Uiso   1.00
H209   H     0.22464   0.52226   0.38918   0.00000  Uiso   1.00
N210   N     0.11241   0.66151   0.29560   0.00000  Uiso   1.00
O211   O     0.16667   0.50000   0.25000   0.00000  Uiso   1.00
O212   O     0.15451   0.45970   0.15458   0.00000  Uiso   1.00
O213   O     0.12940   0.53724   0.34968   0.00000  Uiso   1.00
O214   O     0.20824   0.51092   0.14606   0.00000  Uiso   1.00
O215   O     0.17451   0.49213   0.34968   0.00000  Uiso   1.00
O216   O     0.31423   0.51059   0.43652   0.00000  Uiso   1.00
O217   O     0.17930   0.41352   0.28213   0.00000  Uiso   1.00
O218   O     0.14632   0.59418   0.27013   0.00000  Uiso   1.00
O219   O     0.07412   0.46625   0.23413   0.00000  Uiso   1.00
O220   O     0.26693   0.52605   0.21360   0.00000  Uiso   1.00
O221   O     0.07071   0.52211   0.28213   0.00000  Uiso   1.00
O222   O     0.25491   0.48559   0.27013   0.00000  Uiso   1.00
O223   O     0.13760   0.40277   0.23413   0.00000  Uiso   1.00
O224   O     0.20345   0.58953   0.21360   0.00000  Uiso   1.00
Zn225  Zn    0.19338   0.47327   0.28734   0.00000  Uiso   1.00
Zn226  Zn    0.13379   0.45791   0.21875   0.00000  Uiso   1.00
Zn227  Zn    0.21056   0.53109   0.20657   0.00000  Uiso   1.00
Zn228  Zn    0.12893   0.53773   0.28733   0.00000  Uiso   1.00
C229   C     0.38610   0.49315   0.26002   0.00000  Uiso   1.00
C230   C     0.50015   0.48897   0.05951   0.00000  Uiso   1.00
C231   C     0.56879   0.46717   0.05637   0.00000  Uiso   1.00
C232   C     0.61415   0.50721   0.23997   0.00000  Uiso   1.00
C233   C     0.47202   0.52355   0.42027   0.00000  Uiso   1.00
C234   C     0.66010   0.50991   0.23579   0.00000  Uiso   1.00
C235   C     0.34076   0.49100   0.26415   0.00000  Uiso   1.00
C236   C     0.51333   0.65587   0.23787   0.00000  Uiso   1.00
C237   C     0.48407   0.34565   0.26460   0.00000  Uiso   1.00
C238   C     0.49006   0.38940   0.25963   0.00000  Uiso   1.00
C239   C     0.50975   0.61125   0.24034   0.00000  Uiso   1.00
C240   C     0.41660   0.53014   0.48969   0.00000  Uiso   1.00
C241   C     0.51888   0.48176   0.12935   0.00000  Uiso   1.00
C242   C     0.48235   0.51846   0.37087   0.00000  Uiso   1.00
C243   C     0.58258   0.47282   0.01088   0.00000  Uiso   1.00
C244   C     0.52812   0.47627   0.08081   0.00000  Uiso   1.00
C245   C     0.43055   0.53227   0.44359   0.00000  Uiso   1.00
C246   C     0.61815   0.50066   0.41854   0.00000  Uiso   1.00
C247   C     0.44324   0.51819   0.01314   0.00000  Uiso   1.00
C248   C     0.48573   0.50977   0.49100   0.00000  Uiso   1.00
C249   C     0.50080   0.51497   0.44436   0.00000  Uiso   1.00
C250   C     0.51354   0.49604   0.01346   0.00000  Uiso   1.00
C251   C     0.55653   0.48955   0.48930   0.00000  Uiso   1.00
C252   C     0.57240   0.50024   0.44443   0.00000  Uiso   1.00
C253   C     0.54446   0.51260   0.42284   0.00000  Uiso   1.00
H254   H     0.59059   0.45723   0.07298   0.00000  Uiso   1.00
H255   H     0.34929   0.52725   0.20952   0.00000  Uiso   1.00
H256   H     0.43101   0.35189   0.31706   0.00000  Uiso   1.00
H257   H     0.42421   0.64817   0.27686   0.00000  Uiso   1.00
H258   H     0.62587   0.49442   0.38234   0.00000  Uiso   1.00
H259   H     0.65222   0.47378   0.29088   0.00000  Uiso   1.00
H260   H     0.54087   0.33717   0.21378   0.00000  Uiso   1.00
H261   H     0.61410   0.46462   0.49333   0.00000  Uiso   1.00
H262   H     0.46923   0.49539   0.08055   0.00000  Uiso   1.00
H263   H     0.40817   0.53922   0.42591   0.00000  Uiso   1.00
H264   H     0.42943   0.51615   0.04856   0.00000  Uiso   1.00
H265   H     0.38430   0.53646   0.00724   0.00000  Uiso   1.00
H266   H     0.55797   0.52226   0.38918   0.00000  Uiso   1.00
N267   N     0.44574   0.66151   0.29560   0.00000  Uiso   1.00
O268   O     0.50000   0.50000   0.25000   0.00000  Uiso   1.00
O269   O     0.48784   0.45970   0.15458   0.00000  Uiso   1.00
O270   O     0.46274   0.53724   0.34968   0.00000  Uiso   1.00
O271   O     0.54157   0.51092   0.14606   0.00000  Uiso   1.00
O272   O     0.50785   0.49213   0.34968   0.00000  Uiso   1.00
O273   O     0.64756   0.51059   0.43652   0.00000  Uiso   1.00
O274   O     0.51264   0.41352   0.28213   0.00000  Uiso   1.00
O275   O     0.47965   0.59418   0.27013   0.00000  Uiso   1.00
O276   O     0.40745   0.46625   0.23413   0.00000  Uiso   1.00
O277   O     0.60026   0.52605   0.21360   0.00000  Uiso   1.00
O278   O     0.40405   0.52211   0.28213   0.00000  Uiso   1.00
O279   O     0.58824   0.48559   0.27013   0.00000  Uiso   1.00
O280   O     0.47093   0.40277   0.23413   0.00000  Uiso   1.00
O281   O     0.53678   0.58953   0.21360   0.00000  Uiso   1.00
Zn282  Zn    0.52672   0.47327   0.28734   0.00000  Uiso   1.00
Zn283  Zn    0.46713   0.45791   0.21875   0.00000  Uiso   1.00
Zn284  Zn    0.54389   0.53109   0.20657   0.00000  Uiso   1.00
Zn285  Zn    0.46226   0.53773   0.28733   0.00000  Uiso   1.00
C286   C     0.71943   0.49315   0.26002   0.00000  Uiso   1.00
C287   C     0.83349   0.48897   0.05951   0.00000  Uiso   1.00
C288   C     0.90213   0.46717   0.05637   0.00000  Uiso   1.00
C289   C     0.94749   0.50721   0.23997   0.00000  Uiso   1.00
C290   C     0.80535   0.52355   0.42027   0.00000  Uiso   1.00
C291   C     0.99343   0.50991   0.23579   0.00000  Uiso   1.00
C292   C     0.67409   0.49100   0.26415   0.00000  Uiso   1.00
C293   C     0.84667   0.65587   0.23787   0.00000  Uiso   1.00
C294   C     0.81740   0.34565   0.26460   0.00000  Uiso   1.00
C295   C     0.82339   0.38940   0.25963   0.00000  Uiso   1.00
C296   C     0.84309   0.61125   0.24034   0.00000  Uiso   1.00
C297   C     0.74994   0.53014   0.48969   0.00000  Uiso   1.00
C298   C     0.85221   0.48176   0.12935   0.00000  Uiso   1.00
C299   C     0.81568   0.51846   0.37087   0.00000  Uiso   1.00
C300   C     0.91592   0.47282   0.01088   0.00000  Uiso   1.00
C301   C     0.86145   0.47627   0.08081   0.00000  Uiso   1.00
C302   C     0.76388   0.53227   0.44359   0.00000  Uiso   1.00
C303   C     0.95148   0.50066   0.41854   0.00000  Uiso   1.00
C304   C     0.77658   0.51819   0.01314   0.00000  Uiso   1.00
C305   C     0.81906   0.50977   0.49100   0.00000  Uiso   1.00
C306   C     0.83413   0.51497   0.44436   0.00000  Uiso   1.00
C307   C     0.84687   0.49604   0.01346   0.00000  Uiso   1.00
C308   C     0.88986   0.48955   0.48930   0.00000  Uiso   1.00
C309   C     0.90574   0.50024   0.44443   0.00000  Uiso   1.00
C310   C     0.87780   0.51260   0.42284   0.00000  Uiso   1.00
H311   H     0.92392   0.45723   0.07298   0.00000  Uiso   1.00
H312   H     0.68263   0.52725   0.20952   0.00000  Uiso   1.00
H313   H     0.76434   0.35189   0.31706   0.00000  Uiso   1.00
H314   H     0.75755   0.64817   0.27686   0.00000  Uiso   1.00
H315   H     0.95920   0.49442   0.38234   0.00000  Uiso   1.00
H316   H     0.98555   0.47378   0.29088   0.00000  Uiso   1.00
H317   H     0.87421   0.33717   0.21378   0.00000  Uiso   1.00
H318   H     0.94744   0.46462   0.49333   0.00000  Uiso   1.00
H319   H     0.80256   0.49539   0.08055   0.00000  Uiso   1.00
H320   H     0.74151   0.53922   0.42591   0.00000  Uiso   1.00
H321   H     0.76276   0.51615   0.04856   0.00000  Uiso   1.00
H322   H     0.71763   0.53646   0.00724   0.00000  Uiso   1.00
H323   H     0.89130   0.52226   0.38918   0.00000  Uiso   1.00
N324   N     0.77908   0.66151   0.29560   0.00000  Uiso   1.00
O325   O     0.83333   0.50000   0.25000   0.00000  Uiso   1.00
O326   O     0.82118   0.45970   0.15458   0.00000  Uiso   1.00
O327   O     0.79607   0.53724   0.34968   0.00000  Uiso   1.00
O328   O     0.87491   0.51092   0.14606   0.00000  Uiso   1.00
O329   O     0.84118   0.49213   0.34968   0.00000  Uiso   1.00
O330   O     0.98090   0.51059   0.43652   0.00000  Uiso   1.00
O331   O     0.84597   0.41352   0.28213   0.00000  Uiso   1.00
O332   O     0.81298   0.59418   0.27013   0.00000  Uiso   1.00
O333   O     0.74078   0.46625   0.23413   0.00000  Uiso   1.00
O334   O     0.93360   0.52605   0.21360   0.00000  Uiso   1.00
O335   O     0.73738   0.52211   0.28213   0.00000  Uiso   1.00
O336   O     0.92158   0.48559   0.27013   0.00000  Uiso   1.00
O337   O     0.80426   0.40277   0.23413   0.00000  Uiso   1.00
O338   O     0.87012   0.58953   0.21360   0.00000  Uiso   1.00
Zn339  Zn    0.86005   0.47327   0.28734   0.00000  Uiso   1.00
Zn340  Zn    0.80046   0.45791   0.21875   0.00000  Uiso   1.00
Zn341  Zn    0.87723   0.53109   0.20657   0.00000  Uiso   1.00
Zn342  Zn    0.79560   0.53773   0.28733   0.00000  Uiso   1.00
C343   C     0.05277   0.82648   0.26002   0.00000  Uiso   1.00
C344   C     0.16682   0.82231   0.05951   0.00000  Uiso   1.00
C345   C     0.23546   0.80050   0.05637   0.00000  Uiso   1.00
C346   C     0.28082   0.84054   0.23997   0.00000  Uiso   1.00
C347   C     0.13869   0.85688   0.42027   0.00000  Uiso   1.00
C348   C     0.32676   0.84324   0.23579   0.00000  Uiso   1.00
C349   C     0.00742   0.82433   0.26415   0.00000  Uiso   1.00
C350   C     0.18000   0.98920   0.23787   0.00000  Uiso   1.00
C351   C     0.15074   0.67899   0.26460   0.00000  Uiso   1.00
C352   C     0.15672   0.72273   0.25963   0.00000  Uiso   1.00
C353   C     0.17642   0.94459   0.24034   0.00000  Uiso   1.00
C354   C     0.08327   0.86347   0.48969   0.00000  Uiso   1.00
C355   C     0.18554   0.81509   0.12935   0.00000  Uiso   1.00
C356   C     0.14902   0.85180   0.37087   0.00000  Uiso   1.00
C357   C     0.24925   0.80615   0.01088   0.00000  Uiso   1.00
C358   C     0.19478   0.80960   0.08081   0.00000  Uiso   1.00
C359   C     0.09722   0.86560   0.44359   0.00000  Uiso   1.00
C360   C     0.28481   0.83399   0.41854   0.00000  Uiso   1.00
C361   C     0.10991   0.85152   0.01314   0.00000  Uiso   1.00
C362   C     0.15240   0.84310   0.49100   0.00000  Uiso   1.00
C363   C     0.16747   0.84831   0.44436   0.00000  Uiso   1.00
C364   C     0.18020   0.82937   0.01346   0.00000  Uiso   1.00
C365   C     0.22320   0.82288   0.48930   0.00000  Uiso   1.00
C366   C     0.23907   0.83357   0.44443   0.00000  Uiso   1.00
C367   C     0.21113   0.84594   0.42284   0.00000  Uiso   1.00
H368   H     0.25725   0.79056   0.07298   0.00000  Uiso   1.00
H369   H     0.01596   0.86058   0.20952   0.00000  Uiso   1.00
H370   H     0.09767   0.68523   0.31706   0.00000  Uiso   1.00
H371   H     0.09088   0.98150   0.27686   0.00000  Uiso   1.00
H372   H     0.29254   0.82776   0.38234   0.00000  Uiso   1.00
H373   H     0.31888   0.80711   0.29088   0.00000  Uiso   1.00
H374   H     0.20754   0.67050   0.21378   0.00000  Uiso   1.00
H375   H     0.28077   0.79795   0.49333   0.00000  Uiso   1.00
H376   H     0.13590   0.82872   0.08055   0.00000  Uiso   1.00
H377   H     0.07484   0.87255   0.42591   0.00000  Uiso   1.00
H378   H     0.09609   0.84948   0.04856   0.00000  Uiso   1.00
H379   H     0.05096   0.86979   0.00724   0.00000  Uiso   1.00
H380   H     0.22464   0.85559   0.38918   0.00000  Uiso   1.00
N381   N     0.11241   0.99484   0.29560   0.00000  Uiso   1.00
O382   O     0.16667   0.83333   0.25000   0.00000  Uiso   1.00
O383   O     0.15451   0.79304   0.15458   0.00000  Uiso   1.00
O384   O     0.12940   0.87058   0.34968   0.00000  Uiso   1.00
O385   O     0.20824   0.84425   0.14606   0.00000  Uiso   1.00
O386   O     0.17451   0.82546   0.34968   0.00000  Uiso   1.00
O387   O     0.31423   0.84392   0.43652   0.00000  Uiso   1.00
O388   O     0.17930   0.74686   0.28213   0.00000  Uiso   1.00
O389   O     0.14632   0.92751   0.27013   0.00000  Uiso   1.00
O390   O     0.07412   0.79958   0.23413   0.00000  Uiso   1.00
O391   O     0.26693   0.85939   0.21360   0.00000  Uiso   1.00
O392   O     0.07071   0.85544   0.28213   0.00000  Uiso   1.00
O393   O     0.25491   0.81892   0.27013   0.00000  Uiso   1.00
O394   O     0.13760   0.73610   0.23413   0.00000  Uiso   1.00
O395   O     0.20345   0.92286   0.21360   0.00000  Uiso   1.00
Zn396  Zn    0.19338   0.80661   0.28734   0.00000  Uiso   1.00
Zn397  Zn    0.13379   0.79124   0.21875   0.00000  Uiso   1.00
Zn398  Zn    0.21056   0.86442   0.20657   0.00000  Uiso   1.00
Zn399  Zn    0.12893   0.87106   0.28733   0.00000  Uiso   1.00
C400   C     0.38610   0.82648   0.26002   0.00000  Uiso   1.00
C401   C     0.50015   0.82231   0.05951   0.00000  Uiso   1.00
C402   C     0.56879   0.80050   0.05637   0.00000  Uiso   1.00
C403   C     0.61415   0.84054   0.23997   0.00000  Uiso   1.00
C404   C     0.47202   0.85688   0.42027   0.00000  Uiso   1.00
C405   C     0.66010   0.84324   0.23579   0.00000  Uiso   1.00
C406   C     0.34076   0.82433   0.26415   0.00000  Uiso   1.00
C407   C     0.51333   0.98920   0.23787   0.00000  Uiso   1.00
C408   C     0.48407   0.67899   0.26460   0.00000  Uiso   1.00
C409   C     0.49006   0.72273   0.25963   0.00000  Uiso   1.00
C410   C     0.50975   0.94459   0.24034   0.00000  Uiso   1.00
C411   C     0.41660   0.86347   0.48969   0.00000  Uiso   1.00
C412   C     0.51888   0.81509   0.12935   0.00000  Uiso   1.00
C413   C     0.48235   0.85180   0.37087   0.00000  Uiso   1.00
C414   C     0.58258   0.80615   0.01088   0.00000  Uiso   1.00
C415   C     0.52812   0.80960   0.08081   0.00000  Uiso   1.00
C416   C     0.43055   0.86560   0.44359   0.00000  Uiso   1.00
C417   C     0.61815   0.83399   0.41854   0.00000  Uiso   1.00
C418   C     0.44324   0.85152   0.01314   0.00000  Uiso   1.00
C419   C     0.48573   0.84310   0.49100   0.00000  Uiso   1.00
C420   C     0.50080   0.84831   0.44436   0.00000  Uiso   1.00
C421   C     0.51354   0.82937   0.01346   0.00000  Uiso   1.00
C422   C     0.55653   0.82288   0.48930   0.00000  Uiso   1.00
C423   C     0.57240   0.83357   0.44443   0.00000  Uiso   1.00
C424   C     0.54446   0.84594   0.42284   0.00000  Uiso   1.00
H425   H     0.59059   0.79056   0.07298   0.00000  Uiso   1.00
H426   H     0.34929   0.86058   0.20952   0.00000  Uiso   1.00
H427   H     0.43101   0.68523   0.31706   0.00000  Uiso   1.00
H428   H     0.42421   0.98150   0.27686   0.00000  Uiso   1.00
H429   H     0.62587   0.82776   0.38234   0.00000  Uiso   1.00
H430   H     0.65222   0.80711   0.29088   0.00000  Uiso   1.00
H431   H     0.54087   0.67050   0.21378   0.00000  Uiso   1.00
H432   H     0.61410   0.79795   0.49333   0.00000  Uiso   1.00
H433   H     0.46923   0.82872   0.08055   0.00000  Uiso   1.00
H434   H     0.40817   0.87255   0.42591   0.00000  Uiso   1.00
H435   H     0.42943   0.84948   0.04856   0.00000  Uiso   1.00
H436   H     0.38430   0.86979   0.00724   0.00000  Uiso   1.00
H437   H     0.55797   0.85559   0.38918   0.00000  Uiso   1.00
N438   N     0.44574   0.99484   0.29560   0.00000  Uiso   1.00
O439   O     0.50000   0.83333   0.25000   0.00000  Uiso   1.00
O440   O     0.48784   0.79304   0.15458   0.00000  Uiso   1.00
O441   O     0.46274   0.87058   0.34968   0.00000  Uiso   1.00
O442   O     0.54157   0.84425   0.14606   0.00000  Uiso   1.00
O443   O     0.50785   0.82546   0.34968   0.00000  Uiso   1.00
O444   O     0.64756   0.84392   0.43652   0.00000  Uiso   1.00
O445   O     0.51264   0.74686   0.28213   0.00000  Uiso   1.00
O446   O     0.47965   0.92751   0.27013   0.00000  Uiso   1.00
O447   O     0.40745   0.79958   0.23413   0.00000  Uiso   1.00
O448   O     0.60026   0.85939   0.21360   0.00000  Uiso   1.00
O449   O     0.40405   0.85544   0.28213   0.00000  Uiso   1.00
O450   O     0.58824   0.81892   0.27013   0.00000  Uiso   1.00
O451   O     0.47093   0.73610   0.23413   0.00000  Uiso   1.00
O452   O     0.53678   0.92286   0.21360   0.00000  Uiso   1.00
Zn453  Zn    0.52672   0.80661   0.28734   0.00000  Uiso   1.00
Zn454  Zn    0.46713   0.79124   0.21875   0.00000  Uiso   1.00
Zn455  Zn    0.54389   0.86442   0.20657   0.00000  Uiso   1.00
Zn456  Zn    0.46226   0.87106   0.28733   0.00000  Uiso   1.00
C457   C     0.71943   0.82648   0.26002   0.00000  Uiso   1.00
C458   C     0.83349   0.82231   0.05951   0.00000  Uiso   1.00
C459   C     0.90213   0.80050   0.05637   0.00000  Uiso   1.00
C460   C     0.94749   0.84054   0.23997   0.00000  Uiso   1.00
C461   C     0.80535   0.85688   0.42027   0.00000  Uiso   1.00
C462   C     0.99343   0.84324   0.23579   0.00000  Uiso   1.00
C463   C     0.67409   0.82433   0.26415   0.00000  Uiso   1.00
C464   C     0.84667   0.98920   0.23787   0.00000  Uiso   1.00
C465   C     0.81740   0.67899   0.26460   0.00000  Uiso   1.00
C466   C     0.82339   0.72273   0.25963   0.00000  Uiso   1.00
C467   C     0.84309   0.94459   0.24034   0.00000  Uiso   1.00
C468   C     0.74994   0.86347   0.48969   0.00000  Uiso   1.00
C469   C     0.85221   0.81509   0.12935   0.00000  Uiso   1.00
C470   C     0.81568   0.85180   0.37087   0.00000  Uiso   1.00
C471   C     0.91592   0.80615   0.01088   0.00000  Uiso   1.00
C472   C     0.86145   0.80960   0.08081   0.00000  Uiso   1.00
C473   C     0.76388   0.86560   0.44359   0.00000  Uiso   1.00
C474   C     0.95148   0.83399   0.41854   0.00000  Uiso   1.00
C475   C     0.77658   0.85152   0.01314   0.00000  Uiso   1.00
C476   C     0.81906   0.84310   0.49100   0.00000  Uiso   1.00
C477   C     0.83413   0.84831   0.44436   0.00000  Uiso   1.00
C478   C     0.84687   0.82937   0.01346   0.00000  Uiso   1.00
C479   C     0.88986   0.82288   0.48930   0.00000  Uiso   1.00
C480   C     0.90574   0.83357   0.44443   0.00000  Uiso   1.00
C481   C     0.87780   0.84594   0.42284   0.00000  Uiso   1.00
H482   H     0.92392   0.79056   0.07298   0.00000  Uiso   1.00
H483   H     0.68263   0.86058   0.20952   0.00000  Uiso   1.00
H484   H     0.76434   0.68523   0.31706   0.00000  Uiso   1.00
H485   H     0.75755   0.98150   0.27686   0.00000  Uiso   1.00
H486   H     0.95920   0.82776   0.38234   0.00000  Uiso   1.00
H487   H     0.98555   0.80711   0.29088   0.00000  Uiso   1.00
H488   H     0.87421   0.67050   0.21378   0.00000  Uiso   1.00
H489   H     0.94744   0.79795   0.49333   0.00000  Uiso   1.00
H490   H     0.80256   0.82872   0.08055   0.00000  Uiso   1.00
H491   H     0.74151   0.87255   0.42591   0.00000  Uiso   1.00
H492   H     0.76276   0.84948   0.04856   0.00000  Uiso   1.00
H493   H     0.71763   0.86979   0.00724   0.00000  Uiso   1.00
H494   H     0.89130   0.85559   0.38918   0.00000  Uiso   1.00
N495   N     0.77908   0.99484   0.29560   0.00000  Uiso   1.00
O496   O     0.83333   0.83333   0.25000   0.00000  Uiso   1.00
O497   O     0.82118   0.79304   0.15458   0.00000  Uiso   1.00
O498   O     0.79607   0.87058   0.34968   0.00000  Uiso   1.00
O499   O     0.87491   0.84425   0.14606   0.00000  Uiso   1.00
O500   O     0.84118   0.82546   0.34968   0.00000  Uiso   1.00
O501   O     0.98090   0.84392   0.43652   0.00000  Uiso   1.00
O502   O     0.84597   0.74686   0.28213   0.00000  Uiso   1.00
O503   O     0.81298   0.92751   0.27013   0.00000  Uiso   1.00
O504   O     0.74078   0.79958   0.23413   0.00000  Uiso   1.00
O505   O     0.93360   0.85939   0.21360   0.00000  Uiso   1.00
O506   O     0.73738   0.85544   0.28213   0.00000  Uiso   1.00
O507   O     0.92158   0.81892   0.27013   0.00000  Uiso   1.00
O508   O     0.80426   0.73610   0.23413   0.00000  Uiso   1.00
O509   O     0.87012   0.92286   0.21360   0.00000  Uiso   1.00
Zn510  Zn    0.86005   0.80661   0.28734   0.00000  Uiso   1.00
Zn511  Zn    0.80046   0.79124   0.21875   0.00000  Uiso   1.00
Zn512  Zn    0.87723   0.86442   0.20657   0.00000  Uiso   1.00
Zn513  Zn    0.79560   0.87106   0.28733   0.00000  Uiso   1.00
C514   C     0.05277   0.15981   0.76002   0.00000  Uiso   1.00
C515   C     0.16682   0.15564   0.55951   0.00000  Uiso   1.00
C516   C     0.23546   0.13384   0.55637   0.00000  Uiso   1.00
C517   C     0.28082   0.17387   0.73997   0.00000  Uiso   1.00
C518   C     0.13869   0.19021   0.92027   0.00000  Uiso   1.00
C519   C     0.32676   0.17658   0.73579   0.00000  Uiso   1.00
C520   C     0.00742   0.15766   0.76415   0.00000  Uiso   1.00
C521   C     0.18000   0.32254   0.73787   0.00000  Uiso   1.00
C522   C     0.15074   0.01232   0.76460   0.00000  Uiso   1.00
C523   C     0.15672   0.05607   0.75963   0.00000  Uiso   1.00
C524   C     0.17642   0.27792   0.74034   0.00000  Uiso   1.00
C525   C     0.08327   0.19681   0.98969   0.00000  Uiso   1.00
C526   C     0.18554   0.14842   0.62935   0.00000  Uiso   1.00
C527   C     0.14902   0.18513   0.87087   0.00000  Uiso   1.00
C528   C     0.24925   0.13948   0.51088   0.00000  Uiso   1.00
C529   C     0.19478   0.14294   0.58081   0.00000  Uiso   1.00
C530   C     0.09722   0.19893   0.94359   0.00000  Uiso   1.00
C531   C     0.28481   0.16733   0.91854   0.00000  Uiso   1.00
C532   C     0.10991   0.18485   0.51314   0.00000  Uiso   1.00
C533   C     0.15240   0.17644   0.99100   0.00000  Uiso   1.00
C534   C     0.16747   0.18164   0.94436   0.00000  Uiso   1.00
C535   C     0.18020   0.16270   0.51346   0.00000  Uiso   1.00
C536   C     0.22320   0.15622   0.98930   0.00000  Uiso   1.00
C537   C     0.23907   0.16690   0.94443   0.00000  Uiso   1.00
C538   C     0.21113   0.17927   0.92284   0.00000  Uiso   1.00
H539   H     0.25725   0.12390   0.57298   0.00000  Uiso   1.00
H540   H     0.01596   0.19391   0.70952   0.00000  Uiso   1.00
H541   H     0.09767   0.01856   0.81706   0.00000  Uiso   1.00
H542   H     0.09088   0.31483   0.77686   0.00000  Uiso   1.00
H543   H     0.29254   0.16109   0.88234   0.00000  Uiso   1.00
H544   H     0.31888   0.14044   0.79088   0.00000  Uiso   1.00
H545   H     0.20754   0.00384   0.71378   0.00000  Uiso   1.00
H546   H     0.28077   0.13128   0.99333   0.00000  Uiso   1.00
H547   H     0.13590   0.16205   0.58055   0.00000  Uiso   1.00
H548   H     0.07484   0.20588   0.92591   0.00000  Uiso   1.00
H549   H     0.09609   0.18281   0.54856   0.00000  Uiso   1.00
H550   H     0.05096   0.20313   0.50724   0.00000  Uiso   1.00
H551   H     0.22464   0.18892   0.88918   0.00000  Uiso   1.00
N552   N     0.11241   0.32818   0.79560   0.00000  Uiso   1.00
O553   O     0.16667   0.16667   0.75000   0.00000  Uiso   1.00
O554   O     0.15451   0.12637   0.65458   0.00000  Uiso   1.00
O555   O     0.12940   0.20391   0.84968   0.00000  Uiso   1.00
O556   O     0.20824   0.17759   0.64606   0.00000  Uiso   1.00
O557   O     0.17451   0.15880   0.84968   0.00000  Uiso   1.00
O558   O     0.31423   0.17726   0.93652   0.00000  Uiso   1.00
O559   O     0.17930   0.08019   0.78213   0.00000  Uiso   1.00
O560   O     0.14632   0.26085   0.77013   0.00000  Uiso   1.00
O561   O     0.07412   0.13291   0.73413   0.00000  Uiso   1.00
O562   O     0.26693   0.19272   0.71360   0.00000  Uiso   1.00
O563   O     0.07071   0.18878   0.78213   0.00000  Uiso   1.00
O564   O     0.25491   0.15226   0.77013   0.00000  Uiso   1.00
O565   O     0.13760   0.06944   0.73413   0.00000  Uiso   1.00
O566   O     0.20345   0.25620   0.71360   0.00000  Uiso   1.00
Zn567  Zn    0.19338   0.13994   0.78734   0.00000  Uiso   1.00
Zn568  Zn    0.13379   0.12458   0.71875   0.00000  Uiso   1.00
Zn569  Zn    0.21056   0.19775   0.70657   0.00000  Uiso   1.00
Zn570  Zn    0.12893   0.20439   0.78733   0.00000  Uiso   1.00
C571   C     0.38610   0.15981   0.76002   0.00000  Uiso   1.00
C572   C     0.50015   0.15564   0.55951   0.00000  Uiso   1.00
C573   C     0.56879   0.13384   0.55637   0.00000  Uiso   1.00
C574   C     0.61415   0.17387   0.73997   0.00000  Uiso   1.00
C575   C     0.47202   0.19021   0.92027   0.00000  Uiso   1.00
C576   C     0.66010   0.17658   0.73579   0.00000  Uiso   1.00
C577   C     0.34076   0.15766   0.76415   0.00000  Uiso   1.00
C578   C     0.51333   0.32254   0.73787   0.00000  Uiso   1.00
C579   C     0.48407   0.01232   0.76460   0.00000  Uiso   1.00
C580   C     0.49006   0.05607   0.75963   0.00000  Uiso   1.00
C581   C     0.50975   0.27792   0.74034   0.00000  Uiso   1.00
C582   C     0.41660   0.19681   0.98969   0.00000  Uiso   1.00
C583   C     0.51888   0.14842   0.62935   0.00000  Uiso   1.00
C584   C     0.48235   0.18513   0.87087   0.00000  Uiso   1.00
C585   C     0.58258   0.13948   0.51088   0.00000  Uiso   1.00
C586   C     0.52812   0.14294   0.58081   0.00000  Uiso   1.00
C587   C     0.43055   0.19893   0.94359   0.00000  Uiso   1.00
C588   C     0.61815   0.16733   0.91854   0.00000  Uiso   1.00
C589   C     0.44324   0.18485   0.51314   0.00000  Uiso   1.00
C590   C     0.48573   0.17644   0.99100   0.00000  Uiso   1.00
C591   C     0.50080   0.18164   0.94436   0.00000  Uiso   1.00
C592   C     0.51354   0.16270   0.51346   0.00000  Uiso   1.00
C593   C     0.55653   0.15622   0.98930   0.00000  Uiso   1.00
C594   C     0.57240   0.16690   0.94443   0.00000  Uiso   1.00
C595   C     0.54446   0.17927   0.92284   0.00000  Uiso   1.00
H596   H     0.59059   0.12390   0.57298   0.00000  Uiso   1.00
H597   H     0.34929   0.19391   0.70952   0.00000  Uiso   1.00
H598   H     0.43101   0.01856   0.81706   0.00000  Uiso   1.00
H599   H     0.42421   0.31483   0.77686   0.00000  Uiso   1.00
H600   H     0.62587   0.16109   0.88234   0.00000  Uiso   1.00
H601   H     0.65222   0.14044   0.79088   0.00000  Uiso   1.00
H602   H     0.54087   0.00384   0.71378   0.00000  Uiso   1.00
H603   H     0.61410   0.13128   0.99333   0.00000  Uiso   1.00
H604   H     0.46923   0.16205   0.58055   0.00000  Uiso   1.00
H605   H     0.40817   0.20588   0.92591   0.00000  Uiso   1.00
H606   H     0.42943   0.18281   0.54856   0.00000  Uiso   1.00
H607   H     0.38430   0.20313   0.50724   0.00000  Uiso   1.00
H608   H     0.55797   0.18892   0.88918   0.00000  Uiso   1.00
N609   N     0.44574   0.32818   0.79560   0.00000  Uiso   1.00
O610   O     0.50000   0.16667   0.75000   0.00000  Uiso   1.00
O611   O     0.48784   0.12637   0.65458   0.00000  Uiso   1.00
O612   O     0.46274   0.20391   0.84968   0.00000  Uiso   1.00
O613   O     0.54157   0.17759   0.64606   0.00000  Uiso   1.00
O614   O     0.50785   0.15880   0.84968   0.00000  Uiso   1.00
O615   O     0.64756   0.17726   0.93652   0.00000  Uiso   1.00
O616   O     0.51264   0.08019   0.78213   0.00000  Uiso   1.00
O617   O     0.47965   0.26085   0.77013   0.00000  Uiso   1.00
O618   O     0.40745   0.13291   0.73413   0.00000  Uiso   1.00
O619   O     0.60026   0.19272   0.71360   0.00000  Uiso   1.00
O620   O     0.40405   0.18878   0.78213   0.00000  Uiso   1.00
O621   O     0.58824   0.15226   0.77013   0.00000  Uiso   1.00
O622   O     0.47093   0.06944   0.73413   0.00000  Uiso   1.00
O623   O     0.53678   0.25620   0.71360   0.00000  Uiso   1.00
Zn624  Zn    0.52672   0.13994   0.78734   0.00000  Uiso   1.00
Zn625  Zn    0.46713   0.12458   0.71875   0.00000  Uiso   1.00
Zn626  Zn    0.54389   0.19775   0.70657   0.00000  Uiso   1.00
Zn627  Zn    0.46226   0.20439   0.78733   0.00000  Uiso   1.00
C628   C     0.71943   0.15981   0.76002   0.00000  Uiso   1.00
C629   C     0.83349   0.15564   0.55951   0.00000  Uiso   1.00
C630   C     0.90213   0.13384   0.55637   0.00000  Uiso   1.00
C631   C     0.94749   0.17387   0.73997   0.00000  Uiso   1.00
C632   C     0.80535   0.19021   0.92027   0.00000  Uiso   1.00
C633   C     0.99343   0.17658   0.73579   0.00000  Uiso   1.00
C634   C     0.67409   0.15766   0.76415   0.00000  Uiso   1.00
C635   C     0.84667   0.32254   0.73787   0.00000  Uiso   1.00
C636   C     0.81740   0.01232   0.76460   0.00000  Uiso   1.00
C637   C     0.82339   0.05607   0.75963   0.00000  Uiso   1.00
C638   C     0.84309   0.27792   0.74034   0.00000  Uiso   1.00
C639   C     0.74994   0.19681   0.98969   0.00000  Uiso   1.00
C640   C     0.85221   0.14842   0.62935   0.00000  Uiso   1.00
C641   C     0.81568   0.18513   0.87087   0.00000  Uiso   1.00
C642   C     0.91592   0.13948   0.51088   0.00000  Uiso   1.00
C643   C     0.86145   0.14294   0.58081   0.00000  Uiso   1.00
C644   C     0.76388   0.19893   0.94359   0.00000  Uiso   1.00
C645   C     0.95148   0.16733   0.91854   0.00000  Uiso   1.00
C646   C     0.77658   0.18485   0.51314   0.00000  Uiso   1.00
C647   C     0.81906   0.17644   0.99100   0.00000  Uiso   1.00
C648   C     0.83413   0.18164   0.94436   0.00000  Uiso   1.00
C649   C     0.84687   0.16270   0.51346   0.00000  Uiso   1.00
C650   C     0.88986   0.15622   0.98930   0.00000  Uiso   1.00
C651   C     0.90574   0.16690   0.94443   0.00000  Uiso   1.00
C652   C     0.87780   0.17927   0.92284   0.00000  Uiso   1.00
H653   H     0.92392   0.12390   0.57298   0.00000  Uiso   1.00
H654   H     0.68263   0.19391   0.70952   0.00000  Uiso   1.00
H655   H     0.76434   0.01856   0.81706   0.00000  Uiso   1.00
H656   H     0.75755   0.31483   0.77686   0.00000  Uiso   1.00
H657   H     0.95920   0.16109   0.88234   0.00000  Uiso   1.00
H658   H     0.98555   0.14044   0.79088   0.00000  Uiso   1.00
H659   H     0.87421   0.00384   0.71378   0.00000  Uiso   1.00
H660   H     0.94744   0.13128   0.99333   0.00000  Uiso   1.00
H661   H     0.80256   0.16205   0.58055   0.00000  Uiso   1.00
H662   H     0.74151   0.20588   0.92591   0.00000  Uiso   1.00
H663   H     0.76276   0.18281   0.54856   0.00000  Uiso   1.00
H664   H     0.71763   0.20313   0.50724   0.00000  Uiso   1.00
H665   H     0.89130   0.18892   0.88918   0.00000  Uiso   1.00
N666   N     0.77908   0.32818   0.79560   0.00000  Uiso   1.00
O667   O     0.83333   0.16667   0.75000   0.00000  Uiso   1.00
O668   O     0.82118   0.12637   0.65458   0.00000  Uiso   1.00
O669   O     0.79607   0.20391   0.84968   0.00000  Uiso   1.00
O670   O     0.87491   0.17759   0.64606   0.00000  Uiso   1.00
O671   O     0.84118   0.15880   0.84968   0.00000  Uiso   1.00
O672   O     0.98090   0.17726   0.93652   0.00000  Uiso   1.00
O673   O     0.84597   0.08019   0.78213   0.00000  Uiso   1.00
O674   O     0.81298   0.26085   0.77013   0.00000  Uiso   1.00
O675   O     0.74078   0.13291   0.73413   0.00000  Uiso   1.00
O676   O     0.93360   0.19272   0.71360   0.00000  Uiso   1.00
O677   O     0.73738   0.18878   0.78213   0.00000  Uiso   1.00
O678   O     0.92158   0.15226   0.77013   0.00000  Uiso   1.00
O679   O     0.80426   0.06944   0.73413   0.00000  Uiso   1.00
O680   O     0.87012   0.25620   0.71360   0.00000  Uiso   1.00
Zn681  Zn    0.86005   0.13994   0.78734   0.00000  Uiso   1.00
Zn682  Zn    0.80046   0.12458   0.71875   0.00000  Uiso   1.00
Zn683  Zn    0.87723   0.19775   0.70657   0.00000  Uiso   1.00
Zn684  Zn    0.79560   0.20439   0.78733   0.00000  Uiso   1.00
C685   C     0.05277   0.49315   0.76002   0.00000  Uiso   1.00
C686   C     0.16682   0.48897   0.55951   0.00000  Uiso   1.00
C687   C     0.23546   0.46717   0.55637   0.00000  Uiso   1.00
C688   C     0.28082   0.50721   0.73997   0.00000  Uiso   1.00
C689   C     0.13869   0.52355   0.92027   0.00000  Uiso   1.00
C690   C     0.32676   0.50991   0.73579   0.00000  Uiso   1.00
C691   C     0.00742   0.49100   0.76415   0.00000  Uiso   1.00
C692   C     0.18000   0.65587   0.73787   0.00000  Uiso   1.00
C693   C     0.15074   0.34565   0.76460   0.00000  Uiso   1.00
C694   C     0.15672   0.38940   0.75963   0.00000  Uiso   1.00
C695   C     0.17642   0.61125   0.74034   0.00000  Uiso   1.00
C696   C     0.08327   0.53014   0.98969   0.00000  Uiso   1.00
C697   C     0.18554   0.48176   0.62935   0.00000  Uiso   1.00
C698   C     0.14902   0.51846   0.87087   0.00000  Uiso   1.00
C699   C     0.24925   0.47282   0.51088   0.00000  Uiso   1.00
C700   C     0.19478   0.47627   0.58081   0.00000  Uiso   1.00
C701   C     0.09722   0.53227   0.94359   0.00000  Uiso   1.00
C702   C     0.28481   0.50066   0.91854   0.00000  Uiso   1.00
C703   C     0.10991   0.51819   0.51314   0.00000  Uiso   1.00
C704   C     0.15240   0.50977   0.99100   0.00000  Uiso   1.00
C705   C     0.16747   0.51497   0.94436   0.00000  Uiso   1.00
C706   C     0.18020   0.49604   0.51346   0.00000  Uiso   1.00
C707   C     0.22320   0.48955   0.98930   0.00000  Uiso   1.00
C708   C     0.23907   0.50024   0.94443   0.00000  Uiso   1.00
C709   C     0.21113   0.51260   0.92284   0.00000  Uiso   1.00
H710   H     0.25725   0.45723   0.57298   0.00000  Uiso   1.00
H711   H     0.01596   0.52725   0.70952   0.00000  Uiso   1.00
H712   H     0.09767   0.35189   0.81706   0.00000  Uiso   1.00
H713   H     0.09088   0.64817   0.77686   0.00000  Uiso   1.00
H714   H     0.29254   0.49442   0.88234   0.00000  Uiso   1.00
H715   H     0.31888   0.47378   0.79088   0.00000  Uiso   1.00
H716   H     0.20754   0.33717   0.71378   0.00000  Uiso   1.00
H717   H     0.28077   0.46462   0.99333   0.00000  Uiso   1.00
H718   H     0.13590   0.49539   0.58055   0.00000  Uiso   1.00
H719   H     0.07484   0.53922   0.92591   0.00000  Uiso   1.00
H720   H     0.09609   0.51615   0.54856   0.00000  Uiso   1.00
H721   H     0.05096   0.53646   0.50724   0.00000  Uiso   1.00
H722   H     0.22464   0.52226   0.88918   0.00000  Uiso   1.00
N723   N     0.11241   0.66151   0.79560   0.00000  Uiso   1.00
O724   O     0.16667   0.50000   0.75000   0.00000  Uiso   1.00
O725   O     0.15451   0.45970   0.65458   0.00000  Uiso   1.00
O726   O     0.12940   0.53724   0.84968   0.00000  Uiso   1.00
O727   O     0.20824   0.51092   0.64606   0.00000  Uiso   1.00
O728   O     0.17451   0.49213   0.84968   0.00000  Uiso   1.00
O729   O     0.31423   0.51059   0.93652   0.00000  Uiso   1.00
O730   O     0.17930   0.41352   0.78213   0.00000  Uiso   1.00
O731   O     0.14632   0.59418   0.77013   0.00000  Uiso   1.00
O732   O     0.07412   0.46625   0.73413   0.00000  Uiso   1.00
O733   O     0.26693   0.52605   0.71360   0.00000  Uiso   1.00
O734   O     0.07071   0.52211   0.78213   0.00000  Uiso   1.00
O735   O     0.25491   0.48559   0.77013   0.00000  Uiso   1.00
O736   O     0.13760   0.40277   0.73413   0.00000  Uiso   1.00
O737   O     0.20345   0.58953   0.71360   0.00000  Uiso   1.00
Zn738  Zn    0.19338   0.47327   0.78734   0.00000  Uiso   1.00
Zn739  Zn    0.13379   0.45791   0.71875   0.00000  Uiso   1.00
Zn740  Zn    0.21056   0.53109   0.70657   0.00000  Uiso   1.00
Zn741  Zn    0.12893   0.53773   0.78733   0.00000  Uiso   1.00
C742   C     0.38610   0.49315   0.76002   0.00000  Uiso   1.00
C743   C     0.50015   0.48897   0.55951   0.00000  Uiso   1.00
C744   C     0.56879   0.46717   0.55637   0.00000  Uiso   1.00
C745   C     0.61415   0.50721   0.73997   0.00000  Uiso   1.00
C746   C     0.47202   0.52355   0.92027   0.00000  Uiso   1.00
C747   C     0.66010   0.50991   0.73579   0.00000  Uiso   1.00
C748   C     0.34076   0.49100   0.76415   0.00000  Uiso   1.00
C749   C     0.51333   0.65587   0.73787   0.00000  Uiso   1.00
C750   C     0.48407   0.34565   0.76460   0.00000  Uiso   1.00
C751   C     0.49006   0.38940   0.75963   0.00000  Uiso   1.00
C752   C     0.50975   0.61125   0.74034   0.00000  Uiso   1.00
C753   C     0.41660   0.53014   0.98969   0.00000  Uiso   1.00
C754   C     0.51888   0.48176   0.62935   0.00000  Uiso   1.00
C755   C     0.48235   0.51846   0.87087   0.00000  Uiso   1.00
C756   C     0.58258   0.47282   0.51088   0.00000  Uiso   1.00
C757   C     0.52812   0.47627   0.58081   0.00000  Uiso   1.00
C758   C     0.43055   0.53227   0.94359   0.00000  Uiso   1.00
C759   C     0.61815   0.50066   0.91854   0.00000  Uiso   1.00
C760   C     0.44324   0.51819   0.51314   0.00000  Uiso   1.00
C761   C     0.48573   0.50977   0.99100   0.00000  Uiso   1.00
C762   C     0.50080   0.51497   0.94436   0.00000  Uiso   1.00
C763   C     0.51354   0.49604   0.51346   0.00000  Uiso   1.00
C764   C     0.55653   0.48955   0.98930   0.00000  Uiso   1.00
C765   C     0.57240   0.50024   0.94443   0.00000  Uiso   1.00
C766   C     0.54446   0.51260   0.92284   0.00000  Uiso   1.00
H767   H     0.59059   0.45723   0.57298   0.00000  Uiso   1.00
H768   H     0.34929   0.52725   0.70952   0.00000  Uiso   1.00
H769   H     0.43101   0.35189   0.81706   0.00000  Uiso   1.00
H770   H     0.42421   0.64817   0.77686   0.00000  Uiso   1.00
H771   H     0.62587   0.49442   0.88234   0.00000  Uiso   1.00
H772   H     0.65222   0.47378   0.79088   0.00000  Uiso   1.00
H773   H     0.54087   0.33717   0.71378   0.00000  Uiso   1.00
H774   H     0.61410   0.46462   0.99333   0.00000  Uiso   1.00
H775   H     0.46923   0.49539   0.58055   0.00000  Uiso   1.00
H776   H     0.40817   0.53922   0.92591   0.00000  Uiso   1.00
H777   H     0.42943   0.51615   0.54856   0.00000  Uiso   1.00
H778   H     0.38430   0.53646   0.50724   0.00000  Uiso   1.00
H779   H     0.55797   0.52226   0.88918   0.00000  Uiso   1.00
N780   N     0.44574   0.66151   0.79560   0.00000  Uiso   1.00
O781   O     0.50000   0.50000   0.75000   0.00000  Uiso   1.00
O782   O     0.48784   0.45970   0.65458   0.00000  Uiso   1.00
O783   O     0.46274   0.53724   0.84968   0.00000  Uiso   1.00
O784   O     0.54157   0.51092   0.64606   0.00000  Uiso   1.00
O785   O     0.50785   0.49213   0.84968   0.00000  Uiso   1.00
O786   O     0.64756   0.51059   0.93652   0.00000  Uiso   1.00
O787   O     0.51264   0.41352   0.78213   0.00000  Uiso   1.00
O788   O     0.47965   0.59418   0.77013   0.00000  Uiso   1.00
O789   O     0.40745   0.46625   0.73413   0.00000  Uiso   1.00
O790   O     0.60026   0.52605   0.71360   0.00000  Uiso   1.00
O791   O     0.40405   0.52211   0.78213   0.00000  Uiso   1.00
O792   O     0.58824   0.48559   0.77013   0.00000  Uiso   1.00
O793   O     0.47093   0.40277   0.73413   0.00000  Uiso   1.00
O794   O     0.53678   0.58953   0.71360   0.00000  Uiso   1.00
Zn795  Zn    0.52672   0.47327   0.78734   0.00000  Uiso   1.00
Zn796  Zn    0.46713   0.45791   0.71875   0.00000  Uiso   1.00
Zn797  Zn    0.54389   0.53109   0.70657   0.00000  Uiso   1.00
Zn798  Zn    0.46226   0.53773   0.78733   0.00000  Uiso   1.00
C799   C     0.71943   0.49315   0.76002   0.00000  Uiso   1.00
C800   C     0.83349   0.48897   0.55951   0.00000  Uiso   1.00
C801   C     0.90213   0.46717   0.55637   0.00000  Uiso   1.00
C802   C     0.94749   0.50721   0.73997   0.00000  Uiso   1.00
C803   C     0.80535   0.52355   0.92027   0.00000  Uiso   1.00
C804   C     0.99343   0.50991   0.73579   0.00000  Uiso   1.00
C805   C     0.67409   0.49100   0.76415   0.00000  Uiso   1.00
C806   C     0.84667   0.65587   0.73787   0.00000  Uiso   1.00
C807   C     0.81740   0.34565   0.76460   0.00000  Uiso   1.00
C808   C     0.82339   0.38940   0.75963   0.00000  Uiso   1.00
C809   C     0.84309   0.61125   0.74034   0.00000  Uiso   1.00
C810   C     0.74994   0.53014   0.98969   0.00000  Uiso   1.00
C811   C     0.85221   0.48176   0.62935   0.00000  Uiso   1.00
C812   C     0.81568   0.51846   0.87087   0.00000  Uiso   1.00
C813   C     0.91592   0.47282   0.51088   0.00000  Uiso   1.00
C814   C     0.86145   0.47627   0.58081   0.00000  Uiso   1.00
C815   C     0.76388   0.53227   0.94359   0.00000  Uiso   1.00
C816   C     0.95148   0.50066   0.91854   0.00000  Uiso   1.00
C817   C     0.77658   0.51819   0.51314   0.00000  Uiso   1.00
C818   C     0.81906   0.50977   0.99100   0.00000  Uiso   1.00
C819   C     0.83413   0.51497   0.94436   0.00000  Uiso   1.00
C820   C     0.84687   0.49604   0.51346   0.00000  Uiso   1.00
C821   C     0.88986   0.48955   0.98930   0.00000  Uiso   1.00
C822   C     0.90574   0.50024   0.94443   0.00000  Uiso   1.00
C823   C     0.87780   0.51260   0.92284   0.00000  Uiso   1.00
H824   H     0.92392   0.45723   0.57298   0.00000  Uiso   1.00
H825   H     0.68263   0.52725   0.70952   0.00000  Uiso   1.00
H826   H     0.76434   0.35189   0.81706   0.00000  Uiso   1.00
H827   H     0.75755   0.64817   0.77686   0.00000  Uiso   1.00
H828   H     0.95920   0.49442   0.88234   0.00000  Uiso   1.00
H829   H     0.98555   0.47378   0.79088   0.00000  Uiso   1.00
H830   H     0.87421   0.33717   0.71378   0.00000  Uiso   1.00
H831   H     0.94744   0.46462   0.99333   0.00000  Uiso   1.00
H832   H     0.80256   0.49539   0.58055   0.00000  Uiso   1.00
H833   H     0.74151   0.53922   0.92591   0.00000  Uiso   1.00
H834   H     0.76276   0.51615   0.54856   0.00000  Uiso   1.00
H835   H     0.71763   0.53646   0.50724   0.00000  Uiso   1.00
H836   H     0.89130   0.52226   0.88918   0.00000  Uiso   1.00
N837   N     0.77908   0.66151   0.79560   0.00000  Uiso   1.00
O838   O     0.83333   0.50000   0.75000   0.00000  Uiso   1.00
O839   O     0.82118   0.45970   0.65458   0.00000  Uiso   1.00
O840   O     0.79607   0.53724   0.84968   0.00000  Uiso   1.00
O841   O     0.87491   0.51092   0.64606   0.00000  Uiso   1.00
O842   O     0.84118   0.49213   0.84968   0.00000  Uiso   1.00
O843   O     0.98090   0.51059   0.93652   0.00000  Uiso   1.00
O844   O     0.84597   0.41352   0.78213   0.00000  Uiso   1.00
O845   O     0.81298   0.59418   0.77013   0.00000  Uiso   1.00
O846   O     0.74078   0.46625   0.73413   0.00000  Uiso   1.00
O847   O     0.93360   0.52605   0.71360   0.00000  Uiso   1.00
O848   O     0.73738   0.52211   0.78213   0.00000  Uiso   1.00
O849   O     0.92158   0.48559   0.77013   0.00000  Uiso   1.00
O850   O     0.80426   0.40277   0.73413   0.00000  Uiso   1.00
O851   O     0.87012   0.58953   0.71360   0.00000  Uiso   1.00
Zn852  Zn    0.86005   0.47327   0.78734   0.00000  Uiso   1.00
Zn853  Zn    0.80046   0.45791   0.71875   0.00000  Uiso   1.00
Zn854  Zn    0.87723   0.53109   0.70657   0.00000  Uiso   1.00
Zn855  Zn    0.79560   0.53773   0.78733   0.00000  Uiso   1.00
C856   C     0.05277   0.82648   0.76002   0.00000  Uiso   1.00
C857   C     0.16682   0.82231   0.55951   0.00000  Uiso   1.00
C858   C     0.23546   0.80050   0.55637   0.00000  Uiso   1.00
C859   C     0.28082   0.84054   0.73997   0.00000  Uiso   1.00
C860   C     0.13869   0.85688   0.92027   0.00000  Uiso   1.00
C861   C     0.32676   0.84324   0.73579   0.00000  Uiso   1.00
C862   C     0.00742   0.82433   0.76415   0.00000  Uiso   1.00
C863   C     0.18000   0.98920   0.73787   0.00000  Uiso   1.00
C864   C     0.15074   0.67899   0.76460   0.00000  Uiso   1.00
C865   C     0.15672   0.72273   0.75963   0.00000  Uiso   1.00
C866   C     0.17642   0.94459   0.74034   0.00000  Uiso   1.00
C867   C     0.08327   0.86347   0.98969   0.00000  Uiso   1.00
C868   C     0.18554   0.81509   0.62935   0.00000  Uiso   1.00
C869   C     0.14902   0.85180   0.87087   0.00000  Uiso   1.00
C870   C     0.24925   0.80615   0.51088   0.00000  Uiso   1.00
C871   C     0.19478   0.80960   0.58081   0.00000  Uiso   1.00
C872   C     0.09722   0.86560   0.94359   0.00000  Uiso   1.00
C873   C     0.28481   0.83399   0.91854   0.00000  Uiso   1.00
C874   C     0.10991   0.85152   0.51314   0.00000  Uiso   1.00
C875   C     0.15240   0.84310   0.99100   0.00000  Uiso   1.00
C876   C     0.16747   0.84831   0.94436   0.00000  Uiso   1.00
C877   C     0.18020   0.82937   0.51346   0.00000  Uiso   1.00
C878   C     0.22320   0.82288   0.98930   0.00000  Uiso   1.00
C879   C     0.23907   0.83357   0.94443   0.00000  Uiso   1.00
C880   C     0.21113   0.84594   0.92284   0.00000  Uiso   1.00
H881   H     0.25725   0.79056   0.57298   0.00000  Uiso   1.00
H882   H     0.01596   0.86058   0.70952   0.00000  Uiso   1.00
H883   H     0.09767   0.68523   0.81706   0.00000  Uiso   1.00
H884   H     0.09088   0.98150   0.77686   0.00000  Uiso   1.00
H885   H     0.29254   0.82776   0.88234   0.00000  Uiso   1.00
H886   H     0.31888   0.80711   0.79088   0.00000  Uiso   1.00
H887   H     0.20754   0.67050   0.71378   0.00000  Uiso   1.00
H888   H     0.28077   0.79795   0.99333   0.00000  Uiso   1.00
H889   H     0.13590   0.82872   0.58055   0.00000  Uiso   1.00
H890   H     0.07484   0.87255   0.92591   0.00000  Uiso   1.00
H891   H     0.09609   0.84948   0.54856   0.00000  Uiso   1.00
H892   H     0.05096   0.86979   0.50724   0.00000  Uiso   1.00
H893   H     0.22464   0.85559   0.88918   0.00000  Uiso   1.00
N894   N     0.11241   0.99484   0.79560   0.00000  Uiso   1.00
O895   O     0.16667   0.83333   0.75000   0.00000  Uiso   1.00
O896   O     0.15451   0.79304   0.65458   0.00000  Uiso   1.00
O897   O     0.12940   0.87058   0.84968   0.00000  Uiso   1.00
O898   O     0.20824   0.84425   0.64606   0.00000  Uiso   1.00
O899   O     0.17451   0.82546   0.84968   0.00000  Uiso   1.00
O900   O     0.31423   0.84392   0.93652   0.00000  Uiso   1.00
O901   O     0.17930   0.74686   0.78213   0.00000  Uiso   1.00
O902   O     0.14632   0.92751   0.77013   0.00000  Uiso   1.00
O903   O     0.07412   0.79958   0.73413   0.00000  Uiso   1.00
O904   O     0.26693   0.85939   0.71360   0.00000  Uiso   1.00
O905   O     0.07071   0.85544   0.78213   0.00000  Uiso   1.00
O906   O     0.25491   0.81892   0.77013   0.00000  Uiso   1.00
O907   O     0.13760   0.73610   0.73413   0.00000  Uiso   1.00
O908   O     0.20345   0.92286   0.71360   0.00000  Uiso   1.00
Zn909  Zn    0.19338   0.80661   0.78734   0.00000  Uiso   1.00
Zn910  Zn    0.13379   0.79124   0.71875   0.00000  Uiso   1.00
Zn911  Zn    0.21056   0.86442   0.70657   0.00000  Uiso   1.00
Zn912  Zn    0.12893   0.87106   0.78733   0.00000  Uiso   1.00
C913   C     0.38610   0.82648   0.76002   0.00000  Uiso   1.00
C914   C     0.50015   0.82231   0.55951   0.00000  Uiso   1.00
C915   C     0.56879   0.80050   0.55637   0.00000  Uiso   1.00
C916   C     0.61415   0.84054   0.73997   0.00000  Uiso   1.00
C917   C     0.47202   0.85688   0.92027   0.00000  Uiso   1.00
C918   C     0.66010   0.84324   0.73579   0.00000  Uiso   1.00
C919   C     0.34076   0.82433   0.76415   0.00000  Uiso   1.00
C920   C     0.51333   0.98920   0.73787   0.00000  Uiso   1.00
C921   C     0.48407   0.67899   0.76460   0.00000  Uiso   1.00
C922   C     0.49006   0.72273   0.75963   0.00000  Uiso   1.00
C923   C     0.50975   0.94459   0.74034   0.00000  Uiso   1.00
C924   C     0.41660   0.86347   0.98969   0.00000  Uiso   1.00
C925   C     0.51888   0.81509   0.62935   0.00000  Uiso   1.00
C926   C     0.48235   0.85180   0.87087   0.00000  Uiso   1.00
C927   C     0.58258   0.80615   0.51088   0.00000  Uiso   1.00
C928   C     0.52812   0.80960   0.58081   0.00000  Uiso   1.00
C929   C     0.43055   0.86560   0.94359   0.00000  Uiso   1.00
C930   C     0.61815   0.83399   0.91854   0.00000  Uiso   1.00
C931   C     0.44324   0.85152   0.51314   0.00000  Uiso   1.00
C932   C     0.48573   0.84310   0.99100   0.00000  Uiso   1.00
C933   C     0.50080   0.84831   0.94436   0.00000  Uiso   1.00
C934   C     0.51354   0.82937   0.51346   0.00000  Uiso   1.00
C935   C     0.55653   0.82288   0.98930   0.00000  Uiso   1.00
C936   C     0.57240   0.83357   0.94443   0.00000  Uiso   1.00
C937   C     0.54446   0.84594   0.92284   0.00000  Uiso   1.00
H938   H     0.59059   0.79056   0.57298   0.00000  Uiso   1.00
H939   H     0.34929   0.86058   0.70952   0.00000  Uiso   1.00
H940   H     0.43101   0.68523   0.81706   0.00000  Uiso   1.00
H941   H     0.42421   0.98150   0.77686   0.00000  Uiso   1.00
H942   H     0.62587   0.82776   0.88234   0.00000  Uiso   1.00
H943   H     0.65222   0.80711   0.79088   0.00000  Uiso   1.00
H944   H     0.54087   0.67050   0.71378   0.00000  Uiso   1.00
H945   H     0.61410   0.79795   0.99333   0.00000  Uiso   1.00
H946   H     0.46923   0.82872   0.58055   0.00000  Uiso   1.00
H947   H     0.40817   0.87255   0.92591   0.00000  Uiso   1.00
H948   H     0.42943   0.84948   0.54856   0.00000  Uiso   1.00
H949   H     0.38430   0.86979   0.50724   0.00000  Uiso   1.00
H950   H     0.55797   0.85559   0.88918   0.00000  Uiso   1.00
N951   N     0.44574   0.99484   0.79560   0.00000  Uiso   1.00
O952   O     0.50000   0.83333   0.75000   0.00000  Uiso   1.00
O953   O     0.48784   0.79304   0.65458   0.00000  Uiso   1.00
O954   O     0.46274   0.87058   0.84968   0.00000  Uiso   1.00
O955   O     0.54157   0.84425   0.64606   0.00000  Uiso   1.00
O956   O     0.50785   0.82546   0.84968   0.00000  Uiso   1.00
O957   O     0.64756   0.84392   0.93652   0.00000  Uiso   1.00
O958   O     0.51264   0.74686   0.78213   0.00000  Uiso   1.00
O959   O     0.47965   0.92751   0.77013   0.00000  Uiso   1.00
O960   O     0.40745   0.79958   0.73413   0.00000  Uiso   1.00
O961   O     0.60026   0.85939   0.71360   0.00000  Uiso   1.00
O962   O     0.40405   0.85544   0.78213   0.00000  Uiso   1.00
O963   O     0.58824   0.81892   0.77013   0.00000  Uiso   1.00
O964   O     0.47093   0.73610   0.73413   0.00000  Uiso   1.00
O965   O     0.53678   0.92286   0.71360   0.00000  Uiso   1.00
Zn966  Zn    0.52672   0.80661   0.78734   0.00000  Uiso   1.00
Zn967  Zn    0.46713   0.79124   0.71875   0.00000  Uiso   1.00
Zn968  Zn    0.54389   0.86442   0.70657   0.00000  Uiso   1.00
Zn969  Zn    0.46226   0.87106   0.78733   0.00000  Uiso   1.00
C970   C     0.71943   0.82648   0.76002   0.00000  Uiso   1.00
C971   C     0.83349   0.82231   0.55951   0.00000  Uiso   1.00
C972   C     0.90213   0.80050   0.55637   0.00000  Uiso   1.00
C973   C     0.94749   0.84054   0.73997   0.00000  Uiso   1.00
C974   C     0.80535   0.85688   0.92027   0.00000  Uiso   1.00
C975   C     0.99343   0.84324   0.73579   0.00000  Uiso   1.00
C976   C     0.67409   0.82433   0.76415   0.00000  Uiso   1.00
C977   C     0.84667   0.98920   0.73787   0.00000  Uiso   1.00
C978   C     0.81740   0.67899   0.76460   0.00000  Uiso   1.00
C979   C     0.82339   0.72273   0.75963   0.00000  Uiso   1.00
C980   C     0.84309   0.94459   0.74034   0.00000  Uiso   1.00
C981   C     0.74994   0.86347   0.98969   0.00000  Uiso   1.00
C982   C     0.85221   0.81509   0.62935   0.00000  Uiso   1.00
C983   C     0.81568   0.85180   0.87087   0.00000  Uiso   1.00
C984   C     0.91592   0.80615   0.51088   0.00000  Uiso   1.00
C985   C     0.86145   0.80960   0.58081   0.00000  Uiso   1.00
C986   C     0.76388   0.86560   0.94359   0.00000  Uiso   1.00
C987   C     0.95148   0.83399   0.91854   0.00000  Uiso   1.00
C988   C     0.77658   0.85152   0.51314   0.00000  Uiso   1.00
C989   C     0.81906   0.84310   0.99100   0.00000  Uiso   1.00
C990   C     0.83413   0.84831   0.94436   0.00000  Uiso   1.00
C991   C     0.84687   0.82937   0.51346   0.00000  Uiso   1.00
C992   C     0.88986   0.82288   0.98930   0.00000  Uiso   1.00
C993   C     0.90574   0.83357   0.94443   0.00000  Uiso   1.00
C994   C     0.87780   0.84594   0.92284   0.00000  Uiso   1.00
H995   H     0.92392   0.79056   0.57298   0.00000  Uiso   1.00
H996   H     0.68263   0.86058   0.70952   0.00000  Uiso   1.00
H997   H     0.76434   0.68523   0.81706   0.00000  Uiso   1.00
H998   H     0.75755   0.98150   0.77686   0.00000  Uiso   1.00
H999   H     0.95920   0.82776   0.88234   0.00000  Uiso   1.00
H1000  H     0.98555   0.80711   0.79088   0.00000  Uiso   1.00
H1001  H     0.87421   0.67050   0.71378   0.00000  Uiso   1.00
H1002  H     0.94744   0.79795   0.99333   0.00000  Uiso   1.00
H1003  H     0.80256   0.82872   0.58055   0.00000  Uiso   1.00
H1004  H     0.74151   0.87255   0.92591   0.00000  Uiso   1.00
H1005  H     0.76276   0.84948   0.54856   0.00000  Uiso   1.00
H1006  H     0.71763   0.86979   0.50724   0.00000  Uiso   1.00
H1007  H     0.89130   0.85559   0.88918   0.00000  Uiso   1.00
N1008  N     0.77908   0.99484   0.79560   0.00000  Uiso   1.00
O1009  O     0.83333   0.83333   0.75000   0.00000  Uiso   1.00
O1010  O     0.82118   0.79304   0.65458   0.00000  Uiso   1.00
O1011  O     0.79607   0.87058   0.84968   0.00000  Uiso   1.00
O1012  O     0.87491   0.84425   0.64606   0.00000  Uiso   1.00
O1013  O     0.84118   0.82546   0.84968   0.00000  Uiso   1.00
O1014  O     0.98090   0.84392   0.93652   0.00000  Uiso   1.00
O1015  O     0.84597   0.74686   0.78213   0.00000  Uiso   1.00
O1016  O     0.81298   0.92751   0.77013   0.00000  Uiso   1.00
O1017  O     0.74078   0.79958   0.73413   0.00000  Uiso   1.00
O1018  O     0.93360   0.85939   0.71360   0.00000  Uiso   1.00
O1019  O     0.73738   0.85544   0.78213   0.00000  Uiso   1.00
O1020  O     0.92158   0.81892   0.77013   0.00000  Uiso   1.00
O1021  O     0.80426   0.73610   0.73413   0.00000  Uiso   1.00
O1022  O     0.87012   0.92286   0.71360   0.00000  Uiso   1.00
Zn1023 Zn    0.86005   0.80661   0.78734   0.00000  Uiso   1.00
Zn1024 Zn    0.80046   0.79124   0.71875   0.00000  Uiso   1.00
Zn1025 Zn    0.87723   0.86442   0.70657   0.00000  Uiso   1.00
Zn1026 Zn    0.79560   0.87106   0.78733   0.00000  Uiso   1.00
loop_
_geom_bond_atom_site_label_1
_geom_bond_atom_site_label_2
_geom_bond_distance
_geom_bond_site_symmetry_2
_ccdc_geom_bond_type
C1     O48     1.273   .     A
C1     O50     1.272   .     A
C1     C7      1.437   .     S
C2     C22     1.412   .     A
C2     C16     1.390   .     A
C2     H34     1.076   .     S
C3     C15     1.386   .     A
C3     H26     1.084   .     S
C3     C16     1.392   .     A
C4     O49     1.283   .     A
C4     C6      1.455   .     S
C4     O51     1.278   .     A
C5     C14     1.475   .     S
C5     C17     1.401   .     A
C5     C21     1.419   .     A
C6     C64     1.335   .     S
C6     H84     1.088   .     S
C7     C120    1.335   1_455 S
C7     H145    1.086   1_455 S
C8     C11     1.454   .     S
C8     C180    1.345   .     S
C8     H203    1.088   .     S
C9     C10     1.433   .     S
C9     C350    1.345   1_545 S
C9     N381    1.440   1_545 S
C10    O46     1.278   .     A
C10    O52     1.275   .     A
C11    O47     1.262   .     A
C11    O53     1.273   .     A
C12    C17     1.386   .     A
C12    C532    1.391   .     S
C12    H550    1.083   .     S
C13    O41     1.280   .     A
C13    C16     1.451   .     S
C13    O43     1.270   .     A
C14    O42     1.283   .     A
C14    O44     1.283   .     A
C15    C536    1.410   1_554 S
C15    H546    1.080   1_554 S
C17    H35     1.083   .     S
C18    H30     1.086   .     S
C18    C24     1.487   .     S
C18    O45     1.221   .     D
C19    H36     1.076   .     S
C19    C525    1.391   1_554 S
C19    C533    1.419   1_554 S
C20    C21     1.419   .     A
C20    C532    1.419   .     S
C20    C535    1.426   .     S
C21    C25     1.406   .     A
C22    C533    1.426   1_554 S
C22    C536    1.431   1_554 S
C23    C24     1.413   .     A
C23    C528    1.410   .     S
C23    C535    1.431   .     S
C24    C25     1.390   .     A
C25    H38     1.082   .     S
H27    C120    1.088   1_455 S
H28    N381    1.046   1_545 S
H29    N39     1.046   .     S
H31    C64     1.086   .     S
H32    C350    1.088   1_545 S
H33    C528    1.080   .     S
H37    C525    1.083   1_554 S
N39    H199    1.046   .     S
N39    C180    1.440   .     S
O40    Zn54    1.962   .     S
O40    Zn57    1.929   .     S
O40    Zn56    1.932   .     S
O40    Zn55    1.952   .     S
O41    Zn55    1.928   .     S
O42    Zn57    1.942   .     S
O43    Zn56    1.938   .     S
O44    Zn54    1.925   .     S
O46    Zn54    1.937   .     S
O47    Zn57    1.938   .     S
O48    Zn55    1.922   .     S
O49    Zn56    1.936   .     S
O50    Zn57    1.933   .     S
O51    Zn54    1.921   .     S
O52    Zn55    1.943   .     S
O53    Zn56    1.937   .     S
C58    O105    1.273   .     A
C58    O107    1.272   .     A
C58    C64     1.437   .     S
C59    C79     1.412   .     A
C59    C73     1.390   .     A
C59    H91     1.076   .     S
C60    C72     1.386   .     A
C60    H83     1.084   .     S
C60    C73     1.392   .     A
C61    O106    1.283   .     A
C61    C63     1.455   .     S
C61    O108    1.278   .     A
C62    C71     1.475   .     S
C62    C74     1.401   .     A
C62    C78     1.419   .     A
C63    C121    1.335   .     S
C63    H141    1.088   .     S
C65    C68     1.454   .     S
C65    C237    1.345   .     S
C65    H260    1.088   .     S
C66    C67     1.433   .     S
C66    C407    1.345   1_545 S
C66    N438    1.440   1_545 S
C67    O103    1.278   .     A
C67    O109    1.275   .     A
C68    O104    1.262   .     A
C68    O110    1.273   .     A
C69    C74     1.386   .     A
C69    C589    1.391   .     S
C69    H607    1.083   .     S
C70    O98     1.280   .     A
C70    C73     1.451   .     S
C70    O100    1.270   .     A
C71    O99     1.283   .     A
C71    O101    1.283   .     A
C72    C593    1.410   1_554 S
C72    H603    1.080   1_554 S
C74    H92     1.083   .     S
C75    H87     1.086   .     S
C75    C81     1.487   .     S
C75    O102    1.221   .     D
C76    H93     1.076   .     S
C76    C582    1.391   1_554 S
C76    C590    1.419   1_554 S
C77    C78     1.419   .     A
C77    C589    1.419   .     S
C77    C592    1.426   .     S
C78    C82     1.406   .     A
C79    C590    1.426   1_554 S
C79    C593    1.431   1_554 S
C80    C81     1.413   .     A
C80    C585    1.410   .     S
C80    C592    1.431   .     S
C81    C82     1.390   .     A
C82    H95     1.082   .     S
H85    N438    1.046   1_545 S
H86    N96     1.046   .     S
H88    C121    1.086   .     S
H89    C407    1.088   1_545 S
H90    C585    1.080   .     S
H94    C582    1.083   1_554 S
N96    H256    1.046   .     S
N96    C237    1.440   .     S
O97    Zn111   1.962   .     S
O97    Zn114   1.929   .     S
O97    Zn113   1.932   .     S
O97    Zn112   1.952   .     S
O98    Zn112   1.928   .     S
O99    Zn114   1.942   .     S
O100   Zn113   1.938   .     S
O101   Zn111   1.925   .     S
O103   Zn111   1.937   .     S
O104   Zn114   1.938   .     S
O105   Zn112   1.922   .     S
O106   Zn113   1.936   .     S
O107   Zn114   1.933   .     S
O108   Zn111   1.921   .     S
O109   Zn112   1.943   .     S
O110   Zn113   1.937   .     S
C115   O162    1.273   .     A
C115   O164    1.272   .     A
C115   C121    1.437   .     S
C116   C136    1.412   .     A
C116   C130    1.390   .     A
C116   H148    1.076   .     S
C117   C129    1.386   .     A
C117   H140    1.084   .     S
C117   C130    1.392   .     A
C118   O163    1.283   .     A
C118   C120    1.455   .     S
C118   O165    1.278   .     A
C119   C128    1.475   .     S
C119   C131    1.401   .     A
C119   C135    1.419   .     A
C120   C7      1.335   1_655 S
C120   H27     1.088   1_655 S
C122   C125    1.454   .     S
C122   C294    1.345   .     S
C122   H317    1.088   .     S
C123   C124    1.433   .     S
C123   C464    1.345   1_545 S
C123   N495    1.440   1_545 S
C124   O160    1.278   .     A
C124   O166    1.275   .     A
C125   O161    1.262   .     A
C125   O167    1.273   .     A
C126   C131    1.386   .     A
C126   C646    1.391   .     S
C126   H664    1.083   .     S
C127   O155    1.280   .     A
C127   C130    1.451   .     S
C127   O157    1.270   .     A
C128   O156    1.283   .     A
C128   O158    1.283   .     A
C129   C650    1.410   1_554 S
C129   H660    1.080   1_554 S
C131   H149    1.083   .     S
C132   H144    1.086   .     S
C132   C138    1.487   .     S
C132   O159    1.221   .     D
C133   H150    1.076   .     S
C133   C639    1.391   1_554 S
C133   C647    1.419   1_554 S
C134   C135    1.419   .     A
C134   C646    1.419   .     S
C134   C649    1.426   .     S
C135   C139    1.406   .     A
C136   C647    1.426   1_554 S
C136   C650    1.431   1_554 S
C137   C138    1.413   .     A
C137   C642    1.410   .     S
C137   C649    1.431   .     S
C138   C139    1.390   .     A
C139   H152    1.082   .     S
H142   N495    1.046   1_545 S
H143   N153    1.046   .     S
H145   C7      1.086   1_655 S
H146   C464    1.088   1_545 S
H147   C642    1.080   .     S
H151   C639    1.083   1_554 S
N153   H313    1.046   .     S
N153   C294    1.440   .     S
O154   Zn168   1.962   .     S
O154   Zn171   1.929   .     S
O154   Zn170   1.932   .     S
O154   Zn169   1.952   .     S
O155   Zn169   1.928   .     S
O156   Zn171   1.942   .     S
O157   Zn170   1.938   .     S
O158   Zn168   1.925   .     S
O160   Zn168   1.937   .     S
O161   Zn171   1.938   .     S
O162   Zn169   1.922   .     S
O163   Zn170   1.936   .     S
O164   Zn171   1.933   .     S
O165   Zn168   1.921   .     S
O166   Zn169   1.943   .     S
O167   Zn170   1.937   .     S
C172   O219    1.273   .     A
C172   O221    1.272   .     A
C172   C178    1.437   .     S
C173   C193    1.412   .     A
C173   C187    1.390   .     A
C173   H205    1.076   .     S
C174   C186    1.386   .     A
C174   H197    1.084   .     S
C174   C187    1.392   .     A
C175   O220    1.283   .     A
C175   C177    1.455   .     S
C175   O222    1.278   .     A
C176   C185    1.475   .     S
C176   C188    1.401   .     A
C176   C192    1.419   .     A
C177   C235    1.335   .     S
C177   H255    1.088   .     S
C178   C291    1.335   1_455 S
C178   H316    1.086   1_455 S
C179   C182    1.454   .     S
C179   C351    1.345   .     S
C179   H374    1.088   .     S
C180   C181    1.433   .     S
C181   O217    1.278   .     A
C181   O223    1.275   .     A
C182   O218    1.262   .     A
C182   O224    1.273   .     A
C183   C188    1.386   .     A
C183   C703    1.391   .     S
C183   H721    1.083   .     S
C184   O212    1.280   .     A
C184   C187    1.451   .     S
C184   O214    1.270   .     A
C185   O213    1.283   .     A
C185   O215    1.283   .     A
C186   C707    1.410   1_554 S
C186   H717    1.080   1_554 S
C188   H206    1.083   .     S
C189   H201    1.086   .     S
C189   C195    1.487   .     S
C189   O216    1.221   .     D
C190   H207    1.076   .     S
C190   C696    1.391   1_554 S
C190   C704    1.419   1_554 S
C191   C192    1.419   .     A
C191   C703    1.419   .     S
C191   C706    1.426   .     S
C192   C196    1.406   .     A
C193   C704    1.426   1_554 S
C193   C707    1.431   1_554 S
C194   C195    1.413   .     A
C194   C699    1.410   .     S
C194   C706    1.431   .     S
C195   C196    1.390   .     A
C196   H209    1.082   .     S
H198   C291    1.088   1_455 S
H200   N210    1.046   .     S
H202   C235    1.086   .     S
H204   C699    1.080   .     S
H208   C696    1.083   1_554 S
N210   H370    1.046   .     S
N210   C351    1.440   .     S
O211   Zn225   1.962   .     S
O211   Zn228   1.929   .     S
O211   Zn227   1.932   .     S
O211   Zn226   1.952   .     S
O212   Zn226   1.928   .     S
O213   Zn228   1.942   .     S
O214   Zn227   1.938   .     S
O215   Zn225   1.925   .     S
O217   Zn225   1.937   .     S
O218   Zn228   1.938   .     S
O219   Zn226   1.922   .     S
O220   Zn227   1.936   .     S
O221   Zn228   1.933   .     S
O222   Zn225   1.921   .     S
O223   Zn226   1.943   .     S
O224   Zn227   1.937   .     S
C229   O276    1.273   .     A
C229   O278    1.272   .     A
C229   C235    1.437   .     S
C230   C250    1.412   .     A
C230   C244    1.390   .     A
C230   H262    1.076   .     S
C231   C243    1.386   .     A
C231   H254    1.084   .     S
C231   C244    1.392   .     A
C232   O277    1.283   .     A
C232   C234    1.455   .     S
C232   O279    1.278   .     A
C233   C242    1.475   .     S
C233   C245    1.401   .     A
C233   C249    1.419   .     A
C234   C292    1.335   .     S
C234   H312    1.088   .     S
C236   C239    1.454   .     S
C236   C408    1.345   .     S
C236   H431    1.088   .     S
C237   C238    1.433   .     S
C238   O274    1.278   .     A
C238   O280    1.275   .     A
C239   O275    1.262   .     A
C239   O281    1.273   .     A
C240   C245    1.386   .     A
C240   C760    1.391   .     S
C240   H778    1.083   .     S
C241   O269    1.280   .     A
C241   C244    1.451   .     S
C241   O271    1.270   .     A
C242   O270    1.283   .     A
C242   O272    1.283   .     A
C243   C764    1.410   1_554 S
C243   H774    1.080   1_554 S
C245   H263    1.083   .     S
C246   H258    1.086   .     S
C246   C252    1.487   .     S
C246   O273    1.221   .     D
C247   H264    1.076   .     S
C247   C753    1.391   1_554 S
C247   C761    1.419   1_554 S
C248   C249    1.419   .     A
C248   C760    1.419   .     S
C248   C763    1.426   .     S
C249   C253    1.406   .     A
C250   C761    1.426   1_554 S
C250   C764    1.431   1_554 S
C251   C252    1.413   .     A
C251   C756    1.410   .     S
C251   C763    1.431   .     S
C252   C253    1.390   .     A
C253   H266    1.082   .     S
H257   N267    1.046   .     S
H259   C292    1.086   .     S
H261   C756    1.080   .     S
H265   C753    1.083   1_554 S
N267   H427    1.046   .     S
N267   C408    1.440   .     S
O268   Zn282   1.962   .     S
O268   Zn285   1.929   .     S
O268   Zn284   1.932   .     S
O268   Zn283   1.952   .     S
O269   Zn283   1.928   .     S
O270   Zn285   1.942   .     S
O271   Zn284   1.938   .     S
O272   Zn282   1.925   .     S
O274   Zn282   1.937   .     S
O275   Zn285   1.938   .     S
O276   Zn283   1.922   .     S
O277   Zn284   1.936   .     S
O278   Zn285   1.933   .     S
O279   Zn282   1.921   .     S
O280   Zn283   1.943   .     S
O281   Zn284   1.937   .     S
C286   O333    1.273   .     A
C286   O335    1.272   .     A
C286   C292    1.437   .     S
C287   C307    1.412   .     A
C287   C301    1.390   .     A
C287   H319    1.076   .     S
C288   C300    1.386   .     A
C288   H311    1.084   .     S
C288   C301    1.392   .     A
C289   O334    1.283   .     A
C289   C291    1.455   .     S
C289   O336    1.278   .     A
C290   C299    1.475   .     S
C290   C302    1.401   .     A
C290   C306    1.419   .     A
C291   C178    1.335   1_655 S
C291   H198    1.088   1_655 S
C293   C296    1.454   .     S
C293   C465    1.345   .     S
C293   H488    1.088   .     S
C294   C295    1.433   .     S
C295   O331    1.278   .     A
C295   O337    1.275   .     A
C296   O332    1.262   .     A
C296   O338    1.273   .     A
C297   C302    1.386   .     A
C297   C817    1.391   .     S
C297   H835    1.083   .     S
C298   O326    1.280   .     A
C298   C301    1.451   .     S
C298   O328    1.270   .     A
C299   O327    1.283   .     A
C299   O329    1.283   .     A
C300   C821    1.410   1_554 S
C300   H831    1.080   1_554 S
C302   H320    1.083   .     S
C303   H315    1.086   .     S
C303   C309    1.487   .     S
C303   O330    1.221   .     D
C304   H321    1.076   .     S
C304   C810    1.391   1_554 S
C304   C818    1.419   1_554 S
C305   C306    1.419   .     A
C305   C817    1.419   .     S
C305   C820    1.426   .     S
C306   C310    1.406   .     A
C307   C818    1.426   1_554 S
C307   C821    1.431   1_554 S
C308   C309    1.413   .     A
C308   C813    1.410   .     S
C308   C820    1.431   .     S
C309   C310    1.390   .     A
C310   H323    1.082   .     S
H314   N324    1.046   .     S
H316   C178    1.086   1_655 S
H318   C813    1.080   .     S
H322   C810    1.083   1_554 S
N324   H484    1.046   .     S
N324   C465    1.440   .     S
O325   Zn339   1.962   .     S
O325   Zn342   1.929   .     S
O325   Zn341   1.932   .     S
O325   Zn340   1.952   .     S
O326   Zn340   1.928   .     S
O327   Zn342   1.942   .     S
O328   Zn341   1.938   .     S
O329   Zn339   1.925   .     S
O331   Zn339   1.937   .     S
O332   Zn342   1.938   .     S
O333   Zn340   1.922   .     S
O334   Zn341   1.936   .     S
O335   Zn342   1.933   .     S
O336   Zn339   1.921   .     S
O337   Zn340   1.943   .     S
O338   Zn341   1.937   .     S
C343   O390    1.273   .     A
C343   O392    1.272   .     A
C343   C349    1.437   .     S
C344   C364    1.412   .     A
C344   C358    1.390   .     A
C344   H376    1.076   .     S
C345   C357    1.386   .     A
C345   H368    1.084   .     S
C345   C358    1.392   .     A
C346   O391    1.283   .     A
C346   C348    1.455   .     S
C346   O393    1.278   .     A
C347   C356    1.475   .     S
C347   C359    1.401   .     A
C347   C363    1.419   .     A
C348   C406    1.335   .     S
C348   H426    1.088   .     S
C349   C462    1.335   1_455 S
C349   H487    1.086   1_455 S
C350   C353    1.454   .     S
C350   C9      1.345   1_565 S
C350   H32     1.088   1_565 S
C351   C352    1.433   .     S
C352   O388    1.278   .     A
C352   O394    1.275   .     A
C353   O389    1.262   .     A
C353   O395    1.273   .     A
C354   C359    1.386   .     A
C354   C874    1.391   .     S
C354   H892    1.083   .     S
C355   O383    1.280   .     A
C355   C358    1.451   .     S
C355   O385    1.270   .     A
C356   O384    1.283   .     A
C356   O386    1.283   .     A
C357   C878    1.410   1_554 S
C357   H888    1.080   1_554 S
C359   H377    1.083   .     S
C360   H372    1.086   .     S
C360   C366    1.487   .     S
C360   O387    1.221   .     D
C361   H378    1.076   .     S
C361   C867    1.391   1_554 S
C361   C875    1.419   1_554 S
C362   C363    1.419   .     A
C362   C874    1.419   .     S
C362   C877    1.426   .     S
C363   C367    1.406   .     A
C364   C875    1.426   1_554 S
C364   C878    1.431   1_554 S
C365   C366    1.413   .     A
C365   C870    1.410   .     S
C365   C877    1.431   .     S
C366   C367    1.390   .     A
C367   H380    1.082   .     S
H369   C462    1.088   1_455 S
H371   N381    1.046   .     S
H373   C406    1.086   .     S
H375   C870    1.080   .     S
H379   C867    1.083   1_554 S
N381   H28     1.046   1_565 S
N381   C9      1.440   1_565 S
O382   Zn396   1.962   .     S
O382   Zn399   1.929   .     S
O382   Zn398   1.932   .     S
O382   Zn397   1.952   .     S
O383   Zn397   1.928   .     S
O384   Zn399   1.942   .     S
O385   Zn398   1.938   .     S
O386   Zn396   1.925   .     S
O388   Zn396   1.937   .     S
O389   Zn399   1.938   .     S
O390   Zn397   1.922   .     S
O391   Zn398   1.936   .     S
O392   Zn399   1.933   .     S
O393   Zn396   1.921   .     S
O394   Zn397   1.943   .     S
O395   Zn398   1.937   .     S
C400   O447    1.273   .     A
C400   O449    1.272   .     A
C400   C406    1.437   .     S
C401   C421    1.412   .     A
C401   C415    1.390   .     A
C401   H433    1.076   .     S
C402   C414    1.386   .     A
C402   H425    1.084   .     S
C402   C415    1.392   .     A
C403   O448    1.283   .     A
C403   C405    1.455   .     S
C403   O450    1.278   .     A
C404   C413    1.475   .     S
C404   C416    1.401   .     A
C404   C420    1.419   .     A
C405   C463    1.335   .     S
C405   H483    1.088   .     S
C407   C410    1.454   .     S
C407   C66     1.345   1_565 S
C407   H89     1.088   1_565 S
C408   C409    1.433   .     S
C409   O445    1.278   .     A
C409   O451    1.275   .     A
C410   O446    1.262   .     A
C410   O452    1.273   .     A
C411   C416    1.386   .     A
C411   C931    1.391   .     S
C411   H949    1.083   .     S
C412   O440    1.280   .     A
C412   C415    1.451   .     S
C412   O442    1.270   .     A
C413   O441    1.283   .     A
C413   O443    1.283   .     A
C414   C935    1.410   1_554 S
C414   H945    1.080   1_554 S
C416   H434    1.083   .     S
C417   H429    1.086   .     S
C417   C423    1.487   .     S
C417   O444    1.221   .     D
C418   H435    1.076   .     S
C418   C924    1.391   1_554 S
C418   C932    1.419   1_554 S
C419   C420    1.419   .     A
C419   C931    1.419   .     S
C419   C934    1.426   .     S
C420   C424    1.406   .     A
C421   C932    1.426   1_554 S
C421   C935    1.431   1_554 S
C422   C423    1.413   .     A
C422   C927    1.410   .     S
C422   C934    1.431   .     S
C423   C424    1.390   .     A
C424   H437    1.082   .     S
H428   N438    1.046   .     S
H430   C463    1.086   .     S
H432   C927    1.080   .     S
H436   C924    1.083   1_554 S
N438   H85     1.046   1_565 S
N438   C66     1.440   1_565 S
O439   Zn453   1.962   .     S
O439   Zn456   1.929   .     S
O439   Zn455   1.932   .     S
O439   Zn454   1.952   .     S
O440   Zn454   1.928   .     S
O441   Zn456   1.942   .     S
O442   Zn455   1.938   .     S
O443   Zn453   1.925   .     S
O445   Zn453   1.937   .     S
O446   Zn456   1.938   .     S
O447   Zn454   1.922   .     S
O448   Zn455   1.936   .     S
O449   Zn456   1.933   .     S
O450   Zn453   1.921   .     S
O451   Zn454   1.943   .     S
O452   Zn455   1.937   .     S
C457   O504    1.273   .     A
C457   O506    1.272   .     A
C457   C463    1.437   .     S
C458   C478    1.412   .     A
C458   C472    1.390   .     A
C458   H490    1.076   .     S
C459   C471    1.386   .     A
C459   H482    1.084   .     S
C459   C472    1.392   .     A
C460   O505    1.283   .     A
C460   C462    1.455   .     S
C460   O507    1.278   .     A
C461   C470    1.475   .     S
C461   C473    1.401   .     A
C461   C477    1.419   .     A
C462   C349    1.335   1_655 S
C462   H369    1.088   1_655 S
C464   C467    1.454   .     S
C464   C123    1.345   1_565 S
C464   H146    1.088   1_565 S
C465   C466    1.433   .     S
C466   O502    1.278   .     A
C466   O508    1.275   .     A
C467   O503    1.262   .     A
C467   O509    1.273   .     A
C468   C473    1.386   .     A
C468   C988    1.391   .     S
C468   H1006   1.083   .     S
C469   O497    1.280   .     A
C469   C472    1.451   .     S
C469   O499    1.270   .     A
C470   O498    1.283   .     A
C470   O500    1.283   .     A
C471   C992    1.410   1_554 S
C471   H1002   1.080   1_554 S
C473   H491    1.083   .     S
C474   H486    1.086   .     S
C474   C480    1.487   .     S
C474   O501    1.221   .     D
C475   H492    1.076   .     S
C475   C981    1.391   1_554 S
C475   C989    1.419   1_554 S
C476   C477    1.419   .     A
C476   C988    1.419   .     S
C476   C991    1.426   .     S
C477   C481    1.406   .     A
C478   C989    1.426   1_554 S
C478   C992    1.431   1_554 S
C479   C480    1.413   .     A
C479   C984    1.410   .     S
C479   C991    1.431   .     S
C480   C481    1.390   .     A
C481   H494    1.082   .     S
H485   N495    1.046   .     S
H487   C349    1.086   1_655 S
H489   C984    1.080   .     S
H493   C981    1.083   1_554 S
N495   H142    1.046   1_565 S
N495   C123    1.440   1_565 S
O496   Zn510   1.962   .     S
O496   Zn513   1.929   .     S
O496   Zn512   1.932   .     S
O496   Zn511   1.952   .     S
O497   Zn511   1.928   .     S
O498   Zn513   1.942   .     S
O499   Zn512   1.938   .     S
O500   Zn510   1.925   .     S
O502   Zn510   1.937   .     S
O503   Zn513   1.938   .     S
O504   Zn511   1.922   .     S
O505   Zn512   1.936   .     S
O506   Zn513   1.933   .     S
O507   Zn510   1.921   .     S
O508   Zn511   1.943   .     S
O509   Zn512   1.937   .     S
C514   O561    1.273   .     A
C514   O563    1.272   .     A
C514   C520    1.437   .     S
C515   C535    1.412   .     A
C515   C529    1.390   .     A
C515   H547    1.076   .     S
C516   C528    1.386   .     A
C516   H539    1.084   .     S
C516   C529    1.392   .     A
C517   O562    1.283   .     A
C517   C519    1.455   .     S
C517   O564    1.278   .     A
C518   C527    1.475   .     S
C518   C530    1.401   .     A
C518   C534    1.419   .     A
C519   C577    1.335   .     S
C519   H597    1.088   .     S
C520   C633    1.335   1_455 S
C520   H658    1.086   1_455 S
C521   C524    1.454   .     S
C521   C693    1.345   .     S
C521   H716    1.088   .     S
C522   C523    1.433   .     S
C522   C863    1.345   1_545 S
C522   N894    1.440   1_545 S
C523   O559    1.278   .     A
C523   O565    1.275   .     A
C524   O560    1.262   .     A
C524   O566    1.273   .     A
C525   C530    1.386   .     A
C525   C19     1.391   1_556 S
C525   H37     1.083   1_556 S
C526   O554    1.280   .     A
C526   C529    1.451   .     S
C526   O556    1.270   .     A
C527   O555    1.283   .     A
C527   O557    1.283   .     A
C530   H548    1.083   .     S
C531   H543    1.086   .     S
C531   C537    1.487   .     S
C531   O558    1.221   .     D
C532   H549    1.076   .     S
C533   C534    1.419   .     A
C533   C19     1.419   1_556 S
C533   C22     1.426   1_556 S
C534   C538    1.406   .     A
C536   C537    1.413   .     A
C536   C15     1.410   1_556 S
C536   C22     1.431   1_556 S
C537   C538    1.390   .     A
C538   H551    1.082   .     S
H540   C633    1.088   1_455 S
H541   N894    1.046   1_545 S
H542   N552    1.046   .     S
H544   C577    1.086   .     S
H545   C863    1.088   1_545 S
H546   C15     1.080   1_556 S
N552   H712    1.046   .     S
N552   C693    1.440   .     S
O553   Zn567   1.962   .     S
O553   Zn570   1.929   .     S
O553   Zn569   1.932   .     S
O553   Zn568   1.952   .     S
O554   Zn568   1.928   .     S
O555   Zn570   1.942   .     S
O556   Zn569   1.938   .     S
O557   Zn567   1.925   .     S
O559   Zn567   1.937   .     S
O560   Zn570   1.938   .     S
O561   Zn568   1.922   .     S
O562   Zn569   1.936   .     S
O563   Zn570   1.933   .     S
O564   Zn567   1.921   .     S
O565   Zn568   1.943   .     S
O566   Zn569   1.937   .     S
C571   O618    1.273   .     A
C571   O620    1.272   .     A
C571   C577    1.437   .     S
C572   C592    1.412   .     A
C572   C586    1.390   .     A
C572   H604    1.076   .     S
C573   C585    1.386   .     A
C573   H596    1.084   .     S
C573   C586    1.392   .     A
C574   O619    1.283   .     A
C574   C576    1.455   .     S
C574   O621    1.278   .     A
C575   C584    1.475   .     S
C575   C587    1.401   .     A
C575   C591    1.419   .     A
C576   C634    1.335   .     S
C576   H654    1.088   .     S
C578   C581    1.454   .     S
C578   C750    1.345   .     S
C578   H773    1.088   .     S
C579   C580    1.433   .     S
C579   C920    1.345   1_545 S
C579   N951    1.440   1_545 S
C580   O616    1.278   .     A
C580   O622    1.275   .     A
C581   O617    1.262   .     A
C581   O623    1.273   .     A
C582   C587    1.386   .     A
C582   C76     1.391   1_556 S
C582   H94     1.083   1_556 S
C583   O611    1.280   .     A
C583   C586    1.451   .     S
C583   O613    1.270   .     A
C584   O612    1.283   .     A
C584   O614    1.283   .     A
C587   H605    1.083   .     S
C588   H600    1.086   .     S
C588   C594    1.487   .     S
C588   O615    1.221   .     D
C589   H606    1.076   .     S
C590   C591    1.419   .     A
C590   C76     1.419   1_556 S
C590   C79     1.426   1_556 S
C591   C595    1.406   .     A
C593   C594    1.413   .     A
C593   C72     1.410   1_556 S
C593   C79     1.431   1_556 S
C594   C595    1.390   .     A
C595   H608    1.082   .     S
H598   N951    1.046   1_545 S
H599   N609    1.046   .     S
H601   C634    1.086   .     S
H602   C920    1.088   1_545 S
H603   C72     1.080   1_556 S
N609   H769    1.046   .     S
N609   C750    1.440   .     S
O610   Zn624   1.962   .     S
O610   Zn627   1.929   .     S
O610   Zn626   1.932   .     S
O610   Zn625   1.952   .     S
O611   Zn625   1.928   .     S
O612   Zn627   1.942   .     S
O613   Zn626   1.938   .     S
O614   Zn624   1.925   .     S
O616   Zn624   1.937   .     S
O617   Zn627   1.938   .     S
O618   Zn625   1.922   .     S
O619   Zn626   1.936   .     S
O620   Zn627   1.933   .     S
O621   Zn624   1.921   .     S
O622   Zn625   1.943   .     S
O623   Zn626   1.937   .     S
C628   O675    1.273   .     A
C628   O677    1.272   .     A
C628   C634    1.437   .     S
C629   C649    1.412   .     A
C629   C643    1.390   .     A
C629   H661    1.076   .     S
C630   C642    1.386   .     A
C630   H653    1.084   .     S
C630   C643    1.392   .     A
C631   O676    1.283   .     A
C631   C633    1.455   .     S
C631   O678    1.278   .     A
C632   C641    1.475   .     S
C632   C644    1.401   .     A
C632   C648    1.419   .     A
C633   C520    1.335   1_655 S
C633   H540    1.088   1_655 S
C635   C638    1.454   .     S
C635   C807    1.345   .     S
C635   H830    1.088   .     S
C636   C637    1.433   .     S
C636   C977    1.345   1_545 S
C636   N1008   1.440   1_545 S
C637   O673    1.278   .     A
C637   O679    1.275   .     A
C638   O674    1.262   .     A
C638   O680    1.273   .     A
C639   C644    1.386   .     A
C639   C133    1.391   1_556 S
C639   H151    1.083   1_556 S
C640   O668    1.280   .     A
C640   C643    1.451   .     S
C640   O670    1.270   .     A
C641   O669    1.283   .     A
C641   O671    1.283   .     A
C644   H662    1.083   .     S
C645   H657    1.086   .     S
C645   C651    1.487   .     S
C645   O672    1.221   .     D
C646   H663    1.076   .     S
C647   C648    1.419   .     A
C647   C133    1.419   1_556 S
C647   C136    1.426   1_556 S
C648   C652    1.406   .     A
C650   C651    1.413   .     A
C650   C129    1.410   1_556 S
C650   C136    1.431   1_556 S
C651   C652    1.390   .     A
C652   H665    1.082   .     S
H655   N1008   1.046   1_545 S
H656   N666    1.046   .     S
H658   C520    1.086   1_655 S
H659   C977    1.088   1_545 S
H660   C129    1.080   1_556 S
N666   H826    1.046   .     S
N666   C807    1.440   .     S
O667   Zn681   1.962   .     S
O667   Zn684   1.929   .     S
O667   Zn683   1.932   .     S
O667   Zn682   1.952   .     S
O668   Zn682   1.928   .     S
O669   Zn684   1.942   .     S
O670   Zn683   1.938   .     S
O671   Zn681   1.925   .     S
O673   Zn681   1.937   .     S
O674   Zn684   1.938   .     S
O675   Zn682   1.922   .     S
O676   Zn683   1.936   .     S
O677   Zn684   1.933   .     S
O678   Zn681   1.921   .     S
O679   Zn682   1.943   .     S
O680   Zn683   1.937   .     S
C685   O732    1.273   .     A
C685   O734    1.272   .     A
C685   C691    1.437   .     S
C686   C706    1.412   .     A
C686   C700    1.390   .     A
C686   H718    1.076   .     S
C687   C699    1.386   .     A
C687   H710    1.084   .     S
C687   C700    1.392   .     A
C688   O733    1.283   .     A
C688   C690    1.455   .     S
C688   O735    1.278   .     A
C689   C698    1.475   .     S
C689   C701    1.401   .     A
C689   C705    1.419   .     A
C690   C748    1.335   .     S
C690   H768    1.088   .     S
C691   C804    1.335   1_455 S
C691   H829    1.086   1_455 S
C692   C695    1.454   .     S
C692   C864    1.345   .     S
C692   H887    1.088   .     S
C693   C694    1.433   .     S
C694   O730    1.278   .     A
C694   O736    1.275   .     A
C695   O731    1.262   .     A
C695   O737    1.273   .     A
C696   C701    1.386   .     A
C696   C190    1.391   1_556 S
C696   H208    1.083   1_556 S
C697   O725    1.280   .     A
C697   C700    1.451   .     S
C697   O727    1.270   .     A
C698   O726    1.283   .     A
C698   O728    1.283   .     A
C701   H719    1.083   .     S
C702   H714    1.086   .     S
C702   C708    1.487   .     S
C702   O729    1.221   .     D
C703   H720    1.076   .     S
C704   C705    1.419   .     A
C704   C190    1.419   1_556 S
C704   C193    1.426   1_556 S
C705   C709    1.406   .     A
C707   C708    1.413   .     A
C707   C186    1.410   1_556 S
C707   C193    1.431   1_556 S
C708   C709    1.390   .     A
C709   H722    1.082   .     S
H711   C804    1.088   1_455 S
H713   N723    1.046   .     S
H715   C748    1.086   .     S
H717   C186    1.080   1_556 S
N723   H883    1.046   .     S
N723   C864    1.440   .     S
O724   Zn738   1.962   .     S
O724   Zn741   1.929   .     S
O724   Zn740   1.932   .     S
O724   Zn739   1.952   .     S
O725   Zn739   1.928   .     S
O726   Zn741   1.942   .     S
O727   Zn740   1.938   .     S
O728   Zn738   1.925   .     S
O730   Zn738   1.937   .     S
O731   Zn741   1.938   .     S
O732   Zn739   1.922   .     S
O733   Zn740   1.936   .     S
O734   Zn741   1.933   .     S
O735   Zn738   1.921   .     S
O736   Zn739   1.943   .     S
O737   Zn740   1.937   .     S
C742   O789    1.273   .     A
C742   O791    1.272   .     A
C742   C748    1.437   .     S
C743   C763    1.412   .     A
C743   C757    1.390   .     A
C743   H775    1.076   .     S
C744   C756    1.386   .     A
C744   H767    1.084   .     S
C744   C757    1.392   .     A
C745   O790    1.283   .     A
C745   C747    1.455   .     S
C745   O792    1.278   .     A
C746   C755    1.475   .     S
C746   C758    1.401   .     A
C746   C762    1.419   .     A
C747   C805    1.335   .     S
C747   H825    1.088   .     S
C749   C752    1.454   .     S
C749   C921    1.345   .     S
C749   H944    1.088   .     S
C750   C751    1.433   .     S
C751   O787    1.278   .     A
C751   O793    1.275   .     A
C752   O788    1.262   .     A
C752   O794    1.273   .     A
C753   C758    1.386   .     A
C753   C247    1.391   1_556 S
C753   H265    1.083   1_556 S
C754   O782    1.280   .     A
C754   C757    1.451   .     S
C754   O784    1.270   .     A
C755   O783    1.283   .     A
C755   O785    1.283   .     A
C758   H776    1.083   .     S
C759   H771    1.086   .     S
C759   C765    1.487   .     S
C759   O786    1.221   .     D
C760   H777    1.076   .     S
C761   C762    1.419   .     A
C761   C247    1.419   1_556 S
C761   C250    1.426   1_556 S
C762   C766    1.406   .     A
C764   C765    1.413   .     A
C764   C243    1.410   1_556 S
C764   C250    1.431   1_556 S
C765   C766    1.390   .     A
C766   H779    1.082   .     S
H770   N780    1.046   .     S
H772   C805    1.086   .     S
H774   C243    1.080   1_556 S
N780   H940    1.046   .     S
N780   C921    1.440   .     S
O781   Zn795   1.962   .     S
O781   Zn798   1.929   .     S
O781   Zn797   1.932   .     S
O781   Zn796   1.952   .     S
O782   Zn796   1.928   .     S
O783   Zn798   1.942   .     S
O784   Zn797   1.938   .     S
O785   Zn795   1.925   .     S
O787   Zn795   1.937   .     S
O788   Zn798   1.938   .     S
O789   Zn796   1.922   .     S
O790   Zn797   1.936   .     S
O791   Zn798   1.933   .     S
O792   Zn795   1.921   .     S
O793   Zn796   1.943   .     S
O794   Zn797   1.937   .     S
C799   O846    1.273   .     A
C799   O848    1.272   .     A
C799   C805    1.437   .     S
C800   C820    1.412   .     A
C800   C814    1.390   .     A
C800   H832    1.076   .     S
C801   C813    1.386   .     A
C801   H824    1.084   .     S
C801   C814    1.392   .     A
C802   O847    1.283   .     A
C802   C804    1.455   .     S
C802   O849    1.278   .     A
C803   C812    1.475   .     S
C803   C815    1.401   .     A
C803   C819    1.419   .     A
C804   C691    1.335   1_655 S
C804   H711    1.088   1_655 S
C806   C809    1.454   .     S
C806   C978    1.345   .     S
C806   H1001   1.088   .     S
C807   C808    1.433   .     S
C808   O844    1.278   .     A
C808   O850    1.275   .     A
C809   O845    1.262   .     A
C809   O851    1.273   .     A
C810   C815    1.386   .     A
C810   C304    1.391   1_556 S
C810   H322    1.083   1_556 S
C811   O839    1.280   .     A
C811   C814    1.451   .     S
C811   O841    1.270   .     A
C812   O840    1.283   .     A
C812   O842    1.283   .     A
C815   H833    1.083   .     S
C816   H828    1.086   .     S
C816   C822    1.487   .     S
C816   O843    1.221   .     D
C817   H834    1.076   .     S
C818   C819    1.419   .     A
C818   C304    1.419   1_556 S
C818   C307    1.426   1_556 S
C819   C823    1.406   .     A
C821   C822    1.413   .     A
C821   C300    1.410   1_556 S
C821   C307    1.431   1_556 S
C822   C823    1.390   .     A
C823   H836    1.082   .     S
H827   N837    1.046   .     S
H829   C691    1.086   1_655 S
H831   C300    1.080   1_556 S
N837   H997    1.046   .     S
N837   C978    1.440   .     S
O838   Zn852   1.962   .     S
O838   Zn855   1.929   .     S
O838   Zn854   1.932   .     S
O838   Zn853   1.952   .     S
O839   Zn853   1.928   .     S
O840   Zn855   1.942   .     S
O841   Zn854   1.938   .     S
O842   Zn852   1.925   .     S
O844   Zn852   1.937   .     S
O845   Zn855   1.938   .     S
O846   Zn853   1.922   .     S
O847   Zn854   1.936   .     S
O848   Zn855   1.933   .     S
O849   Zn852   1.921   .     S
O850   Zn853   1.943   .     S
O851   Zn854   1.937   .     S
C856   O903    1.273   .     A
C856   O905    1.272   .     A
C856   C862    1.437   .     S
C857   C877    1.412   .     A
C857   C871    1.390   .     A
C857   H889    1.076   .     S
C858   C870    1.386   .     A
C858   H881    1.084   .     S
C858   C871    1.392   .     A
C859   O904    1.283   .     A
C859   C861    1.455   .     S
C859   O906    1.278   .     A
C860   C869    1.475   .     S
C860   C872    1.401   .     A
C860   C876    1.419   .     A
C861   C919    1.335   .     S
C861   H939    1.088   .     S
C862   C975    1.335   1_455 S
C862   H1000   1.086   1_455 S
C863   C866    1.454   .     S
C863   C522    1.345   1_565 S
C863   H545    1.088   1_565 S
C864   C865    1.433   .     S
C865   O901    1.278   .     A
C865   O907    1.275   .     A
C866   O902    1.262   .     A
C866   O908    1.273   .     A
C867   C872    1.386   .     A
C867   C361    1.391   1_556 S
C867   H379    1.083   1_556 S
C868   O896    1.280   .     A
C868   C871    1.451   .     S
C868   O898    1.270   .     A
C869   O897    1.283   .     A
C869   O899    1.283   .     A
C872   H890    1.083   .     S
C873   H885    1.086   .     S
C873   C879    1.487   .     S
C873   O900    1.221   .     D
C874   H891    1.076   .     S
C875   C876    1.419   .     A
C875   C361    1.419   1_556 S
C875   C364    1.426   1_556 S
C876   C880    1.406   .     A
C878   C879    1.413   .     A
C878   C357    1.410   1_556 S
C878   C364    1.431   1_556 S
C879   C880    1.390   .     A
C880   H893    1.082   .     S
H882   C975    1.088   1_455 S
H884   N894    1.046   .     S
H886   C919    1.086   .     S
H888   C357    1.080   1_556 S
N894   H541    1.046   1_565 S
N894   C522    1.440   1_565 S
O895   Zn909   1.962   .     S
O895   Zn912   1.929   .     S
O895   Zn911   1.932   .     S
O895   Zn910   1.952   .     S
O896   Zn910   1.928   .     S
O897   Zn912   1.942   .     S
O898   Zn911   1.938   .     S
O899   Zn909   1.925   .     S
O901   Zn909   1.937   .     S
O902   Zn912   1.938   .     S
O903   Zn910   1.922   .     S
O904   Zn911   1.936   .     S
O905   Zn912   1.933   .     S
O906   Zn909   1.921   .     S
O907   Zn910   1.943   .     S
O908   Zn911   1.937   .     S
C913   O960    1.273   .     A
C913   O962    1.272   .     A
C913   C919    1.437   .     S
C914   C934    1.412   .     A
C914   C928    1.390   .     A
C914   H946    1.076   .     S
C915   C927    1.386   .     A
C915   H938    1.084   .     S
C915   C928    1.392   .     A
C916   O961    1.283   .     A
C916   C918    1.455   .     S
C916   O963    1.278   .     A
C917   C926    1.475   .     S
C917   C929    1.401   .     A
C917   C933    1.419   .     A
C918   C976    1.335   .     S
C918   H996    1.088   .     S
C920   C923    1.454   .     S
C920   C579    1.345   1_565 S
C920   H602    1.088   1_565 S
C921   C922    1.433   .     S
C922   O958    1.278   .     A
C922   O964    1.275   .     A
C923   O959    1.262   .     A
C923   O965    1.273   .     A
C924   C929    1.386   .     A
C924   C418    1.391   1_556 S
C924   H436    1.083   1_556 S
C925   O953    1.280   .     A
C925   C928    1.451   .     S
C925   O955    1.270   .     A
C926   O954    1.283   .     A
C926   O956    1.283   .     A
C929   H947    1.083   .     S
C930   H942    1.086   .     S
C930   C936    1.487   .     S
C930   O957    1.221   .     D
C931   H948    1.076   .     S
C932   C933    1.419   .     A
C932   C418    1.419   1_556 S
C932   C421    1.426   1_556 S
C933   C937    1.406   .     A
C935   C936    1.413   .     A
C935   C414    1.410   1_556 S
C935   C421    1.431   1_556 S
C936   C937    1.390   .     A
C937   H950    1.082   .     S
H941   N951    1.046   .     S
H943   C976    1.086   .     S
H945   C414    1.080   1_556 S
N951   H598    1.046   1_565 S
N951   C579    1.440   1_565 S
O952   Zn966   1.962   .     S
O952   Zn969   1.929   .     S
O952   Zn968   1.932   .     S
O952   Zn967   1.952   .     S
O953   Zn967   1.928   .     S
O954   Zn969   1.942   .     S
O955   Zn968   1.938   .     S
O956   Zn966   1.925   .     S
O958   Zn966   1.937   .     S
O959   Zn969   1.938   .     S
O960   Zn967   1.922   .     S
O961   Zn968   1.936   .     S
O962   Zn969   1.933   .     S
O963   Zn966   1.921   .     S
O964   Zn967   1.943   .     S
O965   Zn968   1.937   .     S
C970   O1017   1.273   .     A
C970   O1019   1.272   .     A
C970   C976    1.437   .     S
C971   C991    1.412   .     A
C971   C985    1.390   .     A
C971   H1003   1.076   .     S
C972   C984    1.386   .     A
C972   H995    1.084   .     S
C972   C985    1.392   .     A
C973   O1018   1.283   .     A
C973   C975    1.455   .     S
C973   O1020   1.278   .     A
C974   C983    1.475   .     S
C974   C986    1.401   .     A
C974   C990    1.419   .     A
C975   C862    1.335   1_655 S
C975   H882    1.088   1_655 S
C977   C980    1.454   .     S
C977   C636    1.345   1_565 S
C977   H659    1.088   1_565 S
C978   C979    1.433   .     S
C979   O1015   1.278   .     A
C979   O1021   1.275   .     A
C980   O1016   1.262   .     A
C980   O1022   1.273   .     A
C981   C986    1.386   .     A
C981   C475    1.391   1_556 S
C981   H493    1.083   1_556 S
C982   O1010   1.280   .     A
C982   C985    1.451   .     S
C982   O1012   1.270   .     A
C983   O1011   1.283   .     A
C983   O1013   1.283   .     A
C986   H1004   1.083   .     S
C987   H999    1.086   .     S
C987   C993    1.487   .     S
C987   O1014   1.221   .     D
C988   H1005   1.076   .     S
C989   C990    1.419   .     A
C989   C475    1.419   1_556 S
C989   C478    1.426   1_556 S
C990   C994    1.406   .     A
C992   C993    1.413   .     A
C992   C471    1.410   1_556 S
C992   C478    1.431   1_556 S
C993   C994    1.390   .     A
C994   H1007   1.082   .     S
H998   N1008   1.046   .     S
H1000  C862    1.086   1_655 S
H1002  C471    1.080   1_556 S
N1008  H655    1.046   1_565 S
N1008  C636    1.440   1_565 S
O1009  Zn1023  1.962   .     S
O1009  Zn1026  1.929   .     S
O1009  Zn1025  1.932   .     S
O1009  Zn1024  1.952   .     S
O1010  Zn1024  1.928   .     S
O1011  Zn1026  1.942   .     S
O1012  Zn1025  1.938   .     S
O1013  Zn1023  1.925   .     S
O1015  Zn1023  1.937   .     S
O1016  Zn1026  1.938   .     S
O1017  Zn1024  1.922   .     S
O1018  Zn1025  1.936   .     S
O1019  Zn1026  1.933   .     S
O1020  Zn1023  1.921   .     S
O1021  Zn1024  1.943   .     S
O1022  Zn1025  1.937   .     S
