data_str_m1_o1_o2_pcu_sym.64
_audit_creation_date              2020-01-03
_audit_creation_method            'Materials Studio'
_symmetry_space_group_name_H-M    'P1'
_symmetry_Int_Tables_number       1
_symmetry_cell_setting            triclinic
loop_
_symmetry_equiv_pos_as_xyz
  x,y,z
_cell_length_a                    36.6467
_cell_length_b                    36.6307
_cell_length_c                    34.5864
_cell_angle_alpha                 90.2690
_cell_angle_beta                  89.6815
_cell_angle_gamma                 90.0788
loop_
_atom_site_label
_atom_site_type_symbol
_atom_site_fract_x
_atom_site_fract_y
_atom_site_fract_z
_atom_site_U_iso_or_equiv
_atom_site_adp_type
_atom_site_occupancy
C1     C     0.22004   0.01836   0.04203   0.00000  Uiso   1.00
C2     C     0.00694   0.21671   0.45762   0.00000  Uiso   1.00
C3     C     0.34735   0.40109   0.74957   0.00000  Uiso   1.00
C4     C     0.40187   0.15230   0.24913   0.00000  Uiso   1.00
C5     C     0.09810   0.34817   0.74971   0.00000  Uiso   1.00
C6     C     0.35066   0.40348   0.25119   0.00000  Uiso   1.00
C7     C     0.15192   0.09800   0.75047   0.00000  Uiso   1.00
C8     C     0.09940   0.15297   0.74963   0.00000  Uiso   1.00
C9     C     0.39734   0.34355   0.24514   0.00000  Uiso   1.00
C10    C     0.15164   0.40228   0.74937   0.00000  Uiso   1.00
C11    C     0.34800   0.09859   0.24979   0.00000  Uiso   1.00
C12    C     0.40186   0.34800   0.75058   0.00000  Uiso   1.00
C13    C     0.26492   0.47045   0.54125   0.00000  Uiso   1.00
C14    C     0.09724   0.15122   0.25029   0.00000  Uiso   1.00
C15    C     0.34785   0.09828   0.74948   0.00000  Uiso   1.00
C16    C     0.15230   0.40152   0.24985   0.00000  Uiso   1.00
C17    C     0.24990   0.00169   0.10209   0.00000  Uiso   1.00
C18    C     0.24951   0.00134   0.89777   0.00000  Uiso   1.00
C19    C     0.00040   0.24965   0.10209   0.00000  Uiso   1.00
C20    C     0.00048   0.24987   0.89778   0.00000  Uiso   1.00
C21    C     0.00034   0.24940   0.60227   0.00000  Uiso   1.00
C22    C     0.49972   0.24948   0.39733   0.00000  Uiso   1.00
C23    C     0.24938   0.49960   0.60235   0.00000  Uiso   1.00
C24    C     0.26275   0.02928   0.45971   0.00000  Uiso   1.00
C25    C     0.24939   0.00003   0.39807   0.00000  Uiso   1.00
C26    C     0.18900   0.36906   0.19716   0.00000  Uiso   1.00
C27    C     0.22245   0.35498   0.21884   0.00000  Uiso   1.00
C28    C     0.31602   0.12570   0.80857   0.00000  Uiso   1.00
C29    C     0.28241   0.14540   0.79319   0.00000  Uiso   1.00
C30    C     0.06746   0.12652   0.31158   0.00000  Uiso   1.00
C31    C     0.03057   0.11335   0.29622   0.00000  Uiso   1.00
C32    C     0.44687   0.39011   0.71584   0.00000  Uiso   1.00
C33    C     0.46951   0.41223   0.74465   0.00000  Uiso   1.00
C34    C     0.33541   0.10692   0.17748   0.00000  Uiso   1.00
C35    C     0.47860   0.22400   0.54152   0.00000  Uiso   1.00
C36    C     0.29461   0.11549   0.17923   0.00000  Uiso   1.00
C37    C     0.16813   0.39015   0.82022   0.00000  Uiso   1.00
C38    C     0.20582   0.37290   0.81640   0.00000  Uiso   1.00
C39    C     0.41183   0.35914   0.17456   0.00000  Uiso   1.00
C40    C     0.39679   0.32277   0.15940   0.00000  Uiso   1.00
C41    C     0.11362   0.17196   0.81919   0.00000  Uiso   1.00
C42    C     0.13176   0.20915   0.81343   0.00000  Uiso   1.00
C43    C     0.17254   0.11548   0.81850   0.00000  Uiso   1.00
C44    C     0.15604   0.09032   0.84921   0.00000  Uiso   1.00
C45    C     0.38723   0.43446   0.19636   0.00000  Uiso   1.00
C46    C     0.49281   0.28134   0.45856   0.00000  Uiso   1.00
C47    C     0.36393   0.44080   0.16037   0.00000  Uiso   1.00
C48    C     0.10761   0.33660   0.82199   0.00000  Uiso   1.00
C49    C     0.08506   0.36158   0.84855   0.00000  Uiso   1.00
C50    C     0.38517   0.17253   0.18063   0.00000  Uiso   1.00
C51    C     0.35224   0.19769   0.17603   0.00000  Uiso   1.00
C52    C     0.38532   0.44241   0.70624   0.00000  Uiso   1.00
C53    C     0.37277   0.43443   0.66497   0.00000  Uiso   1.00
C54    C     0.12800   0.07053   0.31373   0.00000  Uiso   1.00
C55    C     0.10104   0.03915   0.30824   0.00000  Uiso   1.00
C56    C     0.37380   0.18337   0.80885   0.00000  Uiso   1.00
C57    C     0.23195   0.02770   0.54179   0.00000  Uiso   1.00
C58    C     0.39362   0.17188   0.84545   0.00000  Uiso   1.00
C59    C     0.12626   0.31543   0.19142   0.00000  Uiso   1.00
C60    C     0.15010   0.28304   0.20257   0.00000  Uiso   1.00
C61    C     0.43594   0.12238   0.69370   0.00000  Uiso   1.00
C62    C     0.46902   0.10534   0.71351   0.00000  Uiso   1.00
C63    C     0.06380   0.37864   0.30536   0.00000  Uiso   1.00
C64    C     0.03058   0.39746   0.28793   0.00000  Uiso   1.00
C65    C     0.30109   0.35869   0.78152   0.00000  Uiso   1.00
C66    C     0.27557   0.34626   0.74893   0.00000  Uiso   1.00
C67    C     0.18179   0.12505   0.19041   0.00000  Uiso   1.00
C68    C     0.23495   0.46941   0.45861   0.00000  Uiso   1.00
C69    C     0.21175   0.15138   0.20323   0.00000  Uiso   1.00
C70    C     0.08496   0.35646   0.67756   0.00000  Uiso   1.00
C71    C     0.04442   0.36661   0.67946   0.00000  Uiso   1.00
C72    C     0.42430   0.13396   0.31600   0.00000  Uiso   1.00
C73    C     0.41208   0.15938   0.34880   0.00000  Uiso   1.00
C74    C     0.13195   0.07465   0.68433   0.00000  Uiso   1.00
C75    C     0.11190   0.04009   0.69678   0.00000  Uiso   1.00
C76    C     0.33706   0.38545   0.32189   0.00000  Uiso   1.00
C77    C     0.35278   0.42094   0.33851   0.00000  Uiso   1.00
C78    C     0.35635   0.30954   0.29408   0.00000  Uiso   1.00
C79    C     0.22031   0.01793   0.08242   0.00000  Uiso   1.00
C80    C     0.34457   0.28047   0.26465   0.00000  Uiso   1.00
C81    C     0.09296   0.14657   0.67590   0.00000  Uiso   1.00
C82    C     0.05458   0.13229   0.66829   0.00000  Uiso   1.00
C83    C     0.35490   0.09078   0.32309   0.00000  Uiso   1.00
C84    C     0.32785   0.11657   0.34324   0.00000  Uiso   1.00
C85    C     0.13860   0.41840   0.67847   0.00000  Uiso   1.00
C86    C     0.10680   0.44403   0.67004   0.00000  Uiso   1.00
C87    C     0.12139   0.17903   0.18764   0.00000  Uiso   1.00
C88    C     0.09973   0.16452   0.15323   0.00000  Uiso   1.00
C89    C     0.36175   0.30346   0.78830   0.00000  Uiso   1.00
C90    C     0.27863   0.01792   0.91801   0.00000  Uiso   1.00
C91    C     0.34078   0.27612   0.76337   0.00000  Uiso   1.00
C92    C     0.12005   0.43786   0.30296   0.00000  Uiso   1.00
C93    C     0.13999   0.43126   0.34094   0.00000  Uiso   1.00
C94    C     0.37283   0.06995   0.68712   0.00000  Uiso   1.00
C95    C     0.39856   0.03788   0.69356   0.00000  Uiso   1.00
C96    C     0.00851   0.21708   0.08146   0.00000  Uiso   1.00
C97    C     0.27811   0.01867   0.95835   0.00000  Uiso   1.00
C98    C     0.01757   0.27847   0.91870   0.00000  Uiso   1.00
C99    C     0.27916   0.48674   0.08048   0.00000  Uiso   1.00
C100   C     0.21983   0.48629   0.91865   0.00000  Uiso   1.00
C101   C     0.49279   0.28200   0.08131   0.00000  Uiso   1.00
C102   C     0.48472   0.22039   0.91825   0.00000  Uiso   1.00
C103   C     0.02275   0.27388   0.58159   0.00000  Uiso   1.00
C104   C     0.00719   0.21689   0.41711   0.00000  Uiso   1.00
C105   C     0.26594   0.47065   0.58157   0.00000  Uiso   1.00
C106   C     0.26363   0.02995   0.41953   0.00000  Uiso   1.00
C107   C     0.47821   0.22434   0.58203   0.00000  Uiso   1.00
C108   C     0.00890   0.21725   0.04122   0.00000  Uiso   1.00
C109   C     0.49233   0.28175   0.41809   0.00000  Uiso   1.00
C110   C     0.23206   0.02812   0.58212   0.00000  Uiso   1.00
C111   C     0.23494   0.46962   0.41825   0.00000  Uiso   1.00
C112   C     0.24915   0.00360   0.02100   0.00000  Uiso   1.00
C113   C     0.24872   0.00379   0.97878   0.00000  Uiso   1.00
C114   C     0.00127   0.24918   0.02102   0.00000  Uiso   1.00
C115   C     0.00158   0.24899   0.97880   0.00000  Uiso   1.00
C116   C     0.00037   0.24876   0.52098   0.00000  Uiso   1.00
C117   C     0.49998   0.24890   0.47843   0.00000  Uiso   1.00
C118   C     0.24824   0.49897   0.52143   0.00000  Uiso   1.00
C119   C     0.01804   0.27765   0.95878   0.00000  Uiso   1.00
C120   C     0.24853   0.49921   0.47924   0.00000  Uiso   1.00
C121   C     0.24994   0.00007   0.35536   0.00000  Uiso   1.00
C122   C     0.24992   0.49990   0.64479   0.00000  Uiso   1.00
C123   C     0.49991   0.24988   0.35508   0.00000  Uiso   1.00
C124   C     0.00010   0.24991   0.64478   0.00000  Uiso   1.00
C125   C     0.00005   0.25003   0.85525   0.00000  Uiso   1.00
C126   C     0.00005   0.24991   0.14470   0.00000  Uiso   1.00
C127   C     0.24988   0.00017   0.85525   0.00000  Uiso   1.00
C128   C     0.25004   0.00032   0.14470   0.00000  Uiso   1.00
C129   C     0.18001   0.07002   0.25014   0.00000  Uiso   1.00
C130   C     0.27865   0.48811   0.04020   0.00000  Uiso   1.00
C131   C     0.31955   0.42958   0.75028   0.00000  Uiso   1.00
C132   C     0.42977   0.18038   0.24948   0.00000  Uiso   1.00
C133   C     0.07013   0.31991   0.75009   0.00000  Uiso   1.00
C134   C     0.32111   0.43076   0.25090   0.00000  Uiso   1.00
C135   C     0.17996   0.06988   0.75007   0.00000  Uiso   1.00
C136   C     0.06990   0.31999   0.25000   0.00000  Uiso   1.00
C137   C     0.43009   0.18001   0.75002   0.00000  Uiso   1.00
C138   C     0.17977   0.43027   0.74962   0.00000  Uiso   1.00
C139   C     0.32020   0.06997   0.25021   0.00000  Uiso   1.00
C140   C     0.43009   0.32002   0.75008   0.00000  Uiso   1.00
C141   C     0.21956   0.48797   0.95898   0.00000  Uiso   1.00
C142   C     0.06952   0.17963   0.25043   0.00000  Uiso   1.00
C143   C     0.31997   0.06992   0.74983   0.00000  Uiso   1.00
C144   C     0.18030   0.42980   0.24973   0.00000  Uiso   1.00
C145   C     0.07016   0.18007   0.74974   0.00000  Uiso   1.00
C146   C     0.42852   0.31854   0.24828   0.00000  Uiso   1.00
C147   C     0.15530   0.37192   0.22348   0.00000  Uiso   1.00
C148   C     0.34701   0.12546   0.77868   0.00000  Uiso   1.00
C149   C     0.09747   0.12519   0.28049   0.00000  Uiso   1.00
C150   C     0.40907   0.38190   0.73260   0.00000  Uiso   1.00
C151   C     0.35528   0.11762   0.21481   0.00000  Uiso   1.00
C152   C     0.49322   0.28134   0.04107   0.00000  Uiso   1.00
C153   C     0.14476   0.38295   0.78405   0.00000  Uiso   1.00
C154   C     0.39598   0.36871   0.21444   0.00000  Uiso   1.00
C155   C     0.11955   0.14706   0.78399   0.00000  Uiso   1.00
C156   C     0.14717   0.12006   0.78388   0.00000  Uiso   1.00
C157   C     0.37572   0.40091   0.21953   0.00000  Uiso   1.00
C158   C     0.11698   0.35626   0.78439   0.00000  Uiso   1.00
C159   C     0.38079   0.14674   0.21533   0.00000  Uiso   1.00
C160   C     0.38111   0.40835   0.73120   0.00000  Uiso   1.00
C161   C     0.12556   0.09854   0.28106   0.00000  Uiso   1.00
C162   C     0.37416   0.15291   0.77860   0.00000  Uiso   1.00
C163   C     0.48525   0.22034   0.95852   0.00000  Uiso   1.00
C164   C     0.12682   0.34570   0.22214   0.00000  Uiso   1.00
C165   C     0.40321   0.12426   0.72130   0.00000  Uiso   1.00
C166   C     0.09566   0.37714   0.27663   0.00000  Uiso   1.00
C167   C     0.33960   0.36671   0.76642   0.00000  Uiso   1.00
C168   C     0.15109   0.12402   0.22041   0.00000  Uiso   1.00
C169   C     0.10554   0.36691   0.71467   0.00000  Uiso   1.00
C170   C     0.39661   0.13143   0.28294   0.00000  Uiso   1.00
C171   C     0.13116   0.10340   0.71667   0.00000  Uiso   1.00
C172   C     0.35146   0.37718   0.28107   0.00000  Uiso   1.00
C173   C     0.37002   0.34434   0.27430   0.00000  Uiso   1.00
C174   C     0.02234   0.27360   0.54111   0.00000  Uiso   1.00
C175   C     0.10774   0.13382   0.71487   0.00000  Uiso   1.00
C176   C     0.36712   0.10673   0.28438   0.00000  Uiso   1.00
C177   C     0.13194   0.39521   0.71478   0.00000  Uiso   1.00
C178   C     0.12337   0.15076   0.22008   0.00000  Uiso   1.00
C179   C     0.36754   0.34001   0.76770   0.00000  Uiso   1.00
C180   C     0.12263   0.40474   0.27603   0.00000  Uiso   1.00
C181   C     0.37483   0.09803   0.71994   0.00000  Uiso   1.00
C182   C     0.09803   0.34812   0.24959   0.00000  Uiso   1.00
C183   C     0.40201   0.15180   0.75009   0.00000  Uiso   1.00
C184   C     0.15175   0.09809   0.25064   0.00000  Uiso   1.00
H185   H     0.19732   0.03074   0.02705   0.00000  Uiso   1.00
H186   H     0.01270   0.19158   0.47281   0.00000  Uiso   1.00
H187   H     0.43039   0.10663   0.66711   0.00000  Uiso   1.00
H188   H     0.44321   0.14995   0.68285   0.00000  Uiso   1.00
H189   H     0.03757   0.42552   0.27842   0.00000  Uiso   1.00
H190   H     0.02021   0.38184   0.26273   0.00000  Uiso   1.00
H191   H     0.00847   0.39916   0.30994   0.00000  Uiso   1.00
H192   H     0.05587   0.35086   0.31496   0.00000  Uiso   1.00
H193   H     0.07132   0.39267   0.33258   0.00000  Uiso   1.00
H194   H     0.25490   0.32694   0.76052   0.00000  Uiso   1.00
H195   H     0.26063   0.36963   0.73653   0.00000  Uiso   1.00
H196   H     0.29082   0.33244   0.72521   0.00000  Uiso   1.00
H197   H     0.27793   0.44841   0.52535   0.00000  Uiso   1.00
H198   H     0.30073   0.33773   0.80433   0.00000  Uiso   1.00
H199   H     0.28945   0.38306   0.79626   0.00000  Uiso   1.00
H200   H     0.22794   0.13896   0.22680   0.00000  Uiso   1.00
H201   H     0.22984   0.15748   0.17827   0.00000  Uiso   1.00
H202   H     0.20027   0.17758   0.21397   0.00000  Uiso   1.00
H203   H     0.19409   0.09783   0.18516   0.00000  Uiso   1.00
H204   H     0.17160   0.13302   0.16159   0.00000  Uiso   1.00
H205   H     0.03310   0.36796   0.64981   0.00000  Uiso   1.00
H206   H     0.02841   0.34596   0.69560   0.00000  Uiso   1.00
H207   H     0.04074   0.39362   0.69349   0.00000  Uiso   1.00
H208   H     0.27388   0.05213   0.47584   0.00000  Uiso   1.00
H209   H     0.09642   0.36906   0.65129   0.00000  Uiso   1.00
H210   H     0.08800   0.32695   0.67127   0.00000  Uiso   1.00
H211   H     0.43629   0.16875   0.36529   0.00000  Uiso   1.00
H212   H     0.39780   0.18375   0.33743   0.00000  Uiso   1.00
H213   H     0.39387   0.14488   0.36929   0.00000  Uiso   1.00
H214   H     0.43101   0.10653   0.32735   0.00000  Uiso   1.00
H215   H     0.45115   0.14375   0.30528   0.00000  Uiso   1.00
H216   H     0.12755   0.02490   0.71882   0.00000  Uiso   1.00
H217   H     0.08448   0.04694   0.70859   0.00000  Uiso   1.00
H218   H     0.10822   0.02225   0.67118   0.00000  Uiso   1.00
H219   H     0.46154   0.20469   0.52609   0.00000  Uiso   1.00
H220   H     0.11861   0.08332   0.65742   0.00000  Uiso   1.00
H221   H     0.16035   0.06802   0.67560   0.00000  Uiso   1.00
H222   H     0.38307   0.42032   0.33719   0.00000  Uiso   1.00
H223   H     0.34290   0.44525   0.32279   0.00000  Uiso   1.00
H224   H     0.34424   0.42387   0.36923   0.00000  Uiso   1.00
H225   H     0.30682   0.38570   0.32284   0.00000  Uiso   1.00
H226   H     0.34562   0.36409   0.34257   0.00000  Uiso   1.00
H227   H     0.32246   0.29136   0.24613   0.00000  Uiso   1.00
H228   H     0.36747   0.27161   0.24577   0.00000  Uiso   1.00
H229   H     0.33405   0.25611   0.28014   0.00000  Uiso   1.00
H230   H     0.48723   0.30628   0.47449   0.00000  Uiso   1.00
H231   H     0.37673   0.29863   0.31456   0.00000  Uiso   1.00
H232   H     0.33147   0.31482   0.31163   0.00000  Uiso   1.00
H233   H     0.05383   0.10208   0.67058   0.00000  Uiso   1.00
H234   H     0.03508   0.14441   0.68930   0.00000  Uiso   1.00
H235   H     0.04598   0.14013   0.63874   0.00000  Uiso   1.00
H236   H     0.09335   0.17660   0.67341   0.00000  Uiso   1.00
H237   H     0.11136   0.13907   0.65166   0.00000  Uiso   1.00
H238   H     0.33537   0.14561   0.33870   0.00000  Uiso   1.00
H239   H     0.29985   0.11239   0.33207   0.00000  Uiso   1.00
H240   H     0.32774   0.11145   0.37482   0.00000  Uiso   1.00
H241   H     0.21869   0.04963   0.52632   0.00000  Uiso   1.00
H242   H     0.34254   0.06330   0.31987   0.00000  Uiso   1.00
H243   H     0.37806   0.08575   0.34265   0.00000  Uiso   1.00
H244   H     0.08247   0.42927   0.65962   0.00000  Uiso   1.00
H245   H     0.09944   0.45980   0.69644   0.00000  Uiso   1.00
H246   H     0.11500   0.46320   0.64679   0.00000  Uiso   1.00
H247   H     0.16270   0.43632   0.68052   0.00000  Uiso   1.00
H248   H     0.14501   0.40090   0.65310   0.00000  Uiso   1.00
H249   H     0.11194   0.13900   0.14164   0.00000  Uiso   1.00
H250   H     0.07108   0.15882   0.16177   0.00000  Uiso   1.00
H251   H     0.09972   0.18528   0.12995   0.00000  Uiso   1.00
H252   H     0.22375   0.44614   0.47390   0.00000  Uiso   1.00
H253   H     0.10874   0.20491   0.19769   0.00000  Uiso   1.00
H254   H     0.14879   0.18771   0.17768   0.00000  Uiso   1.00
H255   H     0.31169   0.28360   0.76128   0.00000  Uiso   1.00
H256   H     0.35295   0.27429   0.73395   0.00000  Uiso   1.00
H257   H     0.34176   0.24879   0.77680   0.00000  Uiso   1.00
H258   H     0.38799   0.29056   0.79629   0.00000  Uiso   1.00
H259   H     0.34824   0.30723   0.81677   0.00000  Uiso   1.00
H260   H     0.12871   0.40711   0.35613   0.00000  Uiso   1.00
H261   H     0.16948   0.42669   0.33556   0.00000  Uiso   1.00
H262   H     0.13693   0.45553   0.36002   0.00000  Uiso   1.00
H263   H     0.24301   0.34464   0.19777   0.00000  Uiso   1.00
H264   H     0.13162   0.46256   0.28906   0.00000  Uiso   1.00
H265   H     0.09137   0.44554   0.30907   0.00000  Uiso   1.00
H266   H     0.42742   0.04592   0.68967   0.00000  Uiso   1.00
H267   H     0.39463   0.02659   0.72303   0.00000  Uiso   1.00
H268   H     0.39269   0.01633   0.67191   0.00000  Uiso   1.00
H269   H     0.34503   0.05859   0.68368   0.00000  Uiso   1.00
H270   H     0.37800   0.08283   0.65867   0.00000  Uiso   1.00
H271   H     0.18957   0.06221   0.09510   0.00000  Uiso   1.00
H272   H     0.16655   0.02217   0.09491   0.00000  Uiso   1.00
H273   H     0.33259   0.02235   0.90663   0.00000  Uiso   1.00
H274   H     0.23559   0.37704   0.23573   0.00000  Uiso   1.00
H275   H     0.30948   0.06227   0.90601   0.00000  Uiso   1.00
H276   H     0.49770   0.16409   0.09274   0.00000  Uiso   1.00
H277   H     0.04252   0.17482   0.09146   0.00000  Uiso   1.00
H278   H     0.01704   0.32420   0.88613   0.00000  Uiso   1.00
H279   H     0.05466   0.29697   0.88017   0.00000  Uiso   1.00
H280   H     0.31031   0.44221   0.08928   0.00000  Uiso   1.00
H281   H     0.33308   0.48235   0.09054   0.00000  Uiso   1.00
H282   H     0.16609   0.48142   0.90688   0.00000  Uiso   1.00
H283   H     0.18897   0.44142   0.90894   0.00000  Uiso   1.00
H284   H     0.00392   0.33495   0.09276   0.00000  Uiso   1.00
H285   H     0.21494   0.33245   0.23872   0.00000  Uiso   1.00
H286   H     0.45905   0.32479   0.09064   0.00000  Uiso   1.00
H287   H     0.48184   0.16679   0.90515   0.00000  Uiso   1.00
H288   H     0.44117   0.18781   0.90964   0.00000  Uiso   1.00
H289   H     0.07233   0.29518   0.59327   0.00000  Uiso   1.00
H290   H     0.03798   0.32585   0.59260   0.00000  Uiso   1.00
H291   H     0.49592   0.16419   0.40450   0.00000  Uiso   1.00
H292   H     0.04077   0.17489   0.40408   0.00000  Uiso   1.00
H293   H     0.27279   0.41713   0.59330   0.00000  Uiso   1.00
H294   H     0.31183   0.44173   0.59155   0.00000  Uiso   1.00
H295   H     0.26090   0.07553   0.38659   0.00000  Uiso   1.00
H296   H     0.30056   0.03124   0.97378   0.00000  Uiso   1.00
H297   H     0.18489   0.35092   0.17203   0.00000  Uiso   1.00
H298   H     0.30079   0.05139   0.38260   0.00000  Uiso   1.00
H299   H     0.42888   0.20241   0.59410   0.00000  Uiso   1.00
H300   H     0.46386   0.17237   0.59420   0.00000  Uiso   1.00
H301   H     0.00407   0.33445   0.40647   0.00000  Uiso   1.00
H302   H     0.45908   0.32427   0.40697   0.00000  Uiso   1.00
H303   H     0.22540   0.08183   0.59369   0.00000  Uiso   1.00
H304   H     0.18641   0.05709   0.59399   0.00000  Uiso   1.00
H305   H     0.23408   0.41571   0.40576   0.00000  Uiso   1.00
H306   H     0.19261   0.43577   0.40749   0.00000  Uiso   1.00
H307   H     0.19536   0.39601   0.18413   0.00000  Uiso   1.00
H308   H     0.28932   0.17389   0.78509   0.00000  Uiso   1.00
H309   H     0.27135   0.13104   0.76749   0.00000  Uiso   1.00
H310   H     0.26087   0.14609   0.81589   0.00000  Uiso   1.00
H311   H     0.30828   0.09757   0.81707   0.00000  Uiso   1.00
H312   H     0.32414   0.13854   0.83620   0.00000  Uiso   1.00
H313   H     0.01212   0.10700   0.32088   0.00000  Uiso   1.00
H314   H     0.01718   0.13469   0.27876   0.00000  Uiso   1.00
H315   H     0.03380   0.08839   0.27821   0.00000  Uiso   1.00
H316   H     0.01572   0.19236   0.02574   0.00000  Uiso   1.00
H317   H     0.07368   0.11001   0.33727   0.00000  Uiso   1.00
H318   H     0.06462   0.15472   0.32313   0.00000  Uiso   1.00
H319   H     0.47620   0.39526   0.77016   0.00000  Uiso   1.00
H320   H     0.49531   0.42128   0.73083   0.00000  Uiso   1.00
H321   H     0.45450   0.43683   0.75470   0.00000  Uiso   1.00
H322   H     0.46215   0.36497   0.70822   0.00000  Uiso   1.00
H323   H     0.44507   0.40470   0.68793   0.00000  Uiso   1.00
H324   H     0.27904   0.09324   0.19338   0.00000  Uiso   1.00
H325   H     0.28991   0.14130   0.19538   0.00000  Uiso   1.00
H326   H     0.28378   0.11843   0.14948   0.00000  Uiso   1.00
H327   H     0.03170   0.29942   0.97437   0.00000  Uiso   1.00
H328   H     0.34653   0.12055   0.15163   0.00000  Uiso   1.00
H329   H     0.33961   0.07757   0.17094   0.00000  Uiso   1.00
H330   H     0.20327   0.34317   0.81052   0.00000  Uiso   1.00
H331   H     0.22152   0.38592   0.79278   0.00000  Uiso   1.00
H332   H     0.22116   0.37681   0.84372   0.00000  Uiso   1.00
H333   H     0.17078   0.41965   0.82647   0.00000  Uiso   1.00
H334   H     0.15598   0.37999   0.84735   0.00000  Uiso   1.00
H335   H     0.40764   0.29935   0.17594   0.00000  Uiso   1.00
H336   H     0.36651   0.32259   0.16128   0.00000  Uiso   1.00
H337   H     0.40473   0.31900   0.12865   0.00000  Uiso   1.00
H338   H     0.30105   0.47629   0.02383   0.00000  Uiso   1.00
H339   H     0.40432   0.37950   0.15264   0.00000  Uiso   1.00
H340   H     0.44205   0.35914   0.17449   0.00000  Uiso   1.00
H341   H     0.16149   0.20574   0.80821   0.00000  Uiso   1.00
H342   H     0.11963   0.22378   0.78861   0.00000  Uiso   1.00
H343   H     0.12781   0.22615   0.83979   0.00000  Uiso   1.00
H344   H     0.08424   0.17570   0.82557   0.00000  Uiso   1.00
H345   H     0.12414   0.16019   0.84625   0.00000  Uiso   1.00
H346   H     0.12894   0.10018   0.85907   0.00000  Uiso   1.00
H347   H     0.15267   0.06224   0.83771   0.00000  Uiso   1.00
H348   H     0.17449   0.08918   0.87453   0.00000  Uiso   1.00
H349   H     0.19700   0.47603   0.97491   0.00000  Uiso   1.00
H350   H     0.19947   0.10434   0.80962   0.00000  Uiso   1.00
H351   H     0.17961   0.14230   0.83146   0.00000  Uiso   1.00
H352   H     0.37853   0.43190   0.13377   0.00000  Uiso   1.00
H353   H     0.33750   0.42599   0.16204   0.00000  Uiso   1.00
H354   H     0.35844   0.47047   0.15755   0.00000  Uiso   1.00
H355   H     0.38703   0.45901   0.21534   0.00000  Uiso   1.00
H356   H     0.41637   0.43239   0.18747   0.00000  Uiso   1.00
H357   H     0.09386   0.39053   0.84668   0.00000  Uiso   1.00
H358   H     0.05584   0.36029   0.84035   0.00000  Uiso   1.00
H359   H     0.08824   0.35296   0.87902   0.00000  Uiso   1.00
H360   H     0.48674   0.30607   0.02547   0.00000  Uiso   1.00
H361   H     0.09259   0.31067   0.81761   0.00000  Uiso   1.00
H362   H     0.13282   0.32726   0.83653   0.00000  Uiso   1.00
H363   H     0.32840   0.18271   0.16458   0.00000  Uiso   1.00
H364   H     0.34496   0.21053   0.20419   0.00000  Uiso   1.00
H365   H     0.35900   0.21969   0.15517   0.00000  Uiso   1.00
H366   H     0.40894   0.19092   0.18307   0.00000  Uiso   1.00
H367   H     0.39098   0.15723   0.15358   0.00000  Uiso   1.00
H368   H     0.38876   0.41163   0.65215   0.00000  Uiso   1.00
H369   H     0.34339   0.42694   0.66484   0.00000  Uiso   1.00
H370   H     0.37657   0.45889   0.64662   0.00000  Uiso   1.00
H371   H     0.47224   0.19811   0.97393   0.00000  Uiso   1.00
H372   H     0.36922   0.46559   0.71785   0.00000  Uiso   1.00
H373   H     0.41362   0.45297   0.70582   0.00000  Uiso   1.00
H374   H     0.07252   0.04859   0.31141   0.00000  Uiso   1.00
H375   H     0.10477   0.02654   0.27922   0.00000  Uiso   1.00
H376   H     0.10593   0.01804   0.33055   0.00000  Uiso   1.00
H377   H     0.15546   0.05824   0.31595   0.00000  Uiso   1.00
H378   H     0.12451   0.08360   0.34246   0.00000  Uiso   1.00
H379   H     0.38218   0.14626   0.85747   0.00000  Uiso   1.00
H380   H     0.42300   0.16752   0.83914   0.00000  Uiso   1.00
H381   H     0.39080   0.19383   0.86749   0.00000  Uiso   1.00
H382   H     0.03940   0.29269   0.52537   0.00000  Uiso   1.00
H383   H     0.38697   0.20856   0.79786   0.00000  Uiso   1.00
H384   H     0.34558   0.19199   0.81603   0.00000  Uiso   1.00
H385   H     0.17923   0.29091   0.20379   0.00000  Uiso   1.00
H386   H     0.14144   0.27210   0.23108   0.00000  Uiso   1.00
H387   H     0.14725   0.26112   0.18053   0.00000  Uiso   1.00
H388   H     0.09834   0.30487   0.18643   0.00000  Uiso   1.00
H389   H     0.13392   0.32596   0.16253   0.00000  Uiso   1.00
H390   H     0.48825   0.09472   0.69130   0.00000  Uiso   1.00
H391   H     0.48354   0.12584   0.73137   0.00000  Uiso   1.00
H392   H     0.46076   0.08230   0.73240   0.00000  Uiso   1.00
N393   N     0.19088   0.03480   0.10328   0.00000  Uiso   1.00
N394   N     0.01488   0.18400   0.39603   0.00000  Uiso   1.00
N395   N     0.28475   0.44197   0.60122   0.00000  Uiso   1.00
N396   N     0.28060   0.06079   0.40164   0.00000  Uiso   1.00
N397   N     0.45595   0.19867   0.60259   0.00000  Uiso   1.00
N398   N     0.48476   0.31499   0.39802   0.00000  Uiso   1.00
N399   N     0.21378   0.05709   0.60238   0.00000  Uiso   1.00
N400   N     0.21955   0.43909   0.39802   0.00000  Uiso   1.00
N401   N     0.30839   0.03479   0.89777   0.00000  Uiso   1.00
N402   N     0.01691   0.18373   0.10100   0.00000  Uiso   1.00
N403   N     0.03617   0.30793   0.90019   0.00000  Uiso   1.00
N404   N     0.30905   0.46920   0.09916   0.00000  Uiso   1.00
N405   N     0.19040   0.46833   0.89910   0.00000  Uiso   1.00
N406   N     0.48426   0.31563   0.10068   0.00000  Uiso   1.00
N407   N     0.46757   0.19061   0.89847   0.00000  Uiso   1.00
N408   N     0.04525   0.29967   0.60165   0.00000  Uiso   1.00
O409   O     0.25000   0.00000   0.25000   0.00000  Uiso   1.00
O410   O     0.25000   0.46964   0.66317   0.00000  Uiso   1.00
O411   O     0.46964   0.25000   0.33683   0.00000  Uiso   1.00
O412   O     0.03036   0.25000   0.66317   0.00000  Uiso   1.00
O413   O     0.00000   0.21964   0.83683   0.00000  Uiso   1.00
O414   O     0.00000   0.28036   0.16317   0.00000  Uiso   1.00
O415   O     0.28036   0.00000   0.83683   0.00000  Uiso   1.00
O416   O     0.21964  -0.00000   0.16317   0.00000  Uiso   1.00
O417   O     0.00000   0.28036   0.83683   0.00000  Uiso   1.00
O418   O     0.00000   0.21964   0.16317   0.00000  Uiso   1.00
O419   O     0.21964  -0.00000   0.83683   0.00000  Uiso   1.00
O420   O     0.25000   0.00000   0.75000   0.00000  Uiso   1.00
O421   O     0.28036   0.00000   0.16317   0.00000  Uiso   1.00
O422   O     0.20726   0.07307   0.27282   0.00000  Uiso   1.00
O423   O     0.29275   0.42693   0.72718   0.00000  Uiso   1.00
O424   O     0.42693   0.20726   0.27282   0.00000  Uiso   1.00
O425   O     0.07307   0.29274   0.72718   0.00000  Uiso   1.00
O426   O     0.29275   0.42693   0.27282   0.00000  Uiso   1.00
O427   O     0.20726   0.07307   0.72718   0.00000  Uiso   1.00
O428   O     0.07307   0.29274   0.27282   0.00000  Uiso   1.00
O429   O     0.42693   0.20726   0.72718   0.00000  Uiso   1.00
O430   O     0.20726   0.42693   0.72718   0.00000  Uiso   1.00
O431   O     0.00000   0.25000   0.25000   0.00000  Uiso   1.00
O432   O     0.29275   0.07307   0.27282   0.00000  Uiso   1.00
O433   O     0.42693   0.29275   0.72718   0.00000  Uiso   1.00
O434   O     0.07307   0.20725   0.27282   0.00000  Uiso   1.00
O435   O     0.29275   0.07307   0.72718   0.00000  Uiso   1.00
O436   O     0.20726   0.42693   0.27282   0.00000  Uiso   1.00
O437   O     0.07307   0.20725   0.72718   0.00000  Uiso   1.00
O438   O     0.42693   0.29275   0.27282   0.00000  Uiso   1.00
O439   O     0.45726   0.32307   0.77282   0.00000  Uiso   1.00
O440   O     0.04275   0.17693   0.22718   0.00000  Uiso   1.00
O441   O     0.17693   0.45725   0.77282   0.00000  Uiso   1.00
O442   O     0.00000   0.25000   0.75000   0.00000  Uiso   1.00
O443   O     0.32307   0.04275   0.22718   0.00000  Uiso   1.00
O444   O     0.04275   0.17693   0.77282   0.00000  Uiso   1.00
O445   O     0.45726   0.32307   0.22718   0.00000  Uiso   1.00
O446   O     0.32307   0.04275   0.77282   0.00000  Uiso   1.00
O447   O     0.17693   0.45725   0.22718   0.00000  Uiso   1.00
O448   O     0.45726   0.17693   0.22718   0.00000  Uiso   1.00
O449   O     0.04275   0.32307   0.77282   0.00000  Uiso   1.00
O450   O     0.17693   0.04275   0.22718   0.00000  Uiso   1.00
O451   O     0.32307   0.45726   0.77282   0.00000  Uiso   1.00
O452   O     0.04275   0.32307   0.22718   0.00000  Uiso   1.00
O453   O     0.25000   0.46964   0.33683   0.00000  Uiso   1.00
O454   O     0.45726   0.17693   0.77282   0.00000  Uiso   1.00
O455   O     0.32307   0.45726   0.22718   0.00000  Uiso   1.00
O456   O     0.17693   0.04275   0.77282   0.00000  Uiso   1.00
O457   O     0.25000   0.03036   0.66317   0.00000  Uiso   1.00
O458   O     0.03036   0.25000   0.33683   0.00000  Uiso   1.00
O459   O     0.46964   0.25000   0.66317   0.00000  Uiso   1.00
O460   O     0.25000   0.03036   0.33683   0.00000  Uiso   1.00
Zn461  Zn    0.20660  -0.00000   0.21760   0.00000  Uiso   1.00
Zn462  Zn    0.04340   0.25000   0.28240   0.00000  Uiso   1.00
Zn463  Zn    0.25000   0.45660   0.71760   0.00000  Uiso   1.00
Zn464  Zn    0.25000   0.04340   0.28240   0.00000  Uiso   1.00
Zn465  Zn    0.04340   0.25000   0.71760   0.00000  Uiso   1.00
Zn466  Zn    0.45660   0.25000   0.28240   0.00000  Uiso   1.00
Zn467  Zn    0.25000   0.04340   0.71760   0.00000  Uiso   1.00
Zn468  Zn    0.25000   0.45660   0.28240   0.00000  Uiso   1.00
Zn469  Zn    0.29340   0.00000   0.78240   0.00000  Uiso   1.00
Zn470  Zn    0.00000   0.20660   0.21760   0.00000  Uiso   1.00
Zn471  Zn    0.00000   0.29340   0.78240   0.00000  Uiso   1.00
Zn472  Zn    0.29340   0.00000   0.21760   0.00000  Uiso   1.00
Zn473  Zn    0.20660  -0.00000   0.78240   0.00000  Uiso   1.00
Zn474  Zn    0.00000   0.29340   0.21760   0.00000  Uiso   1.00
Zn475  Zn    0.00000   0.20660   0.78240   0.00000  Uiso   1.00
Zn476  Zn    0.45660   0.25000   0.71760   0.00000  Uiso   1.00
C477   C     0.72004   0.01836   0.04203   0.00000  Uiso   1.00
C478   C     0.50694   0.21671   0.45762   0.00000  Uiso   1.00
C479   C     0.84735   0.40109   0.74957   0.00000  Uiso   1.00
C480   C     0.90187   0.15230   0.24913   0.00000  Uiso   1.00
C481   C     0.59810   0.34817   0.74971   0.00000  Uiso   1.00
C482   C     0.85066   0.40348   0.25119   0.00000  Uiso   1.00
C483   C     0.65192   0.09800   0.75047   0.00000  Uiso   1.00
C484   C     0.59940   0.15297   0.74963   0.00000  Uiso   1.00
C485   C     0.89734   0.34355   0.24514   0.00000  Uiso   1.00
C486   C     0.65164   0.40228   0.74937   0.00000  Uiso   1.00
C487   C     0.84800   0.09859   0.24979   0.00000  Uiso   1.00
C488   C     0.90186   0.34800   0.75058   0.00000  Uiso   1.00
C489   C     0.76492   0.47045   0.54125   0.00000  Uiso   1.00
C490   C     0.59724   0.15122   0.25029   0.00000  Uiso   1.00
C491   C     0.84785   0.09828   0.74948   0.00000  Uiso   1.00
C492   C     0.65230   0.40152   0.24985   0.00000  Uiso   1.00
C493   C     0.74990   0.00169   0.10209   0.00000  Uiso   1.00
C494   C     0.74951   0.00134   0.89777   0.00000  Uiso   1.00
C495   C     0.50040   0.24965   0.10209   0.00000  Uiso   1.00
C496   C     0.50048   0.24987   0.89778   0.00000  Uiso   1.00
C497   C     0.50034   0.24940   0.60227   0.00000  Uiso   1.00
C498   C     0.99972   0.24948   0.39733   0.00000  Uiso   1.00
C499   C     0.74938   0.49960   0.60235   0.00000  Uiso   1.00
C500   C     0.76275   0.02928   0.45971   0.00000  Uiso   1.00
C501   C     0.74939   0.00003   0.39807   0.00000  Uiso   1.00
C502   C     0.68900   0.36906   0.19716   0.00000  Uiso   1.00
C503   C     0.72245   0.35498   0.21884   0.00000  Uiso   1.00
C504   C     0.81602   0.12570   0.80857   0.00000  Uiso   1.00
C505   C     0.78241   0.14540   0.79319   0.00000  Uiso   1.00
C506   C     0.56746   0.12652   0.31158   0.00000  Uiso   1.00
C507   C     0.53057   0.11335   0.29622   0.00000  Uiso   1.00
C508   C     0.94687   0.39011   0.71584   0.00000  Uiso   1.00
C509   C     0.96951   0.41223   0.74465   0.00000  Uiso   1.00
C510   C     0.83541   0.10692   0.17748   0.00000  Uiso   1.00
C511   C     0.97860   0.22400   0.54152   0.00000  Uiso   1.00
C512   C     0.79461   0.11549   0.17923   0.00000  Uiso   1.00
C513   C     0.66813   0.39015   0.82022   0.00000  Uiso   1.00
C514   C     0.70582   0.37290   0.81640   0.00000  Uiso   1.00
C515   C     0.91183   0.35914   0.17456   0.00000  Uiso   1.00
C516   C     0.89679   0.32277   0.15940   0.00000  Uiso   1.00
C517   C     0.61362   0.17196   0.81919   0.00000  Uiso   1.00
C518   C     0.63176   0.20915   0.81343   0.00000  Uiso   1.00
C519   C     0.67254   0.11548   0.81850   0.00000  Uiso   1.00
C520   C     0.65604   0.09032   0.84921   0.00000  Uiso   1.00
C521   C     0.88723   0.43446   0.19636   0.00000  Uiso   1.00
C522   C     0.99281   0.28134   0.45856   0.00000  Uiso   1.00
C523   C     0.86393   0.44080   0.16037   0.00000  Uiso   1.00
C524   C     0.60761   0.33660   0.82199   0.00000  Uiso   1.00
C525   C     0.58506   0.36158   0.84855   0.00000  Uiso   1.00
C526   C     0.88517   0.17253   0.18063   0.00000  Uiso   1.00
C527   C     0.85224   0.19769   0.17603   0.00000  Uiso   1.00
C528   C     0.88532   0.44241   0.70624   0.00000  Uiso   1.00
C529   C     0.87277   0.43443   0.66497   0.00000  Uiso   1.00
C530   C     0.62800   0.07053   0.31373   0.00000  Uiso   1.00
C531   C     0.60104   0.03915   0.30824   0.00000  Uiso   1.00
C532   C     0.87380   0.18337   0.80885   0.00000  Uiso   1.00
C533   C     0.73195   0.02770   0.54179   0.00000  Uiso   1.00
C534   C     0.89362   0.17188   0.84545   0.00000  Uiso   1.00
C535   C     0.62626   0.31543   0.19142   0.00000  Uiso   1.00
C536   C     0.65010   0.28304   0.20257   0.00000  Uiso   1.00
C537   C     0.93594   0.12238   0.69370   0.00000  Uiso   1.00
C538   C     0.96902   0.10534   0.71351   0.00000  Uiso   1.00
C539   C     0.56380   0.37864   0.30536   0.00000  Uiso   1.00
C540   C     0.53058   0.39746   0.28793   0.00000  Uiso   1.00
C541   C     0.80109   0.35869   0.78152   0.00000  Uiso   1.00
C542   C     0.77557   0.34626   0.74893   0.00000  Uiso   1.00
C543   C     0.68179   0.12505   0.19041   0.00000  Uiso   1.00
C544   C     0.73495   0.46941   0.45861   0.00000  Uiso   1.00
C545   C     0.71175   0.15138   0.20323   0.00000  Uiso   1.00
C546   C     0.58496   0.35646   0.67756   0.00000  Uiso   1.00
C547   C     0.54442   0.36661   0.67946   0.00000  Uiso   1.00
C548   C     0.92430   0.13396   0.31600   0.00000  Uiso   1.00
C549   C     0.91208   0.15938   0.34880   0.00000  Uiso   1.00
C550   C     0.63195   0.07465   0.68433   0.00000  Uiso   1.00
C551   C     0.61190   0.04009   0.69678   0.00000  Uiso   1.00
C552   C     0.83706   0.38545   0.32189   0.00000  Uiso   1.00
C553   C     0.85278   0.42094   0.33851   0.00000  Uiso   1.00
C554   C     0.85635   0.30954   0.29408   0.00000  Uiso   1.00
C555   C     0.72031   0.01793   0.08242   0.00000  Uiso   1.00
C556   C     0.84457   0.28047   0.26465   0.00000  Uiso   1.00
C557   C     0.59296   0.14657   0.67590   0.00000  Uiso   1.00
C558   C     0.55458   0.13229   0.66829   0.00000  Uiso   1.00
C559   C     0.85490   0.09078   0.32309   0.00000  Uiso   1.00
C560   C     0.82785   0.11657   0.34324   0.00000  Uiso   1.00
C561   C     0.63860   0.41840   0.67847   0.00000  Uiso   1.00
C562   C     0.60680   0.44403   0.67004   0.00000  Uiso   1.00
C563   C     0.62139   0.17903   0.18764   0.00000  Uiso   1.00
C564   C     0.59973   0.16452   0.15323   0.00000  Uiso   1.00
C565   C     0.86175   0.30346   0.78830   0.00000  Uiso   1.00
C566   C     0.77863   0.01792   0.91801   0.00000  Uiso   1.00
C567   C     0.84078   0.27612   0.76337   0.00000  Uiso   1.00
C568   C     0.62005   0.43786   0.30296   0.00000  Uiso   1.00
C569   C     0.63999   0.43126   0.34094   0.00000  Uiso   1.00
C570   C     0.87283   0.06995   0.68712   0.00000  Uiso   1.00
C571   C     0.89856   0.03788   0.69356   0.00000  Uiso   1.00
C572   C     0.50851   0.21708   0.08146   0.00000  Uiso   1.00
C573   C     0.77811   0.01867   0.95835   0.00000  Uiso   1.00
C574   C     0.51757   0.27847   0.91870   0.00000  Uiso   1.00
C575   C     0.77916   0.48674   0.08048   0.00000  Uiso   1.00
C576   C     0.71983   0.48629   0.91865   0.00000  Uiso   1.00
C577   C     0.99279   0.28200   0.08131   0.00000  Uiso   1.00
C578   C     0.98472   0.22039   0.91825   0.00000  Uiso   1.00
C579   C     0.52275   0.27388   0.58159   0.00000  Uiso   1.00
C580   C     0.50719   0.21689   0.41711   0.00000  Uiso   1.00
C581   C     0.76594   0.47065   0.58157   0.00000  Uiso   1.00
C582   C     0.76363   0.02995   0.41953   0.00000  Uiso   1.00
C583   C     0.97821   0.22434   0.58203   0.00000  Uiso   1.00
C584   C     0.50890   0.21725   0.04122   0.00000  Uiso   1.00
C585   C     0.99233   0.28175   0.41809   0.00000  Uiso   1.00
C586   C     0.73206   0.02812   0.58212   0.00000  Uiso   1.00
C587   C     0.73494   0.46962   0.41825   0.00000  Uiso   1.00
C588   C     0.74915   0.00360   0.02100   0.00000  Uiso   1.00
C589   C     0.74872   0.00379   0.97878   0.00000  Uiso   1.00
C590   C     0.50127   0.24918   0.02102   0.00000  Uiso   1.00
C591   C     0.50158   0.24899   0.97880   0.00000  Uiso   1.00
C592   C     0.50037   0.24876   0.52098   0.00000  Uiso   1.00
C593   C     0.99998   0.24890   0.47843   0.00000  Uiso   1.00
C594   C     0.74824   0.49897   0.52143   0.00000  Uiso   1.00
C595   C     0.51804   0.27765   0.95878   0.00000  Uiso   1.00
C596   C     0.74853   0.49921   0.47924   0.00000  Uiso   1.00
C597   C     0.74994   0.00007   0.35536   0.00000  Uiso   1.00
C598   C     0.74992   0.49990   0.64479   0.00000  Uiso   1.00
C599   C     0.99991   0.24988   0.35508   0.00000  Uiso   1.00
C600   C     0.50010   0.24991   0.64478   0.00000  Uiso   1.00
C601   C     0.50005   0.25003   0.85525   0.00000  Uiso   1.00
C602   C     0.50005   0.24991   0.14470   0.00000  Uiso   1.00
C603   C     0.74988   0.00017   0.85525   0.00000  Uiso   1.00
C604   C     0.75004   0.00032   0.14470   0.00000  Uiso   1.00
C605   C     0.68001   0.07002   0.25014   0.00000  Uiso   1.00
C606   C     0.77865   0.48811   0.04020   0.00000  Uiso   1.00
C607   C     0.81955   0.42958   0.75028   0.00000  Uiso   1.00
C608   C     0.92977   0.18038   0.24948   0.00000  Uiso   1.00
C609   C     0.57013   0.31991   0.75009   0.00000  Uiso   1.00
C610   C     0.82111   0.43076   0.25090   0.00000  Uiso   1.00
C611   C     0.67996   0.06988   0.75007   0.00000  Uiso   1.00
C612   C     0.56990   0.31999   0.25000   0.00000  Uiso   1.00
C613   C     0.93009   0.18001   0.75002   0.00000  Uiso   1.00
C614   C     0.67977   0.43027   0.74962   0.00000  Uiso   1.00
C615   C     0.82020   0.06997   0.25021   0.00000  Uiso   1.00
C616   C     0.93009   0.32002   0.75008   0.00000  Uiso   1.00
C617   C     0.71956   0.48797   0.95898   0.00000  Uiso   1.00
C618   C     0.56952   0.17963   0.25043   0.00000  Uiso   1.00
C619   C     0.81997   0.06992   0.74983   0.00000  Uiso   1.00
C620   C     0.68030   0.42980   0.24973   0.00000  Uiso   1.00
C621   C     0.57016   0.18007   0.74974   0.00000  Uiso   1.00
C622   C     0.92852   0.31854   0.24828   0.00000  Uiso   1.00
C623   C     0.65530   0.37192   0.22348   0.00000  Uiso   1.00
C624   C     0.84701   0.12546   0.77868   0.00000  Uiso   1.00
C625   C     0.59747   0.12519   0.28049   0.00000  Uiso   1.00
C626   C     0.90907   0.38190   0.73260   0.00000  Uiso   1.00
C627   C     0.85528   0.11762   0.21481   0.00000  Uiso   1.00
C628   C     0.99322   0.28134   0.04107   0.00000  Uiso   1.00
C629   C     0.64476   0.38295   0.78405   0.00000  Uiso   1.00
C630   C     0.89598   0.36871   0.21444   0.00000  Uiso   1.00
C631   C     0.61955   0.14706   0.78399   0.00000  Uiso   1.00
C632   C     0.64717   0.12006   0.78388   0.00000  Uiso   1.00
C633   C     0.87572   0.40091   0.21953   0.00000  Uiso   1.00
C634   C     0.61698   0.35626   0.78439   0.00000  Uiso   1.00
C635   C     0.88079   0.14674   0.21533   0.00000  Uiso   1.00
C636   C     0.88111   0.40835   0.73120   0.00000  Uiso   1.00
C637   C     0.62556   0.09854   0.28106   0.00000  Uiso   1.00
C638   C     0.87416   0.15291   0.77860   0.00000  Uiso   1.00
C639   C     0.98525   0.22034   0.95852   0.00000  Uiso   1.00
C640   C     0.62682   0.34570   0.22214   0.00000  Uiso   1.00
C641   C     0.90321   0.12426   0.72130   0.00000  Uiso   1.00
C642   C     0.59566   0.37714   0.27663   0.00000  Uiso   1.00
C643   C     0.83960   0.36671   0.76642   0.00000  Uiso   1.00
C644   C     0.65109   0.12402   0.22041   0.00000  Uiso   1.00
C645   C     0.60554   0.36691   0.71467   0.00000  Uiso   1.00
C646   C     0.89661   0.13143   0.28294   0.00000  Uiso   1.00
C647   C     0.63116   0.10340   0.71667   0.00000  Uiso   1.00
C648   C     0.85146   0.37718   0.28107   0.00000  Uiso   1.00
C649   C     0.87002   0.34434   0.27430   0.00000  Uiso   1.00
C650   C     0.52234   0.27360   0.54111   0.00000  Uiso   1.00
C651   C     0.60774   0.13382   0.71487   0.00000  Uiso   1.00
C652   C     0.86712   0.10673   0.28438   0.00000  Uiso   1.00
C653   C     0.63194   0.39521   0.71478   0.00000  Uiso   1.00
C654   C     0.62337   0.15076   0.22008   0.00000  Uiso   1.00
C655   C     0.86754   0.34001   0.76770   0.00000  Uiso   1.00
C656   C     0.62263   0.40474   0.27603   0.00000  Uiso   1.00
C657   C     0.87483   0.09803   0.71994   0.00000  Uiso   1.00
C658   C     0.59803   0.34812   0.24959   0.00000  Uiso   1.00
C659   C     0.90201   0.15180   0.75009   0.00000  Uiso   1.00
C660   C     0.65175   0.09809   0.25064   0.00000  Uiso   1.00
H661   H     0.69732   0.03074   0.02705   0.00000  Uiso   1.00
H662   H     0.51270   0.19158   0.47281   0.00000  Uiso   1.00
H663   H     0.93039   0.10663   0.66711   0.00000  Uiso   1.00
H664   H     0.94321   0.14995   0.68285   0.00000  Uiso   1.00
H665   H     0.53757   0.42552   0.27842   0.00000  Uiso   1.00
H666   H     0.52021   0.38184   0.26273   0.00000  Uiso   1.00
H667   H     0.50847   0.39916   0.30994   0.00000  Uiso   1.00
H668   H     0.55587   0.35086   0.31496   0.00000  Uiso   1.00
H669   H     0.57132   0.39267   0.33258   0.00000  Uiso   1.00
H670   H     0.75490   0.32694   0.76052   0.00000  Uiso   1.00
H671   H     0.76063   0.36963   0.73653   0.00000  Uiso   1.00
H672   H     0.79082   0.33244   0.72521   0.00000  Uiso   1.00
H673   H     0.77793   0.44841   0.52535   0.00000  Uiso   1.00
H674   H     0.80073   0.33773   0.80433   0.00000  Uiso   1.00
H675   H     0.78945   0.38306   0.79626   0.00000  Uiso   1.00
H676   H     0.72794   0.13896   0.22680   0.00000  Uiso   1.00
H677   H     0.72984   0.15748   0.17827   0.00000  Uiso   1.00
H678   H     0.70027   0.17758   0.21397   0.00000  Uiso   1.00
H679   H     0.69409   0.09783   0.18516   0.00000  Uiso   1.00
H680   H     0.67160   0.13302   0.16159   0.00000  Uiso   1.00
H681   H     0.53310   0.36796   0.64981   0.00000  Uiso   1.00
H682   H     0.52841   0.34596   0.69560   0.00000  Uiso   1.00
H683   H     0.54074   0.39362   0.69349   0.00000  Uiso   1.00
H684   H     0.77388   0.05213   0.47584   0.00000  Uiso   1.00
H685   H     0.59642   0.36906   0.65129   0.00000  Uiso   1.00
H686   H     0.58800   0.32695   0.67127   0.00000  Uiso   1.00
H687   H     0.93629   0.16875   0.36529   0.00000  Uiso   1.00
H688   H     0.89780   0.18375   0.33743   0.00000  Uiso   1.00
H689   H     0.89387   0.14488   0.36929   0.00000  Uiso   1.00
H690   H     0.93101   0.10653   0.32735   0.00000  Uiso   1.00
H691   H     0.95115   0.14375   0.30528   0.00000  Uiso   1.00
H692   H     0.62755   0.02490   0.71882   0.00000  Uiso   1.00
H693   H     0.58448   0.04694   0.70859   0.00000  Uiso   1.00
H694   H     0.60822   0.02225   0.67118   0.00000  Uiso   1.00
H695   H     0.96154   0.20469   0.52609   0.00000  Uiso   1.00
H696   H     0.61861   0.08332   0.65742   0.00000  Uiso   1.00
H697   H     0.66035   0.06802   0.67560   0.00000  Uiso   1.00
H698   H     0.88307   0.42032   0.33719   0.00000  Uiso   1.00
H699   H     0.84290   0.44525   0.32279   0.00000  Uiso   1.00
H700   H     0.84424   0.42387   0.36923   0.00000  Uiso   1.00
H701   H     0.80682   0.38570   0.32284   0.00000  Uiso   1.00
H702   H     0.84562   0.36409   0.34257   0.00000  Uiso   1.00
H703   H     0.82246   0.29136   0.24613   0.00000  Uiso   1.00
H704   H     0.86747   0.27161   0.24577   0.00000  Uiso   1.00
H705   H     0.83405   0.25611   0.28014   0.00000  Uiso   1.00
H706   H     0.98723   0.30628   0.47449   0.00000  Uiso   1.00
H707   H     0.87673   0.29863   0.31456   0.00000  Uiso   1.00
H708   H     0.83147   0.31482   0.31163   0.00000  Uiso   1.00
H709   H     0.55383   0.10208   0.67058   0.00000  Uiso   1.00
H710   H     0.53508   0.14441   0.68930   0.00000  Uiso   1.00
H711   H     0.54598   0.14013   0.63874   0.00000  Uiso   1.00
H712   H     0.59335   0.17660   0.67341   0.00000  Uiso   1.00
H713   H     0.61136   0.13907   0.65166   0.00000  Uiso   1.00
H714   H     0.83537   0.14561   0.33870   0.00000  Uiso   1.00
H715   H     0.79985   0.11239   0.33207   0.00000  Uiso   1.00
H716   H     0.82774   0.11145   0.37482   0.00000  Uiso   1.00
H717   H     0.71869   0.04963   0.52632   0.00000  Uiso   1.00
H718   H     0.84254   0.06330   0.31987   0.00000  Uiso   1.00
H719   H     0.87806   0.08575   0.34265   0.00000  Uiso   1.00
H720   H     0.58247   0.42927   0.65962   0.00000  Uiso   1.00
H721   H     0.59944   0.45980   0.69644   0.00000  Uiso   1.00
H722   H     0.61500   0.46320   0.64679   0.00000  Uiso   1.00
H723   H     0.66270   0.43632   0.68052   0.00000  Uiso   1.00
H724   H     0.64501   0.40090   0.65310   0.00000  Uiso   1.00
H725   H     0.61194   0.13900   0.14164   0.00000  Uiso   1.00
H726   H     0.57108   0.15882   0.16177   0.00000  Uiso   1.00
H727   H     0.59972   0.18528   0.12995   0.00000  Uiso   1.00
H728   H     0.72375   0.44614   0.47390   0.00000  Uiso   1.00
H729   H     0.60874   0.20491   0.19769   0.00000  Uiso   1.00
H730   H     0.64879   0.18771   0.17768   0.00000  Uiso   1.00
H731   H     0.81169   0.28360   0.76128   0.00000  Uiso   1.00
H732   H     0.85295   0.27429   0.73395   0.00000  Uiso   1.00
H733   H     0.84176   0.24879   0.77680   0.00000  Uiso   1.00
H734   H     0.88799   0.29056   0.79629   0.00000  Uiso   1.00
H735   H     0.84824   0.30723   0.81677   0.00000  Uiso   1.00
H736   H     0.62871   0.40711   0.35613   0.00000  Uiso   1.00
H737   H     0.66948   0.42669   0.33556   0.00000  Uiso   1.00
H738   H     0.63693   0.45553   0.36002   0.00000  Uiso   1.00
H739   H     0.74301   0.34464   0.19777   0.00000  Uiso   1.00
H740   H     0.63162   0.46256   0.28906   0.00000  Uiso   1.00
H741   H     0.59137   0.44554   0.30907   0.00000  Uiso   1.00
H742   H     0.92742   0.04592   0.68967   0.00000  Uiso   1.00
H743   H     0.89463   0.02659   0.72303   0.00000  Uiso   1.00
H744   H     0.89269   0.01633   0.67191   0.00000  Uiso   1.00
H745   H     0.84503   0.05859   0.68368   0.00000  Uiso   1.00
H746   H     0.87800   0.08283   0.65867   0.00000  Uiso   1.00
H747   H     0.68957   0.06221   0.09510   0.00000  Uiso   1.00
H748   H     0.66655   0.02217   0.09491   0.00000  Uiso   1.00
H749   H     0.83259   0.02235   0.90663   0.00000  Uiso   1.00
H750   H     0.73559   0.37704   0.23573   0.00000  Uiso   1.00
H751   H     0.80948   0.06227   0.90601   0.00000  Uiso   1.00
H752   H     0.99770   0.16409   0.09274   0.00000  Uiso   1.00
H753   H     0.54252   0.17482   0.09146   0.00000  Uiso   1.00
H754   H     0.51704   0.32420   0.88613   0.00000  Uiso   1.00
H755   H     0.55466   0.29697   0.88017   0.00000  Uiso   1.00
H756   H     0.81031   0.44221   0.08928   0.00000  Uiso   1.00
H757   H     0.83308   0.48235   0.09054   0.00000  Uiso   1.00
H758   H     0.66609   0.48142   0.90688   0.00000  Uiso   1.00
H759   H     0.68897   0.44142   0.90894   0.00000  Uiso   1.00
H760   H     0.50392   0.33495   0.09276   0.00000  Uiso   1.00
H761   H     0.71494   0.33245   0.23872   0.00000  Uiso   1.00
H762   H     0.95905   0.32479   0.09064   0.00000  Uiso   1.00
H763   H     0.98184   0.16679   0.90515   0.00000  Uiso   1.00
H764   H     0.94117   0.18781   0.90964   0.00000  Uiso   1.00
H765   H     0.57233   0.29518   0.59327   0.00000  Uiso   1.00
H766   H     0.53798   0.32585   0.59260   0.00000  Uiso   1.00
H767   H     0.99592   0.16419   0.40450   0.00000  Uiso   1.00
H768   H     0.54077   0.17489   0.40408   0.00000  Uiso   1.00
H769   H     0.77279   0.41713   0.59330   0.00000  Uiso   1.00
H770   H     0.81183   0.44173   0.59155   0.00000  Uiso   1.00
H771   H     0.76090   0.07553   0.38659   0.00000  Uiso   1.00
H772   H     0.80056   0.03124   0.97378   0.00000  Uiso   1.00
H773   H     0.68489   0.35092   0.17203   0.00000  Uiso   1.00
H774   H     0.80079   0.05139   0.38260   0.00000  Uiso   1.00
H775   H     0.92888   0.20241   0.59410   0.00000  Uiso   1.00
H776   H     0.96386   0.17237   0.59420   0.00000  Uiso   1.00
H777   H     0.50407   0.33445   0.40647   0.00000  Uiso   1.00
H778   H     0.95908   0.32427   0.40697   0.00000  Uiso   1.00
H779   H     0.72540   0.08183   0.59369   0.00000  Uiso   1.00
H780   H     0.68641   0.05709   0.59399   0.00000  Uiso   1.00
H781   H     0.73408   0.41571   0.40576   0.00000  Uiso   1.00
H782   H     0.69261   0.43577   0.40749   0.00000  Uiso   1.00
H783   H     0.69536   0.39601   0.18413   0.00000  Uiso   1.00
H784   H     0.78932   0.17389   0.78509   0.00000  Uiso   1.00
H785   H     0.77135   0.13104   0.76749   0.00000  Uiso   1.00
H786   H     0.76087   0.14609   0.81589   0.00000  Uiso   1.00
H787   H     0.80828   0.09757   0.81707   0.00000  Uiso   1.00
H788   H     0.82414   0.13854   0.83620   0.00000  Uiso   1.00
H789   H     0.51212   0.10700   0.32088   0.00000  Uiso   1.00
H790   H     0.51718   0.13469   0.27876   0.00000  Uiso   1.00
H791   H     0.53380   0.08839   0.27821   0.00000  Uiso   1.00
H792   H     0.51572   0.19236   0.02574   0.00000  Uiso   1.00
H793   H     0.57368   0.11001   0.33727   0.00000  Uiso   1.00
H794   H     0.56462   0.15472   0.32313   0.00000  Uiso   1.00
H795   H     0.97620   0.39526   0.77016   0.00000  Uiso   1.00
H796   H     0.99531   0.42128   0.73083   0.00000  Uiso   1.00
H797   H     0.95450   0.43683   0.75470   0.00000  Uiso   1.00
H798   H     0.96215   0.36497   0.70822   0.00000  Uiso   1.00
H799   H     0.94507   0.40470   0.68793   0.00000  Uiso   1.00
H800   H     0.77904   0.09324   0.19338   0.00000  Uiso   1.00
H801   H     0.78991   0.14130   0.19538   0.00000  Uiso   1.00
H802   H     0.78378   0.11843   0.14948   0.00000  Uiso   1.00
H803   H     0.53170   0.29942   0.97437   0.00000  Uiso   1.00
H804   H     0.84653   0.12055   0.15163   0.00000  Uiso   1.00
H805   H     0.83961   0.07757   0.17094   0.00000  Uiso   1.00
H806   H     0.70327   0.34317   0.81052   0.00000  Uiso   1.00
H807   H     0.72152   0.38592   0.79278   0.00000  Uiso   1.00
H808   H     0.72116   0.37681   0.84372   0.00000  Uiso   1.00
H809   H     0.67078   0.41965   0.82647   0.00000  Uiso   1.00
H810   H     0.65598   0.37999   0.84735   0.00000  Uiso   1.00
H811   H     0.90764   0.29935   0.17594   0.00000  Uiso   1.00
H812   H     0.86651   0.32259   0.16128   0.00000  Uiso   1.00
H813   H     0.90473   0.31900   0.12865   0.00000  Uiso   1.00
H814   H     0.80105   0.47629   0.02383   0.00000  Uiso   1.00
H815   H     0.90432   0.37950   0.15264   0.00000  Uiso   1.00
H816   H     0.94205   0.35914   0.17449   0.00000  Uiso   1.00
H817   H     0.66149   0.20574   0.80821   0.00000  Uiso   1.00
H818   H     0.61963   0.22378   0.78861   0.00000  Uiso   1.00
H819   H     0.62781   0.22615   0.83979   0.00000  Uiso   1.00
H820   H     0.58424   0.17570   0.82557   0.00000  Uiso   1.00
H821   H     0.62414   0.16019   0.84625   0.00000  Uiso   1.00
H822   H     0.62894   0.10018   0.85907   0.00000  Uiso   1.00
H823   H     0.65267   0.06224   0.83771   0.00000  Uiso   1.00
H824   H     0.67449   0.08918   0.87453   0.00000  Uiso   1.00
H825   H     0.69700   0.47603   0.97491   0.00000  Uiso   1.00
H826   H     0.69947   0.10434   0.80962   0.00000  Uiso   1.00
H827   H     0.67961   0.14230   0.83146   0.00000  Uiso   1.00
H828   H     0.87853   0.43190   0.13377   0.00000  Uiso   1.00
H829   H     0.83750   0.42599   0.16204   0.00000  Uiso   1.00
H830   H     0.85844   0.47047   0.15755   0.00000  Uiso   1.00
H831   H     0.88703   0.45901   0.21534   0.00000  Uiso   1.00
H832   H     0.91637   0.43239   0.18747   0.00000  Uiso   1.00
H833   H     0.59386   0.39053   0.84668   0.00000  Uiso   1.00
H834   H     0.55584   0.36029   0.84035   0.00000  Uiso   1.00
H835   H     0.58824   0.35296   0.87902   0.00000  Uiso   1.00
H836   H     0.98674   0.30607   0.02547   0.00000  Uiso   1.00
H837   H     0.59259   0.31067   0.81761   0.00000  Uiso   1.00
H838   H     0.63282   0.32726   0.83653   0.00000  Uiso   1.00
H839   H     0.82840   0.18271   0.16458   0.00000  Uiso   1.00
H840   H     0.84496   0.21053   0.20419   0.00000  Uiso   1.00
H841   H     0.85900   0.21969   0.15517   0.00000  Uiso   1.00
H842   H     0.90894   0.19092   0.18307   0.00000  Uiso   1.00
H843   H     0.89098   0.15723   0.15358   0.00000  Uiso   1.00
H844   H     0.88876   0.41163   0.65215   0.00000  Uiso   1.00
H845   H     0.84339   0.42694   0.66484   0.00000  Uiso   1.00
H846   H     0.87657   0.45889   0.64662   0.00000  Uiso   1.00
H847   H     0.97224   0.19811   0.97393   0.00000  Uiso   1.00
H848   H     0.86922   0.46559   0.71785   0.00000  Uiso   1.00
H849   H     0.91362   0.45297   0.70582   0.00000  Uiso   1.00
H850   H     0.57252   0.04859   0.31141   0.00000  Uiso   1.00
H851   H     0.60477   0.02654   0.27922   0.00000  Uiso   1.00
H852   H     0.60593   0.01804   0.33055   0.00000  Uiso   1.00
H853   H     0.65546   0.05824   0.31595   0.00000  Uiso   1.00
H854   H     0.62451   0.08360   0.34246   0.00000  Uiso   1.00
H855   H     0.88218   0.14626   0.85747   0.00000  Uiso   1.00
H856   H     0.92300   0.16752   0.83914   0.00000  Uiso   1.00
H857   H     0.89080   0.19383   0.86749   0.00000  Uiso   1.00
H858   H     0.53940   0.29269   0.52537   0.00000  Uiso   1.00
H859   H     0.88697   0.20856   0.79786   0.00000  Uiso   1.00
H860   H     0.84558   0.19199   0.81603   0.00000  Uiso   1.00
H861   H     0.67923   0.29091   0.20379   0.00000  Uiso   1.00
H862   H     0.64144   0.27210   0.23108   0.00000  Uiso   1.00
H863   H     0.64725   0.26112   0.18053   0.00000  Uiso   1.00
H864   H     0.59834   0.30487   0.18643   0.00000  Uiso   1.00
H865   H     0.63392   0.32596   0.16253   0.00000  Uiso   1.00
H866   H     0.98825   0.09472   0.69130   0.00000  Uiso   1.00
H867   H     0.98354   0.12584   0.73137   0.00000  Uiso   1.00
H868   H     0.96076   0.08230   0.73240   0.00000  Uiso   1.00
N869   N     0.69088   0.03480   0.10328   0.00000  Uiso   1.00
N870   N     0.51488   0.18400   0.39603   0.00000  Uiso   1.00
N871   N     0.78475   0.44197   0.60122   0.00000  Uiso   1.00
N872   N     0.78060   0.06079   0.40164   0.00000  Uiso   1.00
N873   N     0.95595   0.19867   0.60259   0.00000  Uiso   1.00
N874   N     0.98476   0.31499   0.39802   0.00000  Uiso   1.00
N875   N     0.71378   0.05709   0.60238   0.00000  Uiso   1.00
N876   N     0.71955   0.43909   0.39802   0.00000  Uiso   1.00
N877   N     0.80839   0.03479   0.89777   0.00000  Uiso   1.00
N878   N     0.51691   0.18373   0.10100   0.00000  Uiso   1.00
N879   N     0.53617   0.30793   0.90019   0.00000  Uiso   1.00
N880   N     0.80905   0.46920   0.09916   0.00000  Uiso   1.00
N881   N     0.69040   0.46833   0.89910   0.00000  Uiso   1.00
N882   N     0.98426   0.31563   0.10068   0.00000  Uiso   1.00
N883   N     0.96757   0.19061   0.89847   0.00000  Uiso   1.00
N884   N     0.54525   0.29967   0.60165   0.00000  Uiso   1.00
O885   O     0.75000   0.00000   0.25000   0.00000  Uiso   1.00
O886   O     0.75000   0.46964   0.66317   0.00000  Uiso   1.00
O887   O     0.96964   0.25000   0.33683   0.00000  Uiso   1.00
O888   O     0.53036   0.25000   0.66317   0.00000  Uiso   1.00
O889   O     0.50000   0.21964   0.83683   0.00000  Uiso   1.00
O890   O     0.50000   0.28036   0.16317   0.00000  Uiso   1.00
O891   O     0.78036   0.00000   0.83683   0.00000  Uiso   1.00
O892   O     0.71964  -0.00000   0.16317   0.00000  Uiso   1.00
O893   O     0.50000   0.28036   0.83683   0.00000  Uiso   1.00
O894   O     0.50000   0.21964   0.16317   0.00000  Uiso   1.00
O895   O     0.71964  -0.00000   0.83683   0.00000  Uiso   1.00
O896   O     0.75000   0.00000   0.75000   0.00000  Uiso   1.00
O897   O     0.78036   0.00000   0.16317   0.00000  Uiso   1.00
O898   O     0.70726   0.07307   0.27282   0.00000  Uiso   1.00
O899   O     0.79275   0.42693   0.72718   0.00000  Uiso   1.00
O900   O     0.92693   0.20726   0.27282   0.00000  Uiso   1.00
O901   O     0.57307   0.29274   0.72718   0.00000  Uiso   1.00
O902   O     0.79275   0.42693   0.27282   0.00000  Uiso   1.00
O903   O     0.70726   0.07307   0.72718   0.00000  Uiso   1.00
O904   O     0.57307   0.29274   0.27282   0.00000  Uiso   1.00
O905   O     0.92693   0.20726   0.72718   0.00000  Uiso   1.00
O906   O     0.70726   0.42693   0.72718   0.00000  Uiso   1.00
O907   O     0.50000   0.25000   0.25000   0.00000  Uiso   1.00
O908   O     0.79275   0.07307   0.27282   0.00000  Uiso   1.00
O909   O     0.92693   0.29275   0.72718   0.00000  Uiso   1.00
O910   O     0.57307   0.20725   0.27282   0.00000  Uiso   1.00
O911   O     0.79275   0.07307   0.72718   0.00000  Uiso   1.00
O912   O     0.70726   0.42693   0.27282   0.00000  Uiso   1.00
O913   O     0.57307   0.20725   0.72718   0.00000  Uiso   1.00
O914   O     0.92693   0.29275   0.27282   0.00000  Uiso   1.00
O915   O     0.95726   0.32307   0.77282   0.00000  Uiso   1.00
O916   O     0.54275   0.17693   0.22718   0.00000  Uiso   1.00
O917   O     0.67693   0.45725   0.77282   0.00000  Uiso   1.00
O918   O     0.50000   0.25000   0.75000   0.00000  Uiso   1.00
O919   O     0.82307   0.04275   0.22718   0.00000  Uiso   1.00
O920   O     0.54275   0.17693   0.77282   0.00000  Uiso   1.00
O921   O     0.95726   0.32307   0.22718   0.00000  Uiso   1.00
O922   O     0.82307   0.04275   0.77282   0.00000  Uiso   1.00
O923   O     0.67693   0.45725   0.22718   0.00000  Uiso   1.00
O924   O     0.95726   0.17693   0.22718   0.00000  Uiso   1.00
O925   O     0.54275   0.32307   0.77282   0.00000  Uiso   1.00
O926   O     0.67693   0.04275   0.22718   0.00000  Uiso   1.00
O927   O     0.82307   0.45726   0.77282   0.00000  Uiso   1.00
O928   O     0.54275   0.32307   0.22718   0.00000  Uiso   1.00
O929   O     0.75000   0.46964   0.33683   0.00000  Uiso   1.00
O930   O     0.95726   0.17693   0.77282   0.00000  Uiso   1.00
O931   O     0.82307   0.45726   0.22718   0.00000  Uiso   1.00
O932   O     0.67693   0.04275   0.77282   0.00000  Uiso   1.00
O933   O     0.75000   0.03036   0.66317   0.00000  Uiso   1.00
O934   O     0.53036   0.25000   0.33683   0.00000  Uiso   1.00
O935   O     0.96964   0.25000   0.66317   0.00000  Uiso   1.00
O936   O     0.75000   0.03036   0.33683   0.00000  Uiso   1.00
Zn937  Zn    0.70660  -0.00000   0.21760   0.00000  Uiso   1.00
Zn938  Zn    0.54340   0.25000   0.28240   0.00000  Uiso   1.00
Zn939  Zn    0.75000   0.45660   0.71760   0.00000  Uiso   1.00
Zn940  Zn    0.75000   0.04340   0.28240   0.00000  Uiso   1.00
Zn941  Zn    0.54340   0.25000   0.71760   0.00000  Uiso   1.00
Zn942  Zn    0.95660   0.25000   0.28240   0.00000  Uiso   1.00
Zn943  Zn    0.75000   0.04340   0.71760   0.00000  Uiso   1.00
Zn944  Zn    0.75000   0.45660   0.28240   0.00000  Uiso   1.00
Zn945  Zn    0.79340   0.00000   0.78240   0.00000  Uiso   1.00
Zn946  Zn    0.50000   0.20660   0.21760   0.00000  Uiso   1.00
Zn947  Zn    0.50000   0.29340   0.78240   0.00000  Uiso   1.00
Zn948  Zn    0.79340   0.00000   0.21760   0.00000  Uiso   1.00
Zn949  Zn    0.70660  -0.00000   0.78240   0.00000  Uiso   1.00
Zn950  Zn    0.50000   0.29340   0.21760   0.00000  Uiso   1.00
Zn951  Zn    0.50000   0.20660   0.78240   0.00000  Uiso   1.00
Zn952  Zn    0.95660   0.25000   0.71760   0.00000  Uiso   1.00
C953   C     0.22004   0.51836   0.04203   0.00000  Uiso   1.00
C954   C     0.00694   0.71671   0.45762   0.00000  Uiso   1.00
C955   C     0.34735   0.90109   0.74957   0.00000  Uiso   1.00
C956   C     0.40187   0.65230   0.24913   0.00000  Uiso   1.00
C957   C     0.09810   0.84817   0.74971   0.00000  Uiso   1.00
C958   C     0.35066   0.90348   0.25119   0.00000  Uiso   1.00
C959   C     0.15192   0.59800   0.75047   0.00000  Uiso   1.00
C960   C     0.09940   0.65297   0.74963   0.00000  Uiso   1.00
C961   C     0.39734   0.84355   0.24514   0.00000  Uiso   1.00
C962   C     0.15164   0.90228   0.74937   0.00000  Uiso   1.00
C963   C     0.34800   0.59859   0.24979   0.00000  Uiso   1.00
C964   C     0.40186   0.84800   0.75058   0.00000  Uiso   1.00
C965   C     0.26492   0.97045   0.54125   0.00000  Uiso   1.00
C966   C     0.09724   0.65122   0.25029   0.00000  Uiso   1.00
C967   C     0.34785   0.59828   0.74948   0.00000  Uiso   1.00
C968   C     0.15230   0.90152   0.24985   0.00000  Uiso   1.00
C969   C     0.24990   0.50169   0.10209   0.00000  Uiso   1.00
C970   C     0.24951   0.50134   0.89777   0.00000  Uiso   1.00
C971   C     0.00040   0.74965   0.10209   0.00000  Uiso   1.00
C972   C     0.00048   0.74987   0.89778   0.00000  Uiso   1.00
C973   C     0.00034   0.74940   0.60227   0.00000  Uiso   1.00
C974   C     0.49972   0.74948   0.39733   0.00000  Uiso   1.00
C975   C     0.24938   0.99960   0.60235   0.00000  Uiso   1.00
C976   C     0.26275   0.52928   0.45971   0.00000  Uiso   1.00
C977   C     0.24939   0.50003   0.39807   0.00000  Uiso   1.00
C978   C     0.18900   0.86906   0.19716   0.00000  Uiso   1.00
C979   C     0.22245   0.85498   0.21884   0.00000  Uiso   1.00
C980   C     0.31602   0.62570   0.80857   0.00000  Uiso   1.00
C981   C     0.28241   0.64540   0.79319   0.00000  Uiso   1.00
C982   C     0.06746   0.62652   0.31158   0.00000  Uiso   1.00
C983   C     0.03057   0.61335   0.29622   0.00000  Uiso   1.00
C984   C     0.44687   0.89011   0.71584   0.00000  Uiso   1.00
C985   C     0.46951   0.91223   0.74465   0.00000  Uiso   1.00
C986   C     0.33541   0.60692   0.17748   0.00000  Uiso   1.00
C987   C     0.47860   0.72400   0.54152   0.00000  Uiso   1.00
C988   C     0.29461   0.61549   0.17923   0.00000  Uiso   1.00
C989   C     0.16813   0.89015   0.82022   0.00000  Uiso   1.00
C990   C     0.20582   0.87290   0.81640   0.00000  Uiso   1.00
C991   C     0.41183   0.85914   0.17456   0.00000  Uiso   1.00
C992   C     0.39679   0.82277   0.15940   0.00000  Uiso   1.00
C993   C     0.11362   0.67196   0.81919   0.00000  Uiso   1.00
C994   C     0.13176   0.70915   0.81343   0.00000  Uiso   1.00
C995   C     0.17254   0.61548   0.81850   0.00000  Uiso   1.00
C996   C     0.15604   0.59032   0.84921   0.00000  Uiso   1.00
C997   C     0.38723   0.93446   0.19636   0.00000  Uiso   1.00
C998   C     0.49281   0.78134   0.45856   0.00000  Uiso   1.00
C999   C     0.36393   0.94080   0.16037   0.00000  Uiso   1.00
C1000  C     0.10761   0.83660   0.82199   0.00000  Uiso   1.00
C1001  C     0.08506   0.86158   0.84855   0.00000  Uiso   1.00
C1002  C     0.38517   0.67253   0.18063   0.00000  Uiso   1.00
C1003  C     0.35224   0.69769   0.17603   0.00000  Uiso   1.00
C1004  C     0.38532   0.94241   0.70624   0.00000  Uiso   1.00
C1005  C     0.37277   0.93443   0.66497   0.00000  Uiso   1.00
C1006  C     0.12800   0.57053   0.31373   0.00000  Uiso   1.00
C1007  C     0.10104   0.53915   0.30824   0.00000  Uiso   1.00
C1008  C     0.37380   0.68337   0.80885   0.00000  Uiso   1.00
C1009  C     0.23195   0.52770   0.54179   0.00000  Uiso   1.00
C1010  C     0.39362   0.67188   0.84545   0.00000  Uiso   1.00
C1011  C     0.12626   0.81543   0.19142   0.00000  Uiso   1.00
C1012  C     0.15010   0.78304   0.20257   0.00000  Uiso   1.00
C1013  C     0.43594   0.62238   0.69370   0.00000  Uiso   1.00
C1014  C     0.46902   0.60534   0.71351   0.00000  Uiso   1.00
C1015  C     0.06380   0.87864   0.30536   0.00000  Uiso   1.00
C1016  C     0.03058   0.89746   0.28793   0.00000  Uiso   1.00
C1017  C     0.30109   0.85869   0.78152   0.00000  Uiso   1.00
C1018  C     0.27557   0.84626   0.74893   0.00000  Uiso   1.00
C1019  C     0.18179   0.62505   0.19041   0.00000  Uiso   1.00
C1020  C     0.23495   0.96941   0.45861   0.00000  Uiso   1.00
C1021  C     0.21175   0.65138   0.20323   0.00000  Uiso   1.00
C1022  C     0.08496   0.85646   0.67756   0.00000  Uiso   1.00
C1023  C     0.04442   0.86661   0.67946   0.00000  Uiso   1.00
C1024  C     0.42430   0.63396   0.31600   0.00000  Uiso   1.00
C1025  C     0.41208   0.65938   0.34880   0.00000  Uiso   1.00
C1026  C     0.13195   0.57465   0.68433   0.00000  Uiso   1.00
C1027  C     0.11190   0.54009   0.69678   0.00000  Uiso   1.00
C1028  C     0.33706   0.88545   0.32189   0.00000  Uiso   1.00
C1029  C     0.35278   0.92094   0.33851   0.00000  Uiso   1.00
C1030  C     0.35635   0.80954   0.29408   0.00000  Uiso   1.00
C1031  C     0.22031   0.51793   0.08242   0.00000  Uiso   1.00
C1032  C     0.34457   0.78047   0.26465   0.00000  Uiso   1.00
C1033  C     0.09296   0.64657   0.67590   0.00000  Uiso   1.00
C1034  C     0.05458   0.63229   0.66829   0.00000  Uiso   1.00
C1035  C     0.35490   0.59078   0.32309   0.00000  Uiso   1.00
C1036  C     0.32785   0.61657   0.34324   0.00000  Uiso   1.00
C1037  C     0.13860   0.91840   0.67847   0.00000  Uiso   1.00
C1038  C     0.10680   0.94403   0.67004   0.00000  Uiso   1.00
C1039  C     0.12139   0.67903   0.18764   0.00000  Uiso   1.00
C1040  C     0.09973   0.66452   0.15323   0.00000  Uiso   1.00
C1041  C     0.36175   0.80346   0.78830   0.00000  Uiso   1.00
C1042  C     0.27863   0.51792   0.91801   0.00000  Uiso   1.00
C1043  C     0.34078   0.77612   0.76337   0.00000  Uiso   1.00
C1044  C     0.12005   0.93786   0.30296   0.00000  Uiso   1.00
C1045  C     0.13999   0.93126   0.34094   0.00000  Uiso   1.00
C1046  C     0.37283   0.56995   0.68712   0.00000  Uiso   1.00
C1047  C     0.39856   0.53788   0.69356   0.00000  Uiso   1.00
C1048  C     0.00851   0.71708   0.08146   0.00000  Uiso   1.00
C1049  C     0.27811   0.51867   0.95835   0.00000  Uiso   1.00
C1050  C     0.01757   0.77847   0.91870   0.00000  Uiso   1.00
C1051  C     0.27916   0.98674   0.08048   0.00000  Uiso   1.00
C1052  C     0.21983   0.98629   0.91865   0.00000  Uiso   1.00
C1053  C     0.49279   0.78200   0.08131   0.00000  Uiso   1.00
C1054  C     0.48472   0.72039   0.91825   0.00000  Uiso   1.00
C1055  C     0.02275   0.77388   0.58159   0.00000  Uiso   1.00
C1056  C     0.00719   0.71689   0.41711   0.00000  Uiso   1.00
C1057  C     0.26594   0.97065   0.58157   0.00000  Uiso   1.00
C1058  C     0.26363   0.52995   0.41953   0.00000  Uiso   1.00
C1059  C     0.47821   0.72434   0.58203   0.00000  Uiso   1.00
C1060  C     0.00890   0.71725   0.04122   0.00000  Uiso   1.00
C1061  C     0.49233   0.78175   0.41809   0.00000  Uiso   1.00
C1062  C     0.23206   0.52812   0.58212   0.00000  Uiso   1.00
C1063  C     0.23494   0.96962   0.41825   0.00000  Uiso   1.00
C1064  C     0.24915   0.50360   0.02100   0.00000  Uiso   1.00
C1065  C     0.24872   0.50379   0.97878   0.00000  Uiso   1.00
C1066  C     0.00127   0.74918   0.02102   0.00000  Uiso   1.00
C1067  C     0.00158   0.74899   0.97880   0.00000  Uiso   1.00
C1068  C     0.00037   0.74876   0.52098   0.00000  Uiso   1.00
C1069  C     0.49998   0.74890   0.47843   0.00000  Uiso   1.00
C1070  C     0.24824   0.99897   0.52143   0.00000  Uiso   1.00
C1071  C     0.01804   0.77765   0.95878   0.00000  Uiso   1.00
C1072  C     0.24853   0.99921   0.47924   0.00000  Uiso   1.00
C1073  C     0.24994   0.50007   0.35536   0.00000  Uiso   1.00
C1074  C     0.24992   0.99990   0.64479   0.00000  Uiso   1.00
C1075  C     0.49991   0.74988   0.35508   0.00000  Uiso   1.00
C1076  C     0.00010   0.74991   0.64478   0.00000  Uiso   1.00
C1077  C     0.00005   0.75003   0.85525   0.00000  Uiso   1.00
C1078  C     0.00005   0.74991   0.14470   0.00000  Uiso   1.00
C1079  C     0.24988   0.50017   0.85525   0.00000  Uiso   1.00
C1080  C     0.25004   0.50032   0.14470   0.00000  Uiso   1.00
C1081  C     0.18001   0.57002   0.25014   0.00000  Uiso   1.00
C1082  C     0.27865   0.98811   0.04020   0.00000  Uiso   1.00
C1083  C     0.31955   0.92958   0.75028   0.00000  Uiso   1.00
C1084  C     0.42977   0.68038   0.24948   0.00000  Uiso   1.00
C1085  C     0.07013   0.81991   0.75009   0.00000  Uiso   1.00
C1086  C     0.32111   0.93076   0.25090   0.00000  Uiso   1.00
C1087  C     0.17996   0.56988   0.75007   0.00000  Uiso   1.00
C1088  C     0.06990   0.81999   0.25000   0.00000  Uiso   1.00
C1089  C     0.43009   0.68001   0.75002   0.00000  Uiso   1.00
C1090  C     0.17977   0.93027   0.74962   0.00000  Uiso   1.00
C1091  C     0.32020   0.56997   0.25021   0.00000  Uiso   1.00
C1092  C     0.43009   0.82002   0.75008   0.00000  Uiso   1.00
C1093  C     0.21956   0.98797   0.95898   0.00000  Uiso   1.00
C1094  C     0.06952   0.67963   0.25043   0.00000  Uiso   1.00
C1095  C     0.31997   0.56992   0.74983   0.00000  Uiso   1.00
C1096  C     0.18030   0.92980   0.24973   0.00000  Uiso   1.00
C1097  C     0.07016   0.68007   0.74974   0.00000  Uiso   1.00
C1098  C     0.42852   0.81854   0.24828   0.00000  Uiso   1.00
C1099  C     0.15530   0.87192   0.22348   0.00000  Uiso   1.00
C1100  C     0.34701   0.62546   0.77868   0.00000  Uiso   1.00
C1101  C     0.09747   0.62519   0.28049   0.00000  Uiso   1.00
C1102  C     0.40907   0.88190   0.73260   0.00000  Uiso   1.00
C1103  C     0.35528   0.61762   0.21481   0.00000  Uiso   1.00
C1104  C     0.49322   0.78134   0.04107   0.00000  Uiso   1.00
C1105  C     0.14476   0.88295   0.78405   0.00000  Uiso   1.00
C1106  C     0.39598   0.86871   0.21444   0.00000  Uiso   1.00
C1107  C     0.11955   0.64706   0.78399   0.00000  Uiso   1.00
C1108  C     0.14717   0.62006   0.78388   0.00000  Uiso   1.00
C1109  C     0.37572   0.90091   0.21953   0.00000  Uiso   1.00
C1110  C     0.11698   0.85626   0.78439   0.00000  Uiso   1.00
C1111  C     0.38079   0.64674   0.21533   0.00000  Uiso   1.00
C1112  C     0.38111   0.90835   0.73120   0.00000  Uiso   1.00
C1113  C     0.12556   0.59854   0.28106   0.00000  Uiso   1.00
C1114  C     0.37416   0.65291   0.77860   0.00000  Uiso   1.00
C1115  C     0.48525   0.72034   0.95852   0.00000  Uiso   1.00
C1116  C     0.12682   0.84570   0.22214   0.00000  Uiso   1.00
C1117  C     0.40321   0.62426   0.72130   0.00000  Uiso   1.00
C1118  C     0.09566   0.87714   0.27663   0.00000  Uiso   1.00
C1119  C     0.33960   0.86671   0.76642   0.00000  Uiso   1.00
C1120  C     0.15109   0.62402   0.22041   0.00000  Uiso   1.00
C1121  C     0.10554   0.86691   0.71467   0.00000  Uiso   1.00
C1122  C     0.39661   0.63143   0.28294   0.00000  Uiso   1.00
C1123  C     0.13116   0.60340   0.71667   0.00000  Uiso   1.00
C1124  C     0.35146   0.87718   0.28107   0.00000  Uiso   1.00
C1125  C     0.37002   0.84434   0.27430   0.00000  Uiso   1.00
C1126  C     0.02234   0.77360   0.54111   0.00000  Uiso   1.00
C1127  C     0.10774   0.63382   0.71487   0.00000  Uiso   1.00
C1128  C     0.36712   0.60673   0.28438   0.00000  Uiso   1.00
C1129  C     0.13194   0.89521   0.71478   0.00000  Uiso   1.00
C1130  C     0.12337   0.65076   0.22008   0.00000  Uiso   1.00
C1131  C     0.36754   0.84001   0.76770   0.00000  Uiso   1.00
C1132  C     0.12263   0.90474   0.27603   0.00000  Uiso   1.00
C1133  C     0.37483   0.59803   0.71994   0.00000  Uiso   1.00
C1134  C     0.09803   0.84812   0.24959   0.00000  Uiso   1.00
C1135  C     0.40201   0.65180   0.75009   0.00000  Uiso   1.00
C1136  C     0.15175   0.59809   0.25064   0.00000  Uiso   1.00
H1137  H     0.19732   0.53074   0.02705   0.00000  Uiso   1.00
H1138  H     0.01270   0.69158   0.47281   0.00000  Uiso   1.00
H1139  H     0.43039   0.60663   0.66711   0.00000  Uiso   1.00
H1140  H     0.44321   0.64995   0.68285   0.00000  Uiso   1.00
H1141  H     0.03757   0.92552   0.27842   0.00000  Uiso   1.00
H1142  H     0.02021   0.88184   0.26273   0.00000  Uiso   1.00
H1143  H     0.00847   0.89916   0.30994   0.00000  Uiso   1.00
H1144  H     0.05587   0.85086   0.31496   0.00000  Uiso   1.00
H1145  H     0.07132   0.89267   0.33258   0.00000  Uiso   1.00
H1146  H     0.25490   0.82694   0.76052   0.00000  Uiso   1.00
H1147  H     0.26063   0.86963   0.73653   0.00000  Uiso   1.00
H1148  H     0.29082   0.83244   0.72521   0.00000  Uiso   1.00
H1149  H     0.27793   0.94841   0.52535   0.00000  Uiso   1.00
H1150  H     0.30073   0.83773   0.80433   0.00000  Uiso   1.00
H1151  H     0.28945   0.88306   0.79626   0.00000  Uiso   1.00
H1152  H     0.22794   0.63896   0.22680   0.00000  Uiso   1.00
H1153  H     0.22984   0.65748   0.17827   0.00000  Uiso   1.00
H1154  H     0.20027   0.67758   0.21397   0.00000  Uiso   1.00
H1155  H     0.19409   0.59783   0.18516   0.00000  Uiso   1.00
H1156  H     0.17160   0.63302   0.16159   0.00000  Uiso   1.00
H1157  H     0.03310   0.86796   0.64981   0.00000  Uiso   1.00
H1158  H     0.02841   0.84596   0.69560   0.00000  Uiso   1.00
H1159  H     0.04074   0.89362   0.69349   0.00000  Uiso   1.00
H1160  H     0.27388   0.55213   0.47584   0.00000  Uiso   1.00
H1161  H     0.09642   0.86906   0.65129   0.00000  Uiso   1.00
H1162  H     0.08800   0.82695   0.67127   0.00000  Uiso   1.00
H1163  H     0.43629   0.66875   0.36529   0.00000  Uiso   1.00
H1164  H     0.39780   0.68375   0.33743   0.00000  Uiso   1.00
H1165  H     0.39387   0.64488   0.36929   0.00000  Uiso   1.00
H1166  H     0.43101   0.60653   0.32735   0.00000  Uiso   1.00
H1167  H     0.45115   0.64375   0.30528   0.00000  Uiso   1.00
H1168  H     0.12755   0.52490   0.71882   0.00000  Uiso   1.00
H1169  H     0.08448   0.54694   0.70859   0.00000  Uiso   1.00
H1170  H     0.10822   0.52225   0.67118   0.00000  Uiso   1.00
H1171  H     0.46154   0.70469   0.52609   0.00000  Uiso   1.00
H1172  H     0.11861   0.58332   0.65742   0.00000  Uiso   1.00
H1173  H     0.16035   0.56802   0.67560   0.00000  Uiso   1.00
H1174  H     0.38307   0.92032   0.33719   0.00000  Uiso   1.00
H1175  H     0.34290   0.94525   0.32279   0.00000  Uiso   1.00
H1176  H     0.34424   0.92387   0.36923   0.00000  Uiso   1.00
H1177  H     0.30682   0.88570   0.32284   0.00000  Uiso   1.00
H1178  H     0.34562   0.86409   0.34257   0.00000  Uiso   1.00
H1179  H     0.32246   0.79136   0.24613   0.00000  Uiso   1.00
H1180  H     0.36747   0.77161   0.24577   0.00000  Uiso   1.00
H1181  H     0.33405   0.75611   0.28014   0.00000  Uiso   1.00
H1182  H     0.48723   0.80628   0.47449   0.00000  Uiso   1.00
H1183  H     0.37673   0.79863   0.31456   0.00000  Uiso   1.00
H1184  H     0.33147   0.81482   0.31163   0.00000  Uiso   1.00
H1185  H     0.05383   0.60208   0.67058   0.00000  Uiso   1.00
H1186  H     0.03508   0.64441   0.68930   0.00000  Uiso   1.00
H1187  H     0.04598   0.64013   0.63874   0.00000  Uiso   1.00
H1188  H     0.09335   0.67660   0.67341   0.00000  Uiso   1.00
H1189  H     0.11136   0.63907   0.65166   0.00000  Uiso   1.00
H1190  H     0.33537   0.64561   0.33870   0.00000  Uiso   1.00
H1191  H     0.29985   0.61239   0.33207   0.00000  Uiso   1.00
H1192  H     0.32774   0.61145   0.37482   0.00000  Uiso   1.00
H1193  H     0.21869   0.54963   0.52632   0.00000  Uiso   1.00
H1194  H     0.34254   0.56330   0.31987   0.00000  Uiso   1.00
H1195  H     0.37806   0.58575   0.34265   0.00000  Uiso   1.00
H1196  H     0.08247   0.92927   0.65962   0.00000  Uiso   1.00
H1197  H     0.09944   0.95980   0.69644   0.00000  Uiso   1.00
H1198  H     0.11500   0.96320   0.64679   0.00000  Uiso   1.00
H1199  H     0.16270   0.93632   0.68052   0.00000  Uiso   1.00
H1200  H     0.14501   0.90090   0.65310   0.00000  Uiso   1.00
H1201  H     0.11194   0.63900   0.14164   0.00000  Uiso   1.00
H1202  H     0.07108   0.65882   0.16177   0.00000  Uiso   1.00
H1203  H     0.09972   0.68528   0.12995   0.00000  Uiso   1.00
H1204  H     0.22375   0.94614   0.47390   0.00000  Uiso   1.00
H1205  H     0.10874   0.70491   0.19769   0.00000  Uiso   1.00
H1206  H     0.14879   0.68771   0.17768   0.00000  Uiso   1.00
H1207  H     0.31169   0.78360   0.76128   0.00000  Uiso   1.00
H1208  H     0.35295   0.77429   0.73395   0.00000  Uiso   1.00
H1209  H     0.34176   0.74879   0.77680   0.00000  Uiso   1.00
H1210  H     0.38799   0.79056   0.79629   0.00000  Uiso   1.00
H1211  H     0.34824   0.80723   0.81677   0.00000  Uiso   1.00
H1212  H     0.12871   0.90711   0.35613   0.00000  Uiso   1.00
H1213  H     0.16948   0.92669   0.33556   0.00000  Uiso   1.00
H1214  H     0.13693   0.95553   0.36002   0.00000  Uiso   1.00
H1215  H     0.24301   0.84464   0.19777   0.00000  Uiso   1.00
H1216  H     0.13162   0.96256   0.28906   0.00000  Uiso   1.00
H1217  H     0.09137   0.94554   0.30907   0.00000  Uiso   1.00
H1218  H     0.42742   0.54592   0.68967   0.00000  Uiso   1.00
H1219  H     0.39463   0.52659   0.72303   0.00000  Uiso   1.00
H1220  H     0.39269   0.51633   0.67191   0.00000  Uiso   1.00
H1221  H     0.34503   0.55859   0.68368   0.00000  Uiso   1.00
H1222  H     0.37800   0.58283   0.65867   0.00000  Uiso   1.00
H1223  H     0.18957   0.56221   0.09510   0.00000  Uiso   1.00
H1224  H     0.16655   0.52217   0.09491   0.00000  Uiso   1.00
H1225  H     0.33259   0.52235   0.90663   0.00000  Uiso   1.00
H1226  H     0.23559   0.87704   0.23573   0.00000  Uiso   1.00
H1227  H     0.30948   0.56227   0.90601   0.00000  Uiso   1.00
H1228  H     0.49770   0.66409   0.09274   0.00000  Uiso   1.00
H1229  H     0.04252   0.67482   0.09146   0.00000  Uiso   1.00
H1230  H     0.01704   0.82420   0.88613   0.00000  Uiso   1.00
H1231  H     0.05466   0.79697   0.88017   0.00000  Uiso   1.00
H1232  H     0.31031   0.94221   0.08928   0.00000  Uiso   1.00
H1233  H     0.33308   0.98235   0.09054   0.00000  Uiso   1.00
H1234  H     0.16609   0.98142   0.90688   0.00000  Uiso   1.00
H1235  H     0.18897   0.94142   0.90894   0.00000  Uiso   1.00
H1236  H     0.00392   0.83495   0.09276   0.00000  Uiso   1.00
H1237  H     0.21494   0.83245   0.23872   0.00000  Uiso   1.00
H1238  H     0.45905   0.82479   0.09064   0.00000  Uiso   1.00
H1239  H     0.48184   0.66679   0.90515   0.00000  Uiso   1.00
H1240  H     0.44117   0.68781   0.90964   0.00000  Uiso   1.00
H1241  H     0.07233   0.79518   0.59327   0.00000  Uiso   1.00
H1242  H     0.03798   0.82585   0.59260   0.00000  Uiso   1.00
H1243  H     0.49592   0.66419   0.40450   0.00000  Uiso   1.00
H1244  H     0.04077   0.67489   0.40408   0.00000  Uiso   1.00
H1245  H     0.27279   0.91713   0.59330   0.00000  Uiso   1.00
H1246  H     0.31183   0.94173   0.59155   0.00000  Uiso   1.00
H1247  H     0.26090   0.57553   0.38659   0.00000  Uiso   1.00
H1248  H     0.30056   0.53124   0.97378   0.00000  Uiso   1.00
H1249  H     0.18489   0.85092   0.17203   0.00000  Uiso   1.00
H1250  H     0.30079   0.55139   0.38260   0.00000  Uiso   1.00
H1251  H     0.42888   0.70241   0.59410   0.00000  Uiso   1.00
H1252  H     0.46386   0.67237   0.59420   0.00000  Uiso   1.00
H1253  H     0.00407   0.83445   0.40647   0.00000  Uiso   1.00
H1254  H     0.45908   0.82427   0.40697   0.00000  Uiso   1.00
H1255  H     0.22540   0.58183   0.59369   0.00000  Uiso   1.00
H1256  H     0.18641   0.55709   0.59399   0.00000  Uiso   1.00
H1257  H     0.23408   0.91571   0.40576   0.00000  Uiso   1.00
H1258  H     0.19261   0.93577   0.40749   0.00000  Uiso   1.00
H1259  H     0.19536   0.89601   0.18413   0.00000  Uiso   1.00
H1260  H     0.28932   0.67389   0.78509   0.00000  Uiso   1.00
H1261  H     0.27135   0.63104   0.76749   0.00000  Uiso   1.00
H1262  H     0.26087   0.64609   0.81589   0.00000  Uiso   1.00
H1263  H     0.30828   0.59757   0.81707   0.00000  Uiso   1.00
H1264  H     0.32414   0.63854   0.83620   0.00000  Uiso   1.00
H1265  H     0.01212   0.60700   0.32088   0.00000  Uiso   1.00
H1266  H     0.01718   0.63469   0.27876   0.00000  Uiso   1.00
H1267  H     0.03380   0.58839   0.27821   0.00000  Uiso   1.00
H1268  H     0.01572   0.69236   0.02574   0.00000  Uiso   1.00
H1269  H     0.07368   0.61001   0.33727   0.00000  Uiso   1.00
H1270  H     0.06462   0.65472   0.32313   0.00000  Uiso   1.00
H1271  H     0.47620   0.89526   0.77016   0.00000  Uiso   1.00
H1272  H     0.49531   0.92128   0.73083   0.00000  Uiso   1.00
H1273  H     0.45450   0.93683   0.75470   0.00000  Uiso   1.00
H1274  H     0.46215   0.86497   0.70822   0.00000  Uiso   1.00
H1275  H     0.44507   0.90470   0.68793   0.00000  Uiso   1.00
H1276  H     0.27904   0.59324   0.19338   0.00000  Uiso   1.00
H1277  H     0.28991   0.64130   0.19538   0.00000  Uiso   1.00
H1278  H     0.28378   0.61843   0.14948   0.00000  Uiso   1.00
H1279  H     0.03170   0.79942   0.97437   0.00000  Uiso   1.00
H1280  H     0.34653   0.62055   0.15163   0.00000  Uiso   1.00
H1281  H     0.33961   0.57757   0.17094   0.00000  Uiso   1.00
H1282  H     0.20327   0.84317   0.81052   0.00000  Uiso   1.00
H1283  H     0.22152   0.88592   0.79278   0.00000  Uiso   1.00
H1284  H     0.22116   0.87681   0.84372   0.00000  Uiso   1.00
H1285  H     0.17078   0.91965   0.82647   0.00000  Uiso   1.00
H1286  H     0.15598   0.87999   0.84735   0.00000  Uiso   1.00
H1287  H     0.40764   0.79935   0.17594   0.00000  Uiso   1.00
H1288  H     0.36651   0.82259   0.16128   0.00000  Uiso   1.00
H1289  H     0.40473   0.81900   0.12865   0.00000  Uiso   1.00
H1290  H     0.30105   0.97629   0.02383   0.00000  Uiso   1.00
H1291  H     0.40432   0.87950   0.15264   0.00000  Uiso   1.00
H1292  H     0.44205   0.85914   0.17449   0.00000  Uiso   1.00
H1293  H     0.16149   0.70574   0.80821   0.00000  Uiso   1.00
H1294  H     0.11963   0.72378   0.78861   0.00000  Uiso   1.00
H1295  H     0.12781   0.72615   0.83979   0.00000  Uiso   1.00
H1296  H     0.08424   0.67570   0.82557   0.00000  Uiso   1.00
H1297  H     0.12414   0.66019   0.84625   0.00000  Uiso   1.00
H1298  H     0.12894   0.60018   0.85907   0.00000  Uiso   1.00
H1299  H     0.15267   0.56224   0.83771   0.00000  Uiso   1.00
H1300  H     0.17449   0.58918   0.87453   0.00000  Uiso   1.00
H1301  H     0.19700   0.97603   0.97491   0.00000  Uiso   1.00
H1302  H     0.19947   0.60434   0.80962   0.00000  Uiso   1.00
H1303  H     0.17961   0.64230   0.83146   0.00000  Uiso   1.00
H1304  H     0.37853   0.93190   0.13377   0.00000  Uiso   1.00
H1305  H     0.33750   0.92599   0.16204   0.00000  Uiso   1.00
H1306  H     0.35844   0.97047   0.15755   0.00000  Uiso   1.00
H1307  H     0.38703   0.95901   0.21534   0.00000  Uiso   1.00
H1308  H     0.41637   0.93239   0.18747   0.00000  Uiso   1.00
H1309  H     0.09386   0.89053   0.84668   0.00000  Uiso   1.00
H1310  H     0.05584   0.86029   0.84035   0.00000  Uiso   1.00
H1311  H     0.08824   0.85296   0.87902   0.00000  Uiso   1.00
H1312  H     0.48674   0.80607   0.02547   0.00000  Uiso   1.00
H1313  H     0.09259   0.81067   0.81761   0.00000  Uiso   1.00
H1314  H     0.13282   0.82726   0.83653   0.00000  Uiso   1.00
H1315  H     0.32840   0.68271   0.16458   0.00000  Uiso   1.00
H1316  H     0.34496   0.71053   0.20419   0.00000  Uiso   1.00
H1317  H     0.35900   0.71969   0.15517   0.00000  Uiso   1.00
H1318  H     0.40894   0.69092   0.18307   0.00000  Uiso   1.00
H1319  H     0.39098   0.65723   0.15358   0.00000  Uiso   1.00
H1320  H     0.38876   0.91163   0.65215   0.00000  Uiso   1.00
H1321  H     0.34339   0.92694   0.66484   0.00000  Uiso   1.00
H1322  H     0.37657   0.95889   0.64662   0.00000  Uiso   1.00
H1323  H     0.47224   0.69811   0.97393   0.00000  Uiso   1.00
H1324  H     0.36922   0.96559   0.71785   0.00000  Uiso   1.00
H1325  H     0.41362   0.95297   0.70582   0.00000  Uiso   1.00
H1326  H     0.07252   0.54859   0.31141   0.00000  Uiso   1.00
H1327  H     0.10477   0.52654   0.27922   0.00000  Uiso   1.00
H1328  H     0.10593   0.51804   0.33055   0.00000  Uiso   1.00
H1329  H     0.15546   0.55824   0.31595   0.00000  Uiso   1.00
H1330  H     0.12451   0.58360   0.34246   0.00000  Uiso   1.00
H1331  H     0.38218   0.64626   0.85747   0.00000  Uiso   1.00
H1332  H     0.42300   0.66752   0.83914   0.00000  Uiso   1.00
H1333  H     0.39080   0.69383   0.86749   0.00000  Uiso   1.00
H1334  H     0.03940   0.79269   0.52537   0.00000  Uiso   1.00
H1335  H     0.38697   0.70856   0.79786   0.00000  Uiso   1.00
H1336  H     0.34558   0.69199   0.81603   0.00000  Uiso   1.00
H1337  H     0.17923   0.79091   0.20379   0.00000  Uiso   1.00
H1338  H     0.14144   0.77210   0.23108   0.00000  Uiso   1.00
H1339  H     0.14725   0.76112   0.18053   0.00000  Uiso   1.00
H1340  H     0.09834   0.80487   0.18643   0.00000  Uiso   1.00
H1341  H     0.13392   0.82596   0.16253   0.00000  Uiso   1.00
H1342  H     0.48825   0.59472   0.69130   0.00000  Uiso   1.00
H1343  H     0.48354   0.62584   0.73137   0.00000  Uiso   1.00
H1344  H     0.46076   0.58230   0.73240   0.00000  Uiso   1.00
N1345  N     0.19088   0.53480   0.10328   0.00000  Uiso   1.00
N1346  N     0.01488   0.68400   0.39603   0.00000  Uiso   1.00
N1347  N     0.28475   0.94197   0.60122   0.00000  Uiso   1.00
N1348  N     0.28060   0.56079   0.40164   0.00000  Uiso   1.00
N1349  N     0.45595   0.69867   0.60259   0.00000  Uiso   1.00
N1350  N     0.48476   0.81499   0.39802   0.00000  Uiso   1.00
N1351  N     0.21378   0.55709   0.60238   0.00000  Uiso   1.00
N1352  N     0.21955   0.93909   0.39802   0.00000  Uiso   1.00
N1353  N     0.30839   0.53479   0.89777   0.00000  Uiso   1.00
N1354  N     0.01691   0.68373   0.10100   0.00000  Uiso   1.00
N1355  N     0.03617   0.80793   0.90019   0.00000  Uiso   1.00
N1356  N     0.30905   0.96920   0.09916   0.00000  Uiso   1.00
N1357  N     0.19040   0.96833   0.89910   0.00000  Uiso   1.00
N1358  N     0.48426   0.81563   0.10068   0.00000  Uiso   1.00
N1359  N     0.46757   0.69061   0.89847   0.00000  Uiso   1.00
N1360  N     0.04525   0.79967   0.60165   0.00000  Uiso   1.00
O1361  O     0.25000   0.50000   0.25000   0.00000  Uiso   1.00
O1362  O     0.25000   0.96964   0.66317   0.00000  Uiso   1.00
O1363  O     0.46964   0.75000   0.33683   0.00000  Uiso   1.00
O1364  O     0.03036   0.75000   0.66317   0.00000  Uiso   1.00
O1365  O     0.00000   0.71964   0.83683   0.00000  Uiso   1.00
O1366  O     0.00000   0.78036   0.16317   0.00000  Uiso   1.00
O1367  O     0.28036   0.50000   0.83683   0.00000  Uiso   1.00
O1368  O     0.21964   0.50000   0.16317   0.00000  Uiso   1.00
O1369  O     0.00000   0.78036   0.83683   0.00000  Uiso   1.00
O1370  O     0.00000   0.71964   0.16317   0.00000  Uiso   1.00
O1371  O     0.21964   0.50000   0.83683   0.00000  Uiso   1.00
O1372  O     0.25000   0.50000   0.75000   0.00000  Uiso   1.00
O1373  O     0.28036   0.50000   0.16317   0.00000  Uiso   1.00
O1374  O     0.20726   0.57307   0.27282   0.00000  Uiso   1.00
O1375  O     0.29275   0.92693   0.72718   0.00000  Uiso   1.00
O1376  O     0.42693   0.70726   0.27282   0.00000  Uiso   1.00
O1377  O     0.07307   0.79274   0.72718   0.00000  Uiso   1.00
O1378  O     0.29275   0.92693   0.27282   0.00000  Uiso   1.00
O1379  O     0.20726   0.57307   0.72718   0.00000  Uiso   1.00
O1380  O     0.07307   0.79274   0.27282   0.00000  Uiso   1.00
O1381  O     0.42693   0.70726   0.72718   0.00000  Uiso   1.00
O1382  O     0.20726   0.92693   0.72718   0.00000  Uiso   1.00
O1383  O     0.00000   0.75000   0.25000   0.00000  Uiso   1.00
O1384  O     0.29275   0.57307   0.27282   0.00000  Uiso   1.00
O1385  O     0.42693   0.79275   0.72718   0.00000  Uiso   1.00
O1386  O     0.07307   0.70725   0.27282   0.00000  Uiso   1.00
O1387  O     0.29275   0.57307   0.72718   0.00000  Uiso   1.00
O1388  O     0.20726   0.92693   0.27282   0.00000  Uiso   1.00
O1389  O     0.07307   0.70725   0.72718   0.00000  Uiso   1.00
O1390  O     0.42693   0.79275   0.27282   0.00000  Uiso   1.00
O1391  O     0.45726   0.82307   0.77282   0.00000  Uiso   1.00
O1392  O     0.04275   0.67693   0.22718   0.00000  Uiso   1.00
O1393  O     0.17693   0.95725   0.77282   0.00000  Uiso   1.00
O1394  O     0.00000   0.75000   0.75000   0.00000  Uiso   1.00
O1395  O     0.32307   0.54275   0.22718   0.00000  Uiso   1.00
O1396  O     0.04275   0.67693   0.77282   0.00000  Uiso   1.00
O1397  O     0.45726   0.82307   0.22718   0.00000  Uiso   1.00
O1398  O     0.32307   0.54275   0.77282   0.00000  Uiso   1.00
O1399  O     0.17693   0.95725   0.22718   0.00000  Uiso   1.00
O1400  O     0.45726   0.67693   0.22718   0.00000  Uiso   1.00
O1401  O     0.04275   0.82307   0.77282   0.00000  Uiso   1.00
O1402  O     0.17693   0.54275   0.22718   0.00000  Uiso   1.00
O1403  O     0.32307   0.95726   0.77282   0.00000  Uiso   1.00
O1404  O     0.04275   0.82307   0.22718   0.00000  Uiso   1.00
O1405  O     0.25000   0.96964   0.33683   0.00000  Uiso   1.00
O1406  O     0.45726   0.67693   0.77282   0.00000  Uiso   1.00
O1407  O     0.32307   0.95726   0.22718   0.00000  Uiso   1.00
O1408  O     0.17693   0.54275   0.77282   0.00000  Uiso   1.00
O1409  O     0.25000   0.53036   0.66317   0.00000  Uiso   1.00
O1410  O     0.03036   0.75000   0.33683   0.00000  Uiso   1.00
O1411  O     0.46964   0.75000   0.66317   0.00000  Uiso   1.00
O1412  O     0.25000   0.53036   0.33683   0.00000  Uiso   1.00
Zn1413 Zn    0.20660   0.50000   0.21760   0.00000  Uiso   1.00
Zn1414 Zn    0.04340   0.75000   0.28240   0.00000  Uiso   1.00
Zn1415 Zn    0.25000   0.95660   0.71760   0.00000  Uiso   1.00
Zn1416 Zn    0.25000   0.54340   0.28240   0.00000  Uiso   1.00
Zn1417 Zn    0.04340   0.75000   0.71760   0.00000  Uiso   1.00
Zn1418 Zn    0.45660   0.75000   0.28240   0.00000  Uiso   1.00
Zn1419 Zn    0.25000   0.54340   0.71760   0.00000  Uiso   1.00
Zn1420 Zn    0.25000   0.95660   0.28240   0.00000  Uiso   1.00
Zn1421 Zn    0.29340   0.50000   0.78240   0.00000  Uiso   1.00
Zn1422 Zn    0.00000   0.70660   0.21760   0.00000  Uiso   1.00
Zn1423 Zn    0.00000   0.79340   0.78240   0.00000  Uiso   1.00
Zn1424 Zn    0.29340   0.50000   0.21760   0.00000  Uiso   1.00
Zn1425 Zn    0.20660   0.50000   0.78240   0.00000  Uiso   1.00
Zn1426 Zn    0.00000   0.79340   0.21760   0.00000  Uiso   1.00
Zn1427 Zn    0.00000   0.70660   0.78240   0.00000  Uiso   1.00
Zn1428 Zn    0.45660   0.75000   0.71760   0.00000  Uiso   1.00
C1429  C     0.72004   0.51836   0.04203   0.00000  Uiso   1.00
C1430  C     0.50694   0.71671   0.45762   0.00000  Uiso   1.00
C1431  C     0.84735   0.90109   0.74957   0.00000  Uiso   1.00
C1432  C     0.90187   0.65230   0.24913   0.00000  Uiso   1.00
C1433  C     0.59810   0.84817   0.74971   0.00000  Uiso   1.00
C1434  C     0.85066   0.90348   0.25119   0.00000  Uiso   1.00
C1435  C     0.65192   0.59800   0.75047   0.00000  Uiso   1.00
C1436  C     0.59940   0.65297   0.74963   0.00000  Uiso   1.00
C1437  C     0.89734   0.84355   0.24514   0.00000  Uiso   1.00
C1438  C     0.65164   0.90228   0.74937   0.00000  Uiso   1.00
C1439  C     0.84800   0.59859   0.24979   0.00000  Uiso   1.00
C1440  C     0.90186   0.84800   0.75058   0.00000  Uiso   1.00
C1441  C     0.76492   0.97045   0.54125   0.00000  Uiso   1.00
C1442  C     0.59724   0.65122   0.25029   0.00000  Uiso   1.00
C1443  C     0.84785   0.59828   0.74948   0.00000  Uiso   1.00
C1444  C     0.65230   0.90152   0.24985   0.00000  Uiso   1.00
C1445  C     0.74990   0.50169   0.10209   0.00000  Uiso   1.00
C1446  C     0.74951   0.50134   0.89777   0.00000  Uiso   1.00
C1447  C     0.50040   0.74965   0.10209   0.00000  Uiso   1.00
C1448  C     0.50048   0.74987   0.89778   0.00000  Uiso   1.00
C1449  C     0.50034   0.74940   0.60227   0.00000  Uiso   1.00
C1450  C     0.99972   0.74948   0.39733   0.00000  Uiso   1.00
C1451  C     0.74938   0.99960   0.60235   0.00000  Uiso   1.00
C1452  C     0.76275   0.52928   0.45971   0.00000  Uiso   1.00
C1453  C     0.74939   0.50003   0.39807   0.00000  Uiso   1.00
C1454  C     0.68900   0.86906   0.19716   0.00000  Uiso   1.00
C1455  C     0.72245   0.85498   0.21884   0.00000  Uiso   1.00
C1456  C     0.81602   0.62570   0.80857   0.00000  Uiso   1.00
C1457  C     0.78241   0.64540   0.79319   0.00000  Uiso   1.00
C1458  C     0.56746   0.62652   0.31158   0.00000  Uiso   1.00
C1459  C     0.53057   0.61335   0.29622   0.00000  Uiso   1.00
C1460  C     0.94687   0.89011   0.71584   0.00000  Uiso   1.00
C1461  C     0.96951   0.91223   0.74465   0.00000  Uiso   1.00
C1462  C     0.83541   0.60692   0.17748   0.00000  Uiso   1.00
C1463  C     0.97860   0.72400   0.54152   0.00000  Uiso   1.00
C1464  C     0.79461   0.61549   0.17923   0.00000  Uiso   1.00
C1465  C     0.66813   0.89015   0.82022   0.00000  Uiso   1.00
C1466  C     0.70582   0.87290   0.81640   0.00000  Uiso   1.00
C1467  C     0.91183   0.85914   0.17456   0.00000  Uiso   1.00
C1468  C     0.89679   0.82277   0.15940   0.00000  Uiso   1.00
C1469  C     0.61362   0.67196   0.81919   0.00000  Uiso   1.00
C1470  C     0.63176   0.70915   0.81343   0.00000  Uiso   1.00
C1471  C     0.67254   0.61548   0.81850   0.00000  Uiso   1.00
C1472  C     0.65604   0.59032   0.84921   0.00000  Uiso   1.00
C1473  C     0.88723   0.93446   0.19636   0.00000  Uiso   1.00
C1474  C     0.99281   0.78134   0.45856   0.00000  Uiso   1.00
C1475  C     0.86393   0.94080   0.16037   0.00000  Uiso   1.00
C1476  C     0.60761   0.83660   0.82199   0.00000  Uiso   1.00
C1477  C     0.58506   0.86158   0.84855   0.00000  Uiso   1.00
C1478  C     0.88517   0.67253   0.18063   0.00000  Uiso   1.00
C1479  C     0.85224   0.69769   0.17603   0.00000  Uiso   1.00
C1480  C     0.88532   0.94241   0.70624   0.00000  Uiso   1.00
C1481  C     0.87277   0.93443   0.66497   0.00000  Uiso   1.00
C1482  C     0.62800   0.57053   0.31373   0.00000  Uiso   1.00
C1483  C     0.60104   0.53915   0.30824   0.00000  Uiso   1.00
C1484  C     0.87380   0.68337   0.80885   0.00000  Uiso   1.00
C1485  C     0.73195   0.52770   0.54179   0.00000  Uiso   1.00
C1486  C     0.89362   0.67188   0.84545   0.00000  Uiso   1.00
C1487  C     0.62626   0.81543   0.19142   0.00000  Uiso   1.00
C1488  C     0.65010   0.78304   0.20257   0.00000  Uiso   1.00
C1489  C     0.93594   0.62238   0.69370   0.00000  Uiso   1.00
C1490  C     0.96902   0.60534   0.71351   0.00000  Uiso   1.00
C1491  C     0.56380   0.87864   0.30536   0.00000  Uiso   1.00
C1492  C     0.53058   0.89746   0.28793   0.00000  Uiso   1.00
C1493  C     0.80109   0.85869   0.78152   0.00000  Uiso   1.00
C1494  C     0.77557   0.84626   0.74893   0.00000  Uiso   1.00
C1495  C     0.68179   0.62505   0.19041   0.00000  Uiso   1.00
C1496  C     0.73495   0.96941   0.45861   0.00000  Uiso   1.00
C1497  C     0.71175   0.65138   0.20323   0.00000  Uiso   1.00
C1498  C     0.58496   0.85646   0.67756   0.00000  Uiso   1.00
C1499  C     0.54442   0.86661   0.67946   0.00000  Uiso   1.00
C1500  C     0.92430   0.63396   0.31600   0.00000  Uiso   1.00
C1501  C     0.91208   0.65938   0.34880   0.00000  Uiso   1.00
C1502  C     0.63195   0.57465   0.68433   0.00000  Uiso   1.00
C1503  C     0.61190   0.54009   0.69678   0.00000  Uiso   1.00
C1504  C     0.83706   0.88545   0.32189   0.00000  Uiso   1.00
C1505  C     0.85278   0.92094   0.33851   0.00000  Uiso   1.00
C1506  C     0.85635   0.80954   0.29408   0.00000  Uiso   1.00
C1507  C     0.72031   0.51793   0.08242   0.00000  Uiso   1.00
C1508  C     0.84457   0.78047   0.26465   0.00000  Uiso   1.00
C1509  C     0.59296   0.64657   0.67590   0.00000  Uiso   1.00
C1510  C     0.55458   0.63229   0.66829   0.00000  Uiso   1.00
C1511  C     0.85490   0.59078   0.32309   0.00000  Uiso   1.00
C1512  C     0.82785   0.61657   0.34324   0.00000  Uiso   1.00
C1513  C     0.63860   0.91840   0.67847   0.00000  Uiso   1.00
C1514  C     0.60680   0.94403   0.67004   0.00000  Uiso   1.00
C1515  C     0.62139   0.67903   0.18764   0.00000  Uiso   1.00
C1516  C     0.59973   0.66452   0.15323   0.00000  Uiso   1.00
C1517  C     0.86175   0.80346   0.78830   0.00000  Uiso   1.00
C1518  C     0.77863   0.51792   0.91801   0.00000  Uiso   1.00
C1519  C     0.84078   0.77612   0.76337   0.00000  Uiso   1.00
C1520  C     0.62005   0.93786   0.30296   0.00000  Uiso   1.00
C1521  C     0.63999   0.93126   0.34094   0.00000  Uiso   1.00
C1522  C     0.87283   0.56995   0.68712   0.00000  Uiso   1.00
C1523  C     0.89856   0.53788   0.69356   0.00000  Uiso   1.00
C1524  C     0.50851   0.71708   0.08146   0.00000  Uiso   1.00
C1525  C     0.77811   0.51867   0.95835   0.00000  Uiso   1.00
C1526  C     0.51757   0.77847   0.91870   0.00000  Uiso   1.00
C1527  C     0.77916   0.98674   0.08048   0.00000  Uiso   1.00
C1528  C     0.71983   0.98629   0.91865   0.00000  Uiso   1.00
C1529  C     0.99279   0.78200   0.08131   0.00000  Uiso   1.00
C1530  C     0.98472   0.72039   0.91825   0.00000  Uiso   1.00
C1531  C     0.52275   0.77388   0.58159   0.00000  Uiso   1.00
C1532  C     0.50719   0.71689   0.41711   0.00000  Uiso   1.00
C1533  C     0.76594   0.97065   0.58157   0.00000  Uiso   1.00
C1534  C     0.76363   0.52995   0.41953   0.00000  Uiso   1.00
C1535  C     0.97821   0.72434   0.58203   0.00000  Uiso   1.00
C1536  C     0.50890   0.71725   0.04122   0.00000  Uiso   1.00
C1537  C     0.99233   0.78175   0.41809   0.00000  Uiso   1.00
C1538  C     0.73206   0.52812   0.58212   0.00000  Uiso   1.00
C1539  C     0.73494   0.96962   0.41825   0.00000  Uiso   1.00
C1540  C     0.74915   0.50360   0.02100   0.00000  Uiso   1.00
C1541  C     0.74872   0.50379   0.97878   0.00000  Uiso   1.00
C1542  C     0.50127   0.74918   0.02102   0.00000  Uiso   1.00
C1543  C     0.50158   0.74899   0.97880   0.00000  Uiso   1.00
C1544  C     0.50037   0.74876   0.52098   0.00000  Uiso   1.00
C1545  C     0.99998   0.74890   0.47843   0.00000  Uiso   1.00
C1546  C     0.74824   0.99897   0.52143   0.00000  Uiso   1.00
C1547  C     0.51804   0.77765   0.95878   0.00000  Uiso   1.00
C1548  C     0.74853   0.99921   0.47924   0.00000  Uiso   1.00
C1549  C     0.74994   0.50007   0.35536   0.00000  Uiso   1.00
C1550  C     0.74992   0.99990   0.64479   0.00000  Uiso   1.00
C1551  C     0.99991   0.74988   0.35508   0.00000  Uiso   1.00
C1552  C     0.50010   0.74991   0.64478   0.00000  Uiso   1.00
C1553  C     0.50005   0.75003   0.85525   0.00000  Uiso   1.00
C1554  C     0.50005   0.74991   0.14470   0.00000  Uiso   1.00
C1555  C     0.74988   0.50017   0.85525   0.00000  Uiso   1.00
C1556  C     0.75004   0.50032   0.14470   0.00000  Uiso   1.00
C1557  C     0.68001   0.57002   0.25014   0.00000  Uiso   1.00
C1558  C     0.77865   0.98811   0.04020   0.00000  Uiso   1.00
C1559  C     0.81955   0.92958   0.75028   0.00000  Uiso   1.00
C1560  C     0.92977   0.68038   0.24948   0.00000  Uiso   1.00
C1561  C     0.57013   0.81991   0.75009   0.00000  Uiso   1.00
C1562  C     0.82111   0.93076   0.25090   0.00000  Uiso   1.00
C1563  C     0.67996   0.56988   0.75007   0.00000  Uiso   1.00
C1564  C     0.56990   0.81999   0.25000   0.00000  Uiso   1.00
C1565  C     0.93009   0.68001   0.75002   0.00000  Uiso   1.00
C1566  C     0.67977   0.93027   0.74962   0.00000  Uiso   1.00
C1567  C     0.82020   0.56997   0.25021   0.00000  Uiso   1.00
C1568  C     0.93009   0.82002   0.75008   0.00000  Uiso   1.00
C1569  C     0.71956   0.98797   0.95898   0.00000  Uiso   1.00
C1570  C     0.56952   0.67963   0.25043   0.00000  Uiso   1.00
C1571  C     0.81997   0.56992   0.74983   0.00000  Uiso   1.00
C1572  C     0.68030   0.92980   0.24973   0.00000  Uiso   1.00
C1573  C     0.57016   0.68007   0.74974   0.00000  Uiso   1.00
C1574  C     0.92852   0.81854   0.24828   0.00000  Uiso   1.00
C1575  C     0.65530   0.87192   0.22348   0.00000  Uiso   1.00
C1576  C     0.84701   0.62546   0.77868   0.00000  Uiso   1.00
C1577  C     0.59747   0.62519   0.28049   0.00000  Uiso   1.00
C1578  C     0.90907   0.88190   0.73260   0.00000  Uiso   1.00
C1579  C     0.85528   0.61762   0.21481   0.00000  Uiso   1.00
C1580  C     0.99322   0.78134   0.04107   0.00000  Uiso   1.00
C1581  C     0.64476   0.88295   0.78405   0.00000  Uiso   1.00
C1582  C     0.89598   0.86871   0.21444   0.00000  Uiso   1.00
C1583  C     0.61955   0.64706   0.78399   0.00000  Uiso   1.00
C1584  C     0.64717   0.62006   0.78388   0.00000  Uiso   1.00
C1585  C     0.87572   0.90091   0.21953   0.00000  Uiso   1.00
C1586  C     0.61698   0.85626   0.78439   0.00000  Uiso   1.00
C1587  C     0.88079   0.64674   0.21533   0.00000  Uiso   1.00
C1588  C     0.88111   0.90835   0.73120   0.00000  Uiso   1.00
C1589  C     0.62556   0.59854   0.28106   0.00000  Uiso   1.00
C1590  C     0.87416   0.65291   0.77860   0.00000  Uiso   1.00
C1591  C     0.98525   0.72034   0.95852   0.00000  Uiso   1.00
C1592  C     0.62682   0.84570   0.22214   0.00000  Uiso   1.00
C1593  C     0.90321   0.62426   0.72130   0.00000  Uiso   1.00
C1594  C     0.59566   0.87714   0.27663   0.00000  Uiso   1.00
C1595  C     0.83960   0.86671   0.76642   0.00000  Uiso   1.00
C1596  C     0.65109   0.62402   0.22041   0.00000  Uiso   1.00
C1597  C     0.60554   0.86691   0.71467   0.00000  Uiso   1.00
C1598  C     0.89661   0.63143   0.28294   0.00000  Uiso   1.00
C1599  C     0.63116   0.60340   0.71667   0.00000  Uiso   1.00
C1600  C     0.85146   0.87718   0.28107   0.00000  Uiso   1.00
C1601  C     0.87002   0.84434   0.27430   0.00000  Uiso   1.00
C1602  C     0.52234   0.77360   0.54111   0.00000  Uiso   1.00
C1603  C     0.60774   0.63382   0.71487   0.00000  Uiso   1.00
C1604  C     0.86712   0.60673   0.28438   0.00000  Uiso   1.00
C1605  C     0.63194   0.89521   0.71478   0.00000  Uiso   1.00
C1606  C     0.62337   0.65076   0.22008   0.00000  Uiso   1.00
C1607  C     0.86754   0.84001   0.76770   0.00000  Uiso   1.00
C1608  C     0.62263   0.90474   0.27603   0.00000  Uiso   1.00
C1609  C     0.87483   0.59803   0.71994   0.00000  Uiso   1.00
C1610  C     0.59803   0.84812   0.24959   0.00000  Uiso   1.00
C1611  C     0.90201   0.65180   0.75009   0.00000  Uiso   1.00
C1612  C     0.65175   0.59809   0.25064   0.00000  Uiso   1.00
H1613  H     0.69732   0.53074   0.02705   0.00000  Uiso   1.00
H1614  H     0.51270   0.69158   0.47281   0.00000  Uiso   1.00
H1615  H     0.93039   0.60663   0.66711   0.00000  Uiso   1.00
H1616  H     0.94321   0.64995   0.68285   0.00000  Uiso   1.00
H1617  H     0.53757   0.92552   0.27842   0.00000  Uiso   1.00
H1618  H     0.52021   0.88184   0.26273   0.00000  Uiso   1.00
H1619  H     0.50847   0.89916   0.30994   0.00000  Uiso   1.00
H1620  H     0.55587   0.85086   0.31496   0.00000  Uiso   1.00
H1621  H     0.57132   0.89267   0.33258   0.00000  Uiso   1.00
H1622  H     0.75490   0.82694   0.76052   0.00000  Uiso   1.00
H1623  H     0.76063   0.86963   0.73653   0.00000  Uiso   1.00
H1624  H     0.79082   0.83244   0.72521   0.00000  Uiso   1.00
H1625  H     0.77793   0.94841   0.52535   0.00000  Uiso   1.00
H1626  H     0.80073   0.83773   0.80433   0.00000  Uiso   1.00
H1627  H     0.78945   0.88306   0.79626   0.00000  Uiso   1.00
H1628  H     0.72794   0.63896   0.22680   0.00000  Uiso   1.00
H1629  H     0.72984   0.65748   0.17827   0.00000  Uiso   1.00
H1630  H     0.70027   0.67758   0.21397   0.00000  Uiso   1.00
H1631  H     0.69409   0.59783   0.18516   0.00000  Uiso   1.00
H1632  H     0.67160   0.63302   0.16159   0.00000  Uiso   1.00
H1633  H     0.53310   0.86796   0.64981   0.00000  Uiso   1.00
H1634  H     0.52841   0.84596   0.69560   0.00000  Uiso   1.00
H1635  H     0.54074   0.89362   0.69349   0.00000  Uiso   1.00
H1636  H     0.77388   0.55213   0.47584   0.00000  Uiso   1.00
H1637  H     0.59642   0.86906   0.65129   0.00000  Uiso   1.00
H1638  H     0.58800   0.82695   0.67127   0.00000  Uiso   1.00
H1639  H     0.93629   0.66875   0.36529   0.00000  Uiso   1.00
H1640  H     0.89780   0.68375   0.33743   0.00000  Uiso   1.00
H1641  H     0.89387   0.64488   0.36929   0.00000  Uiso   1.00
H1642  H     0.93101   0.60653   0.32735   0.00000  Uiso   1.00
H1643  H     0.95115   0.64375   0.30528   0.00000  Uiso   1.00
H1644  H     0.62755   0.52490   0.71882   0.00000  Uiso   1.00
H1645  H     0.58448   0.54694   0.70859   0.00000  Uiso   1.00
H1646  H     0.60822   0.52225   0.67118   0.00000  Uiso   1.00
H1647  H     0.96154   0.70469   0.52609   0.00000  Uiso   1.00
H1648  H     0.61861   0.58332   0.65742   0.00000  Uiso   1.00
H1649  H     0.66035   0.56802   0.67560   0.00000  Uiso   1.00
H1650  H     0.88307   0.92032   0.33719   0.00000  Uiso   1.00
H1651  H     0.84290   0.94525   0.32279   0.00000  Uiso   1.00
H1652  H     0.84424   0.92387   0.36923   0.00000  Uiso   1.00
H1653  H     0.80682   0.88570   0.32284   0.00000  Uiso   1.00
H1654  H     0.84562   0.86409   0.34257   0.00000  Uiso   1.00
H1655  H     0.82246   0.79136   0.24613   0.00000  Uiso   1.00
H1656  H     0.86747   0.77161   0.24577   0.00000  Uiso   1.00
H1657  H     0.83405   0.75611   0.28014   0.00000  Uiso   1.00
H1658  H     0.98723   0.80628   0.47449   0.00000  Uiso   1.00
H1659  H     0.87673   0.79863   0.31456   0.00000  Uiso   1.00
H1660  H     0.83147   0.81482   0.31163   0.00000  Uiso   1.00
H1661  H     0.55383   0.60208   0.67058   0.00000  Uiso   1.00
H1662  H     0.53508   0.64441   0.68930   0.00000  Uiso   1.00
H1663  H     0.54598   0.64013   0.63874   0.00000  Uiso   1.00
H1664  H     0.59335   0.67660   0.67341   0.00000  Uiso   1.00
H1665  H     0.61136   0.63907   0.65166   0.00000  Uiso   1.00
H1666  H     0.83537   0.64561   0.33870   0.00000  Uiso   1.00
H1667  H     0.79985   0.61239   0.33207   0.00000  Uiso   1.00
H1668  H     0.82774   0.61145   0.37482   0.00000  Uiso   1.00
H1669  H     0.71869   0.54963   0.52632   0.00000  Uiso   1.00
H1670  H     0.84254   0.56330   0.31987   0.00000  Uiso   1.00
H1671  H     0.87806   0.58575   0.34265   0.00000  Uiso   1.00
H1672  H     0.58247   0.92927   0.65962   0.00000  Uiso   1.00
H1673  H     0.59944   0.95980   0.69644   0.00000  Uiso   1.00
H1674  H     0.61500   0.96320   0.64679   0.00000  Uiso   1.00
H1675  H     0.66270   0.93632   0.68052   0.00000  Uiso   1.00
H1676  H     0.64501   0.90090   0.65310   0.00000  Uiso   1.00
H1677  H     0.61194   0.63900   0.14164   0.00000  Uiso   1.00
H1678  H     0.57108   0.65882   0.16177   0.00000  Uiso   1.00
H1679  H     0.59972   0.68528   0.12995   0.00000  Uiso   1.00
H1680  H     0.72375   0.94614   0.47390   0.00000  Uiso   1.00
H1681  H     0.60874   0.70491   0.19769   0.00000  Uiso   1.00
H1682  H     0.64879   0.68771   0.17768   0.00000  Uiso   1.00
H1683  H     0.81169   0.78360   0.76128   0.00000  Uiso   1.00
H1684  H     0.85295   0.77429   0.73395   0.00000  Uiso   1.00
H1685  H     0.84176   0.74879   0.77680   0.00000  Uiso   1.00
H1686  H     0.88799   0.79056   0.79629   0.00000  Uiso   1.00
H1687  H     0.84824   0.80723   0.81677   0.00000  Uiso   1.00
H1688  H     0.62871   0.90711   0.35613   0.00000  Uiso   1.00
H1689  H     0.66948   0.92669   0.33556   0.00000  Uiso   1.00
H1690  H     0.63693   0.95553   0.36002   0.00000  Uiso   1.00
H1691  H     0.74301   0.84464   0.19777   0.00000  Uiso   1.00
H1692  H     0.63162   0.96256   0.28906   0.00000  Uiso   1.00
H1693  H     0.59137   0.94554   0.30907   0.00000  Uiso   1.00
H1694  H     0.92742   0.54592   0.68967   0.00000  Uiso   1.00
H1695  H     0.89463   0.52659   0.72303   0.00000  Uiso   1.00
H1696  H     0.89269   0.51633   0.67191   0.00000  Uiso   1.00
H1697  H     0.84503   0.55859   0.68368   0.00000  Uiso   1.00
H1698  H     0.87800   0.58283   0.65867   0.00000  Uiso   1.00
H1699  H     0.68957   0.56221   0.09510   0.00000  Uiso   1.00
H1700  H     0.66655   0.52217   0.09491   0.00000  Uiso   1.00
H1701  H     0.83259   0.52235   0.90663   0.00000  Uiso   1.00
H1702  H     0.73559   0.87704   0.23573   0.00000  Uiso   1.00
H1703  H     0.80948   0.56227   0.90601   0.00000  Uiso   1.00
H1704  H     0.99770   0.66409   0.09274   0.00000  Uiso   1.00
H1705  H     0.54252   0.67482   0.09146   0.00000  Uiso   1.00
H1706  H     0.51704   0.82420   0.88613   0.00000  Uiso   1.00
H1707  H     0.55466   0.79697   0.88017   0.00000  Uiso   1.00
H1708  H     0.81031   0.94221   0.08928   0.00000  Uiso   1.00
H1709  H     0.83308   0.98235   0.09054   0.00000  Uiso   1.00
H1710  H     0.66609   0.98142   0.90688   0.00000  Uiso   1.00
H1711  H     0.68897   0.94142   0.90894   0.00000  Uiso   1.00
H1712  H     0.50392   0.83495   0.09276   0.00000  Uiso   1.00
H1713  H     0.71494   0.83245   0.23872   0.00000  Uiso   1.00
H1714  H     0.95905   0.82479   0.09064   0.00000  Uiso   1.00
H1715  H     0.98184   0.66679   0.90515   0.00000  Uiso   1.00
H1716  H     0.94117   0.68781   0.90964   0.00000  Uiso   1.00
H1717  H     0.57233   0.79518   0.59327   0.00000  Uiso   1.00
H1718  H     0.53798   0.82585   0.59260   0.00000  Uiso   1.00
H1719  H     0.99592   0.66419   0.40450   0.00000  Uiso   1.00
H1720  H     0.54077   0.67489   0.40408   0.00000  Uiso   1.00
H1721  H     0.77279   0.91713   0.59330   0.00000  Uiso   1.00
H1722  H     0.81183   0.94173   0.59155   0.00000  Uiso   1.00
H1723  H     0.76090   0.57553   0.38659   0.00000  Uiso   1.00
H1724  H     0.80056   0.53124   0.97378   0.00000  Uiso   1.00
H1725  H     0.68489   0.85092   0.17203   0.00000  Uiso   1.00
H1726  H     0.80079   0.55139   0.38260   0.00000  Uiso   1.00
H1727  H     0.92888   0.70241   0.59410   0.00000  Uiso   1.00
H1728  H     0.96386   0.67237   0.59420   0.00000  Uiso   1.00
H1729  H     0.50407   0.83445   0.40647   0.00000  Uiso   1.00
H1730  H     0.95908   0.82427   0.40697   0.00000  Uiso   1.00
H1731  H     0.72540   0.58183   0.59369   0.00000  Uiso   1.00
H1732  H     0.68641   0.55709   0.59399   0.00000  Uiso   1.00
H1733  H     0.73408   0.91571   0.40576   0.00000  Uiso   1.00
H1734  H     0.69261   0.93577   0.40749   0.00000  Uiso   1.00
H1735  H     0.69536   0.89601   0.18413   0.00000  Uiso   1.00
H1736  H     0.78932   0.67389   0.78509   0.00000  Uiso   1.00
H1737  H     0.77135   0.63104   0.76749   0.00000  Uiso   1.00
H1738  H     0.76087   0.64609   0.81589   0.00000  Uiso   1.00
H1739  H     0.80828   0.59757   0.81707   0.00000  Uiso   1.00
H1740  H     0.82414   0.63854   0.83620   0.00000  Uiso   1.00
H1741  H     0.51212   0.60700   0.32088   0.00000  Uiso   1.00
H1742  H     0.51718   0.63469   0.27876   0.00000  Uiso   1.00
H1743  H     0.53380   0.58839   0.27821   0.00000  Uiso   1.00
H1744  H     0.51572   0.69236   0.02574   0.00000  Uiso   1.00
H1745  H     0.57368   0.61001   0.33727   0.00000  Uiso   1.00
H1746  H     0.56462   0.65472   0.32313   0.00000  Uiso   1.00
H1747  H     0.97620   0.89526   0.77016   0.00000  Uiso   1.00
H1748  H     0.99531   0.92128   0.73083   0.00000  Uiso   1.00
H1749  H     0.95450   0.93683   0.75470   0.00000  Uiso   1.00
H1750  H     0.96215   0.86497   0.70822   0.00000  Uiso   1.00
H1751  H     0.94507   0.90470   0.68793   0.00000  Uiso   1.00
H1752  H     0.77904   0.59324   0.19338   0.00000  Uiso   1.00
H1753  H     0.78991   0.64130   0.19538   0.00000  Uiso   1.00
H1754  H     0.78378   0.61843   0.14948   0.00000  Uiso   1.00
H1755  H     0.53170   0.79942   0.97437   0.00000  Uiso   1.00
H1756  H     0.84653   0.62055   0.15163   0.00000  Uiso   1.00
H1757  H     0.83961   0.57757   0.17094   0.00000  Uiso   1.00
H1758  H     0.70327   0.84317   0.81052   0.00000  Uiso   1.00
H1759  H     0.72152   0.88592   0.79278   0.00000  Uiso   1.00
H1760  H     0.72116   0.87681   0.84372   0.00000  Uiso   1.00
H1761  H     0.67078   0.91965   0.82647   0.00000  Uiso   1.00
H1762  H     0.65598   0.87999   0.84735   0.00000  Uiso   1.00
H1763  H     0.90764   0.79935   0.17594   0.00000  Uiso   1.00
H1764  H     0.86651   0.82259   0.16128   0.00000  Uiso   1.00
H1765  H     0.90473   0.81900   0.12865   0.00000  Uiso   1.00
H1766  H     0.80105   0.97629   0.02383   0.00000  Uiso   1.00
H1767  H     0.90432   0.87950   0.15264   0.00000  Uiso   1.00
H1768  H     0.94205   0.85914   0.17449   0.00000  Uiso   1.00
H1769  H     0.66149   0.70574   0.80821   0.00000  Uiso   1.00
H1770  H     0.61963   0.72378   0.78861   0.00000  Uiso   1.00
H1771  H     0.62781   0.72615   0.83979   0.00000  Uiso   1.00
H1772  H     0.58424   0.67570   0.82557   0.00000  Uiso   1.00
H1773  H     0.62414   0.66019   0.84625   0.00000  Uiso   1.00
H1774  H     0.62894   0.60018   0.85907   0.00000  Uiso   1.00
H1775  H     0.65267   0.56224   0.83771   0.00000  Uiso   1.00
H1776  H     0.67449   0.58918   0.87453   0.00000  Uiso   1.00
H1777  H     0.69700   0.97603   0.97491   0.00000  Uiso   1.00
H1778  H     0.69947   0.60434   0.80962   0.00000  Uiso   1.00
H1779  H     0.67961   0.64230   0.83146   0.00000  Uiso   1.00
H1780  H     0.87853   0.93190   0.13377   0.00000  Uiso   1.00
H1781  H     0.83750   0.92599   0.16204   0.00000  Uiso   1.00
H1782  H     0.85844   0.97047   0.15755   0.00000  Uiso   1.00
H1783  H     0.88703   0.95901   0.21534   0.00000  Uiso   1.00
H1784  H     0.91637   0.93239   0.18747   0.00000  Uiso   1.00
H1785  H     0.59386   0.89053   0.84668   0.00000  Uiso   1.00
H1786  H     0.55584   0.86029   0.84035   0.00000  Uiso   1.00
H1787  H     0.58824   0.85296   0.87902   0.00000  Uiso   1.00
H1788  H     0.98674   0.80607   0.02547   0.00000  Uiso   1.00
H1789  H     0.59259   0.81067   0.81761   0.00000  Uiso   1.00
H1790  H     0.63282   0.82726   0.83653   0.00000  Uiso   1.00
H1791  H     0.82840   0.68271   0.16458   0.00000  Uiso   1.00
H1792  H     0.84496   0.71053   0.20419   0.00000  Uiso   1.00
H1793  H     0.85900   0.71969   0.15517   0.00000  Uiso   1.00
H1794  H     0.90894   0.69092   0.18307   0.00000  Uiso   1.00
H1795  H     0.89098   0.65723   0.15358   0.00000  Uiso   1.00
H1796  H     0.88876   0.91163   0.65215   0.00000  Uiso   1.00
H1797  H     0.84339   0.92694   0.66484   0.00000  Uiso   1.00
H1798  H     0.87657   0.95889   0.64662   0.00000  Uiso   1.00
H1799  H     0.97224   0.69811   0.97393   0.00000  Uiso   1.00
H1800  H     0.86922   0.96559   0.71785   0.00000  Uiso   1.00
H1801  H     0.91362   0.95297   0.70582   0.00000  Uiso   1.00
H1802  H     0.57252   0.54859   0.31141   0.00000  Uiso   1.00
H1803  H     0.60477   0.52654   0.27922   0.00000  Uiso   1.00
H1804  H     0.60593   0.51804   0.33055   0.00000  Uiso   1.00
H1805  H     0.65546   0.55824   0.31595   0.00000  Uiso   1.00
H1806  H     0.62451   0.58360   0.34246   0.00000  Uiso   1.00
H1807  H     0.88218   0.64626   0.85747   0.00000  Uiso   1.00
H1808  H     0.92300   0.66752   0.83914   0.00000  Uiso   1.00
H1809  H     0.89080   0.69383   0.86749   0.00000  Uiso   1.00
H1810  H     0.53940   0.79269   0.52537   0.00000  Uiso   1.00
H1811  H     0.88697   0.70856   0.79786   0.00000  Uiso   1.00
H1812  H     0.84558   0.69199   0.81603   0.00000  Uiso   1.00
H1813  H     0.67923   0.79091   0.20379   0.00000  Uiso   1.00
H1814  H     0.64144   0.77210   0.23108   0.00000  Uiso   1.00
H1815  H     0.64725   0.76112   0.18053   0.00000  Uiso   1.00
H1816  H     0.59834   0.80487   0.18643   0.00000  Uiso   1.00
H1817  H     0.63392   0.82596   0.16253   0.00000  Uiso   1.00
H1818  H     0.98825   0.59472   0.69130   0.00000  Uiso   1.00
H1819  H     0.98354   0.62584   0.73137   0.00000  Uiso   1.00
H1820  H     0.96076   0.58230   0.73240   0.00000  Uiso   1.00
N1821  N     0.69088   0.53480   0.10328   0.00000  Uiso   1.00
N1822  N     0.51488   0.68400   0.39603   0.00000  Uiso   1.00
N1823  N     0.78475   0.94197   0.60122   0.00000  Uiso   1.00
N1824  N     0.78060   0.56079   0.40164   0.00000  Uiso   1.00
N1825  N     0.95595   0.69867   0.60259   0.00000  Uiso   1.00
N1826  N     0.98476   0.81499   0.39802   0.00000  Uiso   1.00
N1827  N     0.71378   0.55709   0.60238   0.00000  Uiso   1.00
N1828  N     0.71955   0.93909   0.39802   0.00000  Uiso   1.00
N1829  N     0.80839   0.53479   0.89777   0.00000  Uiso   1.00
N1830  N     0.51691   0.68373   0.10100   0.00000  Uiso   1.00
N1831  N     0.53617   0.80793   0.90019   0.00000  Uiso   1.00
N1832  N     0.80905   0.96920   0.09916   0.00000  Uiso   1.00
N1833  N     0.69040   0.96833   0.89910   0.00000  Uiso   1.00
N1834  N     0.98426   0.81563   0.10068   0.00000  Uiso   1.00
N1835  N     0.96757   0.69061   0.89847   0.00000  Uiso   1.00
N1836  N     0.54525   0.79967   0.60165   0.00000  Uiso   1.00
O1837  O     0.75000   0.50000   0.25000   0.00000  Uiso   1.00
O1838  O     0.75000   0.96964   0.66317   0.00000  Uiso   1.00
O1839  O     0.96964   0.75000   0.33683   0.00000  Uiso   1.00
O1840  O     0.53036   0.75000   0.66317   0.00000  Uiso   1.00
O1841  O     0.50000   0.71964   0.83683   0.00000  Uiso   1.00
O1842  O     0.50000   0.78036   0.16317   0.00000  Uiso   1.00
O1843  O     0.78036   0.50000   0.83683   0.00000  Uiso   1.00
O1844  O     0.71964   0.50000   0.16317   0.00000  Uiso   1.00
O1845  O     0.50000   0.78036   0.83683   0.00000  Uiso   1.00
O1846  O     0.50000   0.71964   0.16317   0.00000  Uiso   1.00
O1847  O     0.71964   0.50000   0.83683   0.00000  Uiso   1.00
O1848  O     0.75000   0.50000   0.75000   0.00000  Uiso   1.00
O1849  O     0.78036   0.50000   0.16317   0.00000  Uiso   1.00
O1850  O     0.70726   0.57307   0.27282   0.00000  Uiso   1.00
O1851  O     0.79275   0.92693   0.72718   0.00000  Uiso   1.00
O1852  O     0.92693   0.70726   0.27282   0.00000  Uiso   1.00
O1853  O     0.57307   0.79274   0.72718   0.00000  Uiso   1.00
O1854  O     0.79275   0.92693   0.27282   0.00000  Uiso   1.00
O1855  O     0.70726   0.57307   0.72718   0.00000  Uiso   1.00
O1856  O     0.57307   0.79274   0.27282   0.00000  Uiso   1.00
O1857  O     0.92693   0.70726   0.72718   0.00000  Uiso   1.00
O1858  O     0.70726   0.92693   0.72718   0.00000  Uiso   1.00
O1859  O     0.50000   0.75000   0.25000   0.00000  Uiso   1.00
O1860  O     0.79275   0.57307   0.27282   0.00000  Uiso   1.00
O1861  O     0.92693   0.79275   0.72718   0.00000  Uiso   1.00
O1862  O     0.57307   0.70725   0.27282   0.00000  Uiso   1.00
O1863  O     0.79275   0.57307   0.72718   0.00000  Uiso   1.00
O1864  O     0.70726   0.92693   0.27282   0.00000  Uiso   1.00
O1865  O     0.57307   0.70725   0.72718   0.00000  Uiso   1.00
O1866  O     0.92693   0.79275   0.27282   0.00000  Uiso   1.00
O1867  O     0.95726   0.82307   0.77282   0.00000  Uiso   1.00
O1868  O     0.54275   0.67693   0.22718   0.00000  Uiso   1.00
O1869  O     0.67693   0.95725   0.77282   0.00000  Uiso   1.00
O1870  O     0.50000   0.75000   0.75000   0.00000  Uiso   1.00
O1871  O     0.82307   0.54275   0.22718   0.00000  Uiso   1.00
O1872  O     0.54275   0.67693   0.77282   0.00000  Uiso   1.00
O1873  O     0.95726   0.82307   0.22718   0.00000  Uiso   1.00
O1874  O     0.82307   0.54275   0.77282   0.00000  Uiso   1.00
O1875  O     0.67693   0.95725   0.22718   0.00000  Uiso   1.00
O1876  O     0.95726   0.67693   0.22718   0.00000  Uiso   1.00
O1877  O     0.54275   0.82307   0.77282   0.00000  Uiso   1.00
O1878  O     0.67693   0.54275   0.22718   0.00000  Uiso   1.00
O1879  O     0.82307   0.95726   0.77282   0.00000  Uiso   1.00
O1880  O     0.54275   0.82307   0.22718   0.00000  Uiso   1.00
O1881  O     0.75000   0.96964   0.33683   0.00000  Uiso   1.00
O1882  O     0.95726   0.67693   0.77282   0.00000  Uiso   1.00
O1883  O     0.82307   0.95726   0.22718   0.00000  Uiso   1.00
O1884  O     0.67693   0.54275   0.77282   0.00000  Uiso   1.00
O1885  O     0.75000   0.53036   0.66317   0.00000  Uiso   1.00
O1886  O     0.53036   0.75000   0.33683   0.00000  Uiso   1.00
O1887  O     0.96964   0.75000   0.66317   0.00000  Uiso   1.00
O1888  O     0.75000   0.53036   0.33683   0.00000  Uiso   1.00
Zn1889 Zn    0.70660   0.50000   0.21760   0.00000  Uiso   1.00
Zn1890 Zn    0.54340   0.75000   0.28240   0.00000  Uiso   1.00
Zn1891 Zn    0.75000   0.95660   0.71760   0.00000  Uiso   1.00
Zn1892 Zn    0.75000   0.54340   0.28240   0.00000  Uiso   1.00
Zn1893 Zn    0.54340   0.75000   0.71760   0.00000  Uiso   1.00
Zn1894 Zn    0.95660   0.75000   0.28240   0.00000  Uiso   1.00
Zn1895 Zn    0.75000   0.54340   0.71760   0.00000  Uiso   1.00
Zn1896 Zn    0.75000   0.95660   0.28240   0.00000  Uiso   1.00
Zn1897 Zn    0.79340   0.50000   0.78240   0.00000  Uiso   1.00
Zn1898 Zn    0.50000   0.70660   0.21760   0.00000  Uiso   1.00
Zn1899 Zn    0.50000   0.79340   0.78240   0.00000  Uiso   1.00
Zn1900 Zn    0.79340   0.50000   0.21760   0.00000  Uiso   1.00
Zn1901 Zn    0.70660   0.50000   0.78240   0.00000  Uiso   1.00
Zn1902 Zn    0.50000   0.79340   0.21760   0.00000  Uiso   1.00
Zn1903 Zn    0.50000   0.70660   0.78240   0.00000  Uiso   1.00
Zn1904 Zn    0.95660   0.75000   0.71760   0.00000  Uiso   1.00
loop_
_geom_bond_atom_site_label_1
_geom_bond_atom_site_label_2
_geom_bond_distance
_geom_bond_site_symmetry_2
_ccdc_geom_bond_type
C1     H185    1.084   .     S
C1     C79     1.397   .     A
C1     C112    1.396   .     A
C2     C104    1.401   .     A
C2     H186    1.084   .     S
C2     C593    1.402   1_455 S
C3     C131    1.460   .     S
C3     C167    1.418   .     A
C3     C160    1.413   .     A
C4     C132    1.449   .     S
C4     C159    1.418   .     A
C4     C170    1.412   .     A
C5     C158    1.418   .     A
C5     C133    1.456   .     S
C5     C169    1.420   .     A
C6     C172    1.416   .     A
C6     C157    1.428   .     A
C6     C134    1.475   .     S
C7     C156    1.417   .     A
C7     C171    1.413   .     A
C7     C135    1.456   .     S
C8     C145    1.462   .     S
C8     C155    1.420   .     A
C8     C175    1.421   .     A
C9     C146    1.470   .     S
C9     C173    1.417   .     A
C9     C154    1.411   .     A
C10    C138    1.453   .     S
C10    C177    1.423   .     A
C10    C153    1.417   .     A
C11    C176    1.420   .     A
C11    C151    1.423   .     A
C11    C139    1.461   .     S
C12    C150    1.415   .     A
C12    C140    1.457   .     S
C12    C179    1.418   .     A
C13    C118    1.396   .     A
C13    H197    1.084   .     S
C13    C105    1.395   .     A
C14    C149    1.418   .     A
C14    C142    1.456   .     S
C14    C178    1.413   .     A
C15    C148    1.415   .     A
C15    C143    1.456   .     S
C15    C181    1.418   .     A
C16    C144    1.457   .     S
C16    C180    1.416   .     A
C16    C147    1.418   .     A
C17    C128    1.475   .     S
C17    C79     1.416   .     A
C17    C1051   1.413   1_545 S
C18    C90     1.414   .     A
C18    C127    1.471   .     S
C18    C1052   1.415   1_545 S
C19    C126    1.473   .     S
C19    C96     1.418   .     A
C19    C577    1.418   1_455 S
C20    C125    1.471   .     S
C20    C98     1.417   .     A
C20    C578    1.415   1_455 S
C21    C124    1.470   .     S
C21    C103    1.410   .     A
C21    C583    1.410   1_455 S
C22    C109    1.406   .     A
C22    C123    1.461   .     S
C22    C580    1.407   .     S
C23    C122    1.468   .     S
C23    C105    1.414   .     A
C23    C1062   1.413   .     S
C24    C106    1.390   .     A
C24    H208    1.084   .     S
C24    C1072   1.394   1_545 S
C25    C121    1.477   .     S
C25    C106    1.421   .     A
C25    C1063   1.418   1_545 S
C26    H297    1.102   .     S
C26    C27     1.532   .     S
C26    C147    1.534   .     S
C26    H307    1.111   .     S
C27    H285    1.110   .     S
C27    H263    1.111   .     S
C27    H274    1.106   .     S
C28    H311    1.109   .     S
C28    C29     1.528   .     S
C28    C148    1.531   .     S
C28    H312    1.105   .     S
C29    H310    1.110   .     S
C29    H309    1.109   .     S
C29    H308    1.110   .     S
C30    H318    1.110   .     S
C30    C31     1.532   .     S
C30    C149    1.535   .     S
C30    H317    1.102   .     S
C31    H314    1.107   .     S
C31    H315    1.110   .     S
C31    H313    1.111   .     S
C32    H323    1.108   .     S
C32    C33     1.529   .     S
C32    C150    1.529   .     S
C32    H322    1.108   .     S
C33    H321    1.110   .     S
C33    H320    1.108   .     S
C33    H319    1.110   .     S
C34    C36     1.529   .     S
C34    H329    1.108   .     S
C34    H328    1.102   .     S
C34    C151    1.535   .     S
C35    H219    1.084   .     S
C35    C107    1.401   .     A
C35    C592    1.400   .     S
C36    H325    1.109   .     S
C36    H324    1.108   .     S
C36    H326    1.111   .     S
C37    C38     1.525   .     S
C37    H333    1.105   .     S
C37    C153    1.542   .     S
C37    H334    1.103   .     S
C38    H330    1.111   .     S
C38    H331    1.106   .     S
C38    H332    1.111   .     S
C39    C154    1.533   .     S
C39    H339    1.103   .     S
C39    C40     1.532   .     S
C39    H340    1.107   .     S
C40    H335    1.109   .     S
C40    H336    1.111   .     S
C40    H337    1.109   .     S
C41    H344    1.106   .     S
C41    C42     1.528   .     S
C41    H345    1.104   .     S
C41    C155    1.533   .     S
C42    H341    1.111   .     S
C42    H342    1.109   .     S
C42    H343    1.111   .     S
C43    C44     1.531   .     S
C43    C156    1.530   .     S
C43    H350    1.110   .     S
C43    H351    1.109   .     S
C44    H347    1.108   .     S
C44    H346    1.109   .     S
C44    H348    1.110   .     S
C45    H356    1.112   .     S
C45    C47     1.532   .     S
C45    C157    1.528   .     S
C45    H355    1.111   .     S
C46    C117    1.402   .     A
C46    H230    1.084   .     S
C46    C109    1.400   .     A
C47    H353    1.111   .     S
C47    H352    1.109   .     S
C47    H354    1.110   .     S
C48    C158    1.527   .     S
C48    H362    1.110   .     S
C48    C49     1.533   .     S
C48    H361    1.107   .     S
C49    H357    1.110   .     S
C49    H359    1.109   .     S
C49    H358    1.110   .     S
C50    H367    1.108   .     S
C50    H366    1.104   .     S
C50    C51     1.529   .     S
C50    C159    1.538   .     S
C51    H364    1.111   .     S
C51    H365    1.111   .     S
C51    H363    1.105   .     S
C52    C160    1.528   .     S
C52    C53     1.529   .     S
C52    H373    1.107   .     S
C52    H372    1.107   .     S
C53    H370    1.109   .     S
C53    H368    1.110   .     S
C53    H369    1.111   .     S
C54    H377    1.106   .     S
C54    C55     1.527   .     S
C54    H378    1.108   .     S
C54    C161    1.533   .     S
C55    H376    1.110   .     S
C55    H374    1.106   .     S
C55    H375    1.111   .     S
C56    C162    1.526   .     S
C56    H383    1.109   .     S
C56    C58     1.524   .     S
C56    H384    1.108   .     S
C57    H241    1.084   .     S
C57    C110    1.395   .     A
C57    C1070   1.396   1_545 S
C58    H380    1.109   .     S
C58    H381    1.110   .     S
C58    H379    1.109   .     S
C59    C164    1.532   .     S
C59    C60     1.526   .     S
C59    H389    1.108   .     S
C59    H388    1.108   .     S
C60    H386    1.111   .     S
C60    H385    1.106   .     S
C60    H387    1.110   .     S
C61    H188    1.110   .     S
C61    C62     1.531   .     S
C61    H187    1.103   .     S
C61    C165    1.531   .     S
C62    H391    1.108   .     S
C62    H392    1.110   .     S
C62    H390    1.109   .     S
C63    C166    1.530   .     S
C63    H192    1.110   .     S
C63    H193    1.107   .     S
C63    C64     1.528   .     S
C64    H191    1.110   .     S
C64    H189    1.110   .     S
C64    H190    1.109   .     S
C65    H199    1.110   .     S
C65    H198    1.104   .     S
C65    C167    1.531   .     S
C65    C66     1.535   .     S
C66    H194    1.110   .     S
C66    H195    1.106   .     S
C66    H196    1.111   .     S
C67    C168    1.527   .     S
C67    H204    1.107   .     S
C67    C69     1.527   .     S
C67    H203    1.109   .     S
C68    C120    1.394   .     A
C68    H252    1.084   .     S
C68    C111    1.396   .     A
C69    H202    1.110   .     S
C69    H200    1.111   .     S
C69    H201    1.109   .     S
C70    C169    1.539   .     S
C70    H210    1.107   .     S
C70    C71     1.533   .     S
C70    H209    1.102   .     S
C71    H207    1.108   .     S
C71    H205    1.110   .     S
C71    H206    1.108   .     S
C72    H214    1.109   .     S
C72    C73     1.530   .     S
C72    H215    1.109   .     S
C72    C170    1.535   .     S
C73    H212    1.110   .     S
C73    H211    1.110   .     S
C73    H213    1.107   .     S
C74    H221    1.109   .     S
C74    C171    1.533   .     S
C74    H220    1.102   .     S
C74    C75     1.525   .     S
C75    H217    1.111   .     S
C75    H216    1.109   .     S
C75    H218    1.107   .     S
C76    C172    1.533   .     S
C76    H225    1.108   .     S
C76    H226    1.110   .     S
C76    C77     1.532   .     S
C77    H223    1.108   .     S
C77    H222    1.111   .     S
C77    H224    1.111   .     S
C78    H231    1.108   .     S
C78    C80     1.533   .     S
C78    H232    1.109   .     S
C78    C173    1.532   .     S
C79    N393    1.433   .     S
C80    H227    1.111   .     S
C80    H228    1.108   .     S
C80    H229    1.111   .     S
C81    C175    1.531   .     S
C81    C82     1.524   .     S
C81    H237    1.107   .     S
C81    H236    1.104   .     S
C82    H235    1.110   .     S
C82    H233    1.110   .     S
C82    H234    1.108   .     S
C83    C176    1.528   .     S
C83    C84     1.533   .     S
C83    H243    1.105   .     S
C83    H242    1.109   .     S
C84    H239    1.108   .     S
C84    H238    1.110   .     S
C84    H240    1.109   .     S
C85    H248    1.109   .     S
C85    C86     1.528   .     S
C85    H247    1.102   .     S
C85    C177    1.538   .     S
C86    H245    1.110   .     S
C86    H246    1.110   .     S
C86    H244    1.103   .     S
C87    H254    1.107   .     S
C87    C88     1.527   .     S
C87    C178    1.532   .     S
C87    H253    1.109   .     S
C88    H249    1.109   .     S
C88    H251    1.110   .     S
C88    H250    1.109   .     S
C89    H259    1.108   .     S
C89    C91     1.528   .     S
C89    H258    1.109   .     S
C89    C179    1.533   .     S
C90    N401    1.433   .     S
C90    C97     1.395   .     A
C91    H255    1.104   .     S
C91    H257    1.106   .     S
C91    H256    1.110   .     S
C92    C180    1.529   .     S
C92    H264    1.109   .     S
C92    H265    1.107   .     S
C92    C93     1.527   .     S
C93    H262    1.110   .     S
C93    H261    1.108   .     S
C93    H260    1.109   .     S
C94    H269    1.107   .     S
C94    C181    1.530   .     S
C94    C95     1.525   .     S
C94    H270    1.109   .     S
C95    H266    1.105   .     S
C95    H267    1.110   .     S
C95    H268    1.107   .     S
C96    N402    1.433   .     S
C96    C108    1.392   .     A
C97    H296    1.084   .     S
C97    C113    1.396   .     A
C98    C119    1.387   .     A
C98    N403    1.428   .     S
C99    N404    1.430   .     S
C99    C130    1.395   .     A
C99    C969    1.413   .     S
C100   N405    1.434   .     S
C100   C141    1.396   .     A
C100   C970    1.415   .     S
C101   C152    1.392   .     A
C101   N406    1.434   .     S
C101   C495    1.418   .     S
C102   C163    1.393   .     A
C102   N407    1.431   .     S
C102   C496    1.415   .     S
C103   C174    1.400   .     A
C103   N408    1.433   .     S
C104   N394    1.433   .     S
C104   C498    1.407   1_455 S
C105   N395    1.433   .     S
C106   N396    1.430   .     S
C107   N397    1.433   .     S
C107   C497    1.410   .     S
C108   C114    1.394   .     A
C108   H316    1.084   .     S
C109   N398    1.433   .     S
C110   N399    1.434   .     S
C110   C975    1.413   1_545 S
C111   N400    1.433   .     S
C111   C977    1.418   .     S
C112   C113    1.461   1_554 S
C112   C1082   1.395   1_545 S
C113   C112    1.461   1_556 S
C113   C1093   1.396   1_545 S
C114   C115    1.460   1_554 S
C114   C628    1.395   1_455 S
C115   C119    1.395   .     A
C115   C114    1.460   1_556 S
C115   C639    1.395   1_455 S
C116   C174    1.400   .     A
C116   C511    1.400   1_455 S
C116   C593    1.472   1_455 S
C117   C478    1.402   .     S
C117   C592    1.472   .     S
C118   C120    1.459   .     S
C118   C1009   1.396   .     S
C119   H327    1.084   .     S
C120   C976    1.394   .     S
C121   O460    1.284   .     A
C121   O1405   1.283   1_545 S
C122   O410    1.280   .     A
C122   O1409   1.281   .     S
C123   O411    1.279   .     A
C123   O934    1.279   .     S
C124   O412    1.281   .     A
C124   O935    1.282   1_455 S
C125   O417    1.283   .     A
C125   O413    1.280   .     A
C126   O414    1.283   .     A
C126   O418    1.282   .     A
C127   O415    1.283   .     S
C127   O419    1.281   .     S
C128   O416    1.281   .     S
C128   O421    1.285   .     S
C129   O450    1.279   .     A
C129   C184    1.460   .     S
C129   O422    1.278   .     A
C130   H338    1.084   .     S
C130   C1064   1.395   .     S
C131   O451    1.283   .     A
C131   O423    1.273   .     A
C132   O448    1.271   .     A
C132   O424    1.274   .     A
C133   O449    1.276   .     A
C133   O425    1.274   .     A
C134   O426    1.291   .     A
C134   O455    1.275   .     A
C135   O427    1.278   .     A
C135   O456    1.275   .     A
C136   O452    1.279   .     A
C136   O428    1.281   .     A
C136   C182    1.457   .     S
C137   O454    1.279   .     A
C137   O429    1.281   .     A
C137   C183    1.457   .     S
C138   O430    1.274   .     A
C138   O441    1.274   .     A
C139   O443    1.277   .     A
C139   O432    1.276   .     A
C140   O433    1.278   .     A
C140   O439    1.277   .     A
C141   H349    1.084   .     S
C141   C1065   1.396   .     S
C142   O434    1.278   .     A
C142   O440    1.276   .     A
C143   O446    1.282   .     A
C143   O435    1.278   .     A
C144   O447    1.282   .     A
C144   O436    1.279   .     A
C145   O444    1.285   .     A
C145   O437    1.272   .     A
C146   O445    1.289   .     A
C146   O438    1.274   .     A
C147   C164    1.418   .     A
C148   C162    1.414   .     A
C149   C161    1.420   .     A
C150   C160    1.412   .     A
C151   C159    1.418   .     A
C152   H360    1.084   .     S
C152   C590    1.395   .     S
C153   C158    1.410   .     A
C154   C157    1.405   .     A
C155   C156    1.416   .     A
C161   C184    1.420   .     A
C162   C183    1.416   .     A
C163   H371    1.084   .     S
C163   C591    1.395   .     S
C164   C182    1.418   .     A
C165   C183    1.415   .     A
C165   C181    1.416   .     A
C166   C182    1.415   .     A
C166   C180    1.413   .     A
C167   C179    1.418   .     A
C168   C184    1.416   .     A
C168   C178    1.412   .     A
C169   C177    1.417   .     A
C170   C176    1.409   .     A
C171   C175    1.409   .     A
C172   C173    1.401   .     A
C174   H382    1.084   .     S
H271   N393    1.046   .     S
H272   N393    1.046   .     S
H273   N401    1.046   .     S
H275   N401    1.046   .     S
H276   N878    1.046   .     S
H277   N402    1.045   .     S
H278   N403    1.045   .     S
H279   N403    1.045   .     S
H280   N404    1.046   .     S
H281   N404    1.046   .     S
H282   N405    1.046   .     S
H283   N405    1.046   .     S
H284   N882    1.046   1_455 S
H286   N406    1.045   .     S
H287   N407    1.046   .     S
H288   N407    1.045   .     S
H289   N408    1.046   .     S
H290   N408    1.045   .     S
H291   N870    1.045   .     S
H292   N394    1.046   .     S
H293   N395    1.046   .     S
H294   N395    1.046   .     S
H295   N396    1.045   .     S
H298   N396    1.045   .     S
H299   N397    1.046   .     S
H300   N397    1.046   .     S
H301   N874    1.046   1_455 S
H302   N398    1.046   .     S
H303   N399    1.046   .     S
H304   N399    1.046   .     S
H305   N400    1.046   .     S
H306   N400    1.046   .     S
N394   H767    1.045   1_455 S
N398   H777    1.046   .     S
N402   H752    1.046   1_455 S
N406   H760    1.046   .     S
O409   Zn461   1.951   .     S
O409   Zn1420  1.949   1_545 S
O409   Zn472   1.940   .     S
O409   Zn464   1.941   .     S
O410   Zn463   1.944   .     S
O411   Zn466   1.945   .     S
O412   Zn465   1.945   .     S
O413   Zn475   1.940   .     S
O414   Zn474   1.940   .     S
O415   Zn469   1.940   .     S
O416   Zn461   1.940   .     S
O417   Zn471   1.944   .     S
O418   Zn470   1.944   .     S
O419   Zn473   1.945   .     S
O420   Zn467   1.949   .     S
O420   Zn1415  1.941   1_545 S
O420   Zn469   1.951   .     S
O420   Zn473   1.940   .     S
O421   Zn472   1.945   .     S
O422   Zn464   1.939   .     S
O423   Zn463   1.939   .     S
O424   Zn466   1.933   .     S
O425   Zn465   1.933   .     S
O426   Zn468   1.934   .     S
O427   Zn467   1.934   .     S
O428   Zn462   1.934   .     S
O429   Zn476   1.934   .     S
O430   Zn463   1.933   .     S
O431   Zn470   1.941   .     S
O431   Zn474   1.949   .     S
O431   Zn462   1.951   .     S
O431   Zn942   1.940   1_455 S
O432   Zn464   1.933   .     S
O433   Zn476   1.934   .     S
O434   Zn462   1.934   .     S
O435   Zn467   1.935   .     S
O436   Zn468   1.935   .     S
O437   Zn465   1.938   .     S
O438   Zn466   1.938   .     S
O439   Zn947   1.939   .     S
O440   Zn470   1.939   .     S
O441   Zn1425  1.933   .     S
O442   Zn465   1.940   .     S
O442   Zn471   1.941   .     S
O442   Zn475   1.949   .     S
O442   Zn952   1.951   1_455 S
O443   Zn472   1.933   .     S
O444   Zn475   1.934   .     S
O445   Zn950   1.934   .     S
O446   Zn469   1.934   .     S
O447   Zn1413  1.934   .     S
O448   Zn946   1.933   .     S
O449   Zn471   1.933   .     S
O450   Zn461   1.934   .     S
O451   Zn1421  1.934   .     S
O452   Zn474   1.935   .     S
O453   Zn468   1.940   .     S
O453   C1073   1.283   .     S
O454   Zn951   1.935   .     S
O455   Zn1424  1.938   .     S
O456   Zn473   1.938   .     S
O457   Zn467   1.940   .     S
O457   C1074   1.281   1_545 S
O458   Zn462   1.940   .     S
O458   C599    1.279   1_455 S
O459   Zn476   1.940   .     S
O459   C600    1.282   .     S
O460   Zn464   1.944   .     S
Zn461  O1399   1.934   1_545 S
Zn463  O1372   1.941   .     S
Zn466  O907    1.940   .     S
Zn468  O1361   1.949   .     S
Zn469  O1403   1.934   1_545 S
Zn470  O924    1.933   1_455 S
Zn471  O915    1.939   1_455 S
Zn472  O1407   1.938   1_545 S
Zn473  O1393   1.933   1_545 S
Zn474  O921    1.934   1_455 S
Zn475  O930    1.935   1_455 S
Zn476  O918    1.951   .     S
C477   H661    1.084   .     S
C477   C555    1.397   .     A
C477   C588    1.396   .     A
C478   C580    1.401   .     A
C478   H662    1.084   .     S
C479   C607    1.460   .     S
C479   C643    1.418   .     A
C479   C636    1.413   .     A
C480   C608    1.449   .     S
C480   C635    1.418   .     A
C480   C646    1.412   .     A
C481   C634    1.418   .     A
C481   C609    1.456   .     S
C481   C645    1.420   .     A
C482   C648    1.416   .     A
C482   C633    1.428   .     A
C482   C610    1.475   .     S
C483   C632    1.417   .     A
C483   C647    1.413   .     A
C483   C611    1.456   .     S
C484   C621    1.462   .     S
C484   C631    1.420   .     A
C484   C651    1.421   .     A
C485   C622    1.470   .     S
C485   C649    1.417   .     A
C485   C630    1.411   .     A
C486   C614    1.453   .     S
C486   C653    1.423   .     A
C486   C629    1.417   .     A
C487   C652    1.420   .     A
C487   C627    1.423   .     A
C487   C615    1.461   .     S
C488   C626    1.415   .     A
C488   C616    1.457   .     S
C488   C655    1.418   .     A
C489   C594    1.396   .     A
C489   H673    1.084   .     S
C489   C581    1.395   .     A
C490   C625    1.418   .     A
C490   C618    1.456   .     S
C490   C654    1.413   .     A
C491   C624    1.415   .     A
C491   C619    1.456   .     S
C491   C657    1.418   .     A
C492   C620    1.457   .     S
C492   C656    1.416   .     A
C492   C623    1.418   .     A
C493   C604    1.475   .     S
C493   C555    1.416   .     A
C493   C1527   1.413   1_545 S
C494   C566    1.414   .     A
C494   C603    1.471   .     S
C494   C1528   1.415   1_545 S
C495   C602    1.473   .     S
C495   C572    1.418   .     A
C496   C601    1.471   .     S
C496   C574    1.417   .     A
C497   C600    1.470   .     S
C497   C579    1.410   .     A
C498   C585    1.406   .     A
C498   C599    1.461   .     S
C498   C104    1.407   1_655 S
C499   C598    1.468   .     S
C499   C581    1.414   .     A
C499   C1538   1.413   .     S
C500   C582    1.390   .     A
C500   H684    1.084   .     S
C500   C1548   1.394   1_545 S
C501   C597    1.477   .     S
C501   C582    1.421   .     A
C501   C1539   1.418   1_545 S
C502   H773    1.102   .     S
C502   C503    1.532   .     S
C502   C623    1.534   .     S
C502   H783    1.111   .     S
C503   H761    1.110   .     S
C503   H739    1.111   .     S
C503   H750    1.106   .     S
C504   H787    1.109   .     S
C504   C505    1.528   .     S
C504   C624    1.531   .     S
C504   H788    1.105   .     S
C505   H786    1.110   .     S
C505   H785    1.109   .     S
C505   H784    1.110   .     S
C506   H794    1.110   .     S
C506   C507    1.532   .     S
C506   C625    1.535   .     S
C506   H793    1.102   .     S
C507   H790    1.107   .     S
C507   H791    1.110   .     S
C507   H789    1.111   .     S
C508   H799    1.108   .     S
C508   C509    1.529   .     S
C508   C626    1.529   .     S
C508   H798    1.108   .     S
C509   H797    1.110   .     S
C509   H796    1.108   .     S
C509   H795    1.110   .     S
C510   C512    1.529   .     S
C510   H805    1.108   .     S
C510   H804    1.102   .     S
C510   C627    1.535   .     S
C511   H695    1.084   .     S
C511   C583    1.401   .     A
C511   C116    1.400   1_655 S
C512   H801    1.109   .     S
C512   H800    1.108   .     S
C512   H802    1.111   .     S
C513   C514    1.525   .     S
C513   H809    1.105   .     S
C513   C629    1.542   .     S
C513   H810    1.103   .     S
C514   H806    1.111   .     S
C514   H807    1.106   .     S
C514   H808    1.111   .     S
C515   C630    1.533   .     S
C515   H815    1.103   .     S
C515   C516    1.532   .     S
C515   H816    1.107   .     S
C516   H811    1.109   .     S
C516   H812    1.111   .     S
C516   H813    1.109   .     S
C517   H820    1.106   .     S
C517   C518    1.528   .     S
C517   H821    1.104   .     S
C517   C631    1.533   .     S
C518   H817    1.111   .     S
C518   H818    1.109   .     S
C518   H819    1.111   .     S
C519   C520    1.531   .     S
C519   C632    1.530   .     S
C519   H826    1.110   .     S
C519   H827    1.109   .     S
C520   H823    1.108   .     S
C520   H822    1.109   .     S
C520   H824    1.110   .     S
C521   H832    1.112   .     S
C521   C523    1.532   .     S
C521   C633    1.528   .     S
C521   H831    1.111   .     S
C522   C593    1.402   .     A
C522   H706    1.084   .     S
C522   C585    1.400   .     A
C523   H829    1.111   .     S
C523   H828    1.109   .     S
C523   H830    1.110   .     S
C524   C634    1.527   .     S
C524   H838    1.110   .     S
C524   C525    1.533   .     S
C524   H837    1.107   .     S
C525   H833    1.110   .     S
C525   H835    1.109   .     S
C525   H834    1.110   .     S
C526   H843    1.108   .     S
C526   H842    1.104   .     S
C526   C527    1.529   .     S
C526   C635    1.538   .     S
C527   H840    1.111   .     S
C527   H841    1.111   .     S
C527   H839    1.105   .     S
C528   C636    1.528   .     S
C528   C529    1.529   .     S
C528   H849    1.107   .     S
C528   H848    1.107   .     S
C529   H846    1.109   .     S
C529   H844    1.110   .     S
C529   H845    1.111   .     S
C530   H853    1.106   .     S
C530   C531    1.527   .     S
C530   H854    1.108   .     S
C530   C637    1.533   .     S
C531   H852    1.110   .     S
C531   H850    1.106   .     S
C531   H851    1.111   .     S
C532   C638    1.526   .     S
C532   H859    1.109   .     S
C532   C534    1.524   .     S
C532   H860    1.108   .     S
C533   H717    1.084   .     S
C533   C586    1.395   .     A
C533   C1546   1.396   1_545 S
C534   H856    1.109   .     S
C534   H857    1.110   .     S
C534   H855    1.109   .     S
C535   C640    1.532   .     S
C535   C536    1.526   .     S
C535   H865    1.108   .     S
C535   H864    1.108   .     S
C536   H862    1.111   .     S
C536   H861    1.106   .     S
C536   H863    1.110   .     S
C537   H664    1.110   .     S
C537   C538    1.531   .     S
C537   H663    1.103   .     S
C537   C641    1.531   .     S
C538   H867    1.108   .     S
C538   H868    1.110   .     S
C538   H866    1.109   .     S
C539   C642    1.530   .     S
C539   H668    1.110   .     S
C539   H669    1.107   .     S
C539   C540    1.528   .     S
C540   H667    1.110   .     S
C540   H665    1.110   .     S
C540   H666    1.109   .     S
C541   H675    1.110   .     S
C541   H674    1.104   .     S
C541   C643    1.531   .     S
C541   C542    1.535   .     S
C542   H670    1.110   .     S
C542   H671    1.106   .     S
C542   H672    1.111   .     S
C543   C644    1.527   .     S
C543   H680    1.107   .     S
C543   C545    1.527   .     S
C543   H679    1.109   .     S
C544   C596    1.394   .     A
C544   H728    1.084   .     S
C544   C587    1.396   .     A
C545   H678    1.110   .     S
C545   H676    1.111   .     S
C545   H677    1.109   .     S
C546   C645    1.539   .     S
C546   H686    1.107   .     S
C546   C547    1.533   .     S
C546   H685    1.102   .     S
C547   H683    1.108   .     S
C547   H681    1.110   .     S
C547   H682    1.108   .     S
C548   H690    1.109   .     S
C548   C549    1.530   .     S
C548   H691    1.109   .     S
C548   C646    1.535   .     S
C549   H688    1.110   .     S
C549   H687    1.110   .     S
C549   H689    1.107   .     S
C550   H697    1.109   .     S
C550   C647    1.533   .     S
C550   H696    1.102   .     S
C550   C551    1.525   .     S
C551   H693    1.111   .     S
C551   H692    1.109   .     S
C551   H694    1.107   .     S
C552   C648    1.533   .     S
C552   H701    1.108   .     S
C552   H702    1.110   .     S
C552   C553    1.532   .     S
C553   H699    1.108   .     S
C553   H698    1.111   .     S
C553   H700    1.111   .     S
C554   H707    1.108   .     S
C554   C556    1.533   .     S
C554   H708    1.109   .     S
C554   C649    1.532   .     S
C555   N869    1.433   .     S
C556   H703    1.111   .     S
C556   H704    1.108   .     S
C556   H705    1.111   .     S
C557   C651    1.531   .     S
C557   C558    1.524   .     S
C557   H713    1.107   .     S
C557   H712    1.104   .     S
C558   H711    1.110   .     S
C558   H709    1.110   .     S
C558   H710    1.108   .     S
C559   C652    1.528   .     S
C559   C560    1.533   .     S
C559   H719    1.105   .     S
C559   H718    1.109   .     S
C560   H715    1.108   .     S
C560   H714    1.110   .     S
C560   H716    1.109   .     S
C561   H724    1.109   .     S
C561   C562    1.528   .     S
C561   H723    1.102   .     S
C561   C653    1.538   .     S
C562   H721    1.110   .     S
C562   H722    1.110   .     S
C562   H720    1.103   .     S
C563   H730    1.107   .     S
C563   C564    1.527   .     S
C563   C654    1.532   .     S
C563   H729    1.109   .     S
C564   H725    1.109   .     S
C564   H727    1.110   .     S
C564   H726    1.109   .     S
C565   H735    1.108   .     S
C565   C567    1.528   .     S
C565   H734    1.109   .     S
C565   C655    1.533   .     S
C566   N877    1.433   .     S
C566   C573    1.395   .     A
C567   H731    1.104   .     S
C567   H733    1.106   .     S
C567   H732    1.110   .     S
C568   C656    1.529   .     S
C568   H740    1.109   .     S
C568   H741    1.107   .     S
C568   C569    1.527   .     S
C569   H738    1.110   .     S
C569   H737    1.108   .     S
C569   H736    1.109   .     S
C570   H745    1.107   .     S
C570   C657    1.530   .     S
C570   C571    1.525   .     S
C570   H746    1.109   .     S
C571   H742    1.105   .     S
C571   H743    1.110   .     S
C571   H744    1.107   .     S
C572   N878    1.433   .     S
C572   C584    1.392   .     A
C573   H772    1.084   .     S
C573   C589    1.396   .     A
C574   C595    1.387   .     A
C574   N879    1.428   .     S
C575   N880    1.430   .     S
C575   C606    1.395   .     A
C575   C1445   1.413   .     S
C576   N881    1.434   .     S
C576   C617    1.396   .     A
C576   C1446   1.415   .     S
C577   C628    1.392   .     A
C577   N882    1.434   .     S
C577   C19     1.418   1_655 S
C578   C639    1.393   .     A
C578   N883    1.431   .     S
C578   C20     1.415   1_655 S
C579   C650    1.400   .     A
C579   N884    1.433   .     S
C580   N870    1.433   .     S
C581   N871    1.433   .     S
C582   N872    1.430   .     S
C583   N873    1.433   .     S
C583   C21     1.410   1_655 S
C584   C590    1.394   .     A
C584   H792    1.084   .     S
C585   N874    1.433   .     S
C586   N875    1.434   .     S
C586   C1451   1.413   1_545 S
C587   N876    1.433   .     S
C587   C1453   1.418   .     S
C588   C589    1.461   1_554 S
C588   C1558   1.395   1_545 S
C589   C588    1.461   1_556 S
C589   C1569   1.396   1_545 S
C590   C591    1.460   1_554 S
C591   C595    1.395   .     A
C591   C590    1.460   1_556 S
C592   C650    1.400   .     A
C593   C2      1.402   1_655 S
C593   C116    1.472   1_655 S
C594   C596    1.459   .     S
C594   C1485   1.396   .     S
C595   H803    1.084   .     S
C596   C1452   1.394   .     S
C597   O936    1.284   .     A
C597   O1881   1.283   1_545 S
C598   O886    1.280   .     A
C598   O1885   1.281   .     S
C599   O887    1.279   .     A
C599   O458    1.279   1_655 S
C600   O888    1.281   .     A
C601   O893    1.283   .     A
C601   O889    1.280   .     A
C602   O890    1.283   .     A
C602   O894    1.282   .     A
C603   O891    1.283   .     S
C603   O895    1.281   .     S
C604   O892    1.281   .     S
C604   O897    1.285   .     S
C605   O926    1.279   .     A
C605   C660    1.460   .     S
C605   O898    1.278   .     A
C606   H814    1.084   .     S
C606   C1540   1.395   .     S
C607   O927    1.283   .     A
C607   O899    1.273   .     A
C608   O924    1.271   .     A
C608   O900    1.274   .     A
C609   O925    1.276   .     A
C609   O901    1.274   .     A
C610   O902    1.291   .     A
C610   O931    1.275   .     A
C611   O903    1.278   .     A
C611   O932    1.275   .     A
C612   O928    1.279   .     A
C612   O904    1.281   .     A
C612   C658    1.457   .     S
C613   O930    1.279   .     A
C613   O905    1.281   .     A
C613   C659    1.457   .     S
C614   O906    1.274   .     A
C614   O917    1.274   .     A
C615   O919    1.277   .     A
C615   O908    1.276   .     A
C616   O909    1.278   .     A
C616   O915    1.277   .     A
C617   H825    1.084   .     S
C617   C1541   1.396   .     S
C618   O910    1.278   .     A
C618   O916    1.276   .     A
C619   O922    1.282   .     A
C619   O911    1.278   .     A
C620   O923    1.282   .     A
C620   O912    1.279   .     A
C621   O920    1.285   .     A
C621   O913    1.272   .     A
C622   O921    1.289   .     A
C622   O914    1.274   .     A
C623   C640    1.418   .     A
C624   C638    1.414   .     A
C625   C637    1.420   .     A
C626   C636    1.412   .     A
C627   C635    1.418   .     A
C628   H836    1.084   .     S
C628   C114    1.395   1_655 S
C629   C634    1.410   .     A
C630   C633    1.405   .     A
C631   C632    1.416   .     A
C637   C660    1.420   .     A
C638   C659    1.416   .     A
C639   H847    1.084   .     S
C639   C115    1.395   1_655 S
C640   C658    1.418   .     A
C641   C659    1.415   .     A
C641   C657    1.416   .     A
C642   C658    1.415   .     A
C642   C656    1.413   .     A
C643   C655    1.418   .     A
C644   C660    1.416   .     A
C644   C654    1.412   .     A
C645   C653    1.417   .     A
C646   C652    1.409   .     A
C647   C651    1.409   .     A
C648   C649    1.401   .     A
C650   H858    1.084   .     S
H747   N869    1.046   .     S
H748   N869    1.046   .     S
H749   N877    1.046   .     S
H751   N877    1.046   .     S
H752   N402    1.046   1_655 S
H753   N878    1.045   .     S
H754   N879    1.045   .     S
H755   N879    1.045   .     S
H756   N880    1.046   .     S
H757   N880    1.046   .     S
H758   N881    1.046   .     S
H759   N881    1.046   .     S
H762   N882    1.045   .     S
H763   N883    1.046   .     S
H764   N883    1.045   .     S
H765   N884    1.046   .     S
H766   N884    1.045   .     S
H767   N394    1.045   1_655 S
H768   N870    1.046   .     S
H769   N871    1.046   .     S
H770   N871    1.046   .     S
H771   N872    1.045   .     S
H774   N872    1.045   .     S
H775   N873    1.046   .     S
H776   N873    1.046   .     S
H778   N874    1.046   .     S
H779   N875    1.046   .     S
H780   N875    1.046   .     S
H781   N876    1.046   .     S
H782   N876    1.046   .     S
N874   H301    1.046   1_655 S
N882   H284    1.046   1_655 S
O885   Zn937   1.951   .     S
O885   Zn1896  1.949   1_545 S
O885   Zn948   1.940   .     S
O885   Zn940   1.941   .     S
O886   Zn939   1.944   .     S
O887   Zn942   1.945   .     S
O888   Zn941   1.945   .     S
O889   Zn951   1.940   .     S
O890   Zn950   1.940   .     S
O891   Zn945   1.940   .     S
O892   Zn937   1.940   .     S
O893   Zn947   1.944   .     S
O894   Zn946   1.944   .     S
O895   Zn949   1.945   .     S
O896   Zn943   1.949   .     S
O896   Zn1891  1.941   1_545 S
O896   Zn945   1.951   .     S
O896   Zn949   1.940   .     S
O897   Zn948   1.945   .     S
O898   Zn940   1.939   .     S
O899   Zn939   1.939   .     S
O900   Zn942   1.933   .     S
O901   Zn941   1.933   .     S
O902   Zn944   1.934   .     S
O903   Zn943   1.934   .     S
O904   Zn938   1.934   .     S
O905   Zn952   1.934   .     S
O906   Zn939   1.933   .     S
O907   Zn946   1.941   .     S
O907   Zn950   1.949   .     S
O907   Zn938   1.951   .     S
O908   Zn940   1.933   .     S
O909   Zn952   1.934   .     S
O910   Zn938   1.934   .     S
O911   Zn943   1.935   .     S
O912   Zn944   1.935   .     S
O913   Zn941   1.938   .     S
O914   Zn942   1.938   .     S
O915   Zn471   1.939   1_655 S
O916   Zn946   1.939   .     S
O917   Zn1901  1.933   .     S
O918   Zn941   1.940   .     S
O918   Zn947   1.941   .     S
O918   Zn951   1.949   .     S
O919   Zn948   1.933   .     S
O920   Zn951   1.934   .     S
O921   Zn474   1.934   1_655 S
O922   Zn945   1.934   .     S
O923   Zn1889  1.934   .     S
O924   Zn470   1.933   1_655 S
O925   Zn947   1.933   .     S
O926   Zn937   1.934   .     S
O927   Zn1897  1.934   .     S
O928   Zn950   1.935   .     S
O929   Zn944   1.940   .     S
O929   C1549   1.283   .     S
O930   Zn475   1.935   1_655 S
O931   Zn1900  1.938   .     S
O932   Zn949   1.938   .     S
O933   Zn943   1.940   .     S
O933   C1550   1.281   1_545 S
O934   Zn938   1.940   .     S
O935   Zn952   1.940   .     S
O935   C124    1.282   1_655 S
O936   Zn940   1.944   .     S
Zn937  O1875   1.934   1_545 S
Zn939  O1848   1.941   .     S
Zn942  O431    1.940   1_655 S
Zn944  O1837   1.949   .     S
Zn945  O1879   1.934   1_545 S
Zn948  O1883   1.938   1_545 S
Zn949  O1869   1.933   1_545 S
Zn952  O442    1.951   1_655 S
C953   H1137   1.084   .     S
C953   C1031   1.397   .     A
C953   C1064   1.396   .     A
C954   C1056   1.401   .     A
C954   H1138   1.084   .     S
C954   C1545   1.402   1_455 S
C955   C1083   1.460   .     S
C955   C1119   1.418   .     A
C955   C1112   1.413   .     A
C956   C1084   1.449   .     S
C956   C1111   1.418   .     A
C956   C1122   1.412   .     A
C957   C1110   1.418   .     A
C957   C1085   1.456   .     S
C957   C1121   1.420   .     A
C958   C1124   1.416   .     A
C958   C1109   1.428   .     A
C958   C1086   1.475   .     S
C959   C1108   1.417   .     A
C959   C1123   1.413   .     A
C959   C1087   1.456   .     S
C960   C1097   1.462   .     S
C960   C1107   1.420   .     A
C960   C1127   1.421   .     A
C961   C1098   1.470   .     S
C961   C1125   1.417   .     A
C961   C1106   1.411   .     A
C962   C1090   1.453   .     S
C962   C1129   1.423   .     A
C962   C1105   1.417   .     A
C963   C1128   1.420   .     A
C963   C1103   1.423   .     A
C963   C1091   1.461   .     S
C964   C1102   1.415   .     A
C964   C1092   1.457   .     S
C964   C1131   1.418   .     A
C965   C1070   1.396   .     A
C965   H1149   1.084   .     S
C965   C1057   1.395   .     A
C966   C1101   1.418   .     A
C966   C1094   1.456   .     S
C966   C1130   1.413   .     A
C967   C1100   1.415   .     A
C967   C1095   1.456   .     S
C967   C1133   1.418   .     A
C968   C1096   1.457   .     S
C968   C1132   1.416   .     A
C968   C1099   1.418   .     A
C969   C1080   1.475   .     S
C969   C1031   1.416   .     A
C970   C1042   1.414   .     A
C970   C1079   1.471   .     S
C971   C1078   1.473   .     S
C971   C1048   1.418   .     A
C971   C1529   1.418   1_455 S
C972   C1077   1.471   .     S
C972   C1050   1.417   .     A
C972   C1530   1.415   1_455 S
C973   C1076   1.470   .     S
C973   C1055   1.410   .     A
C973   C1535   1.410   1_455 S
C974   C1061   1.406   .     A
C974   C1075   1.461   .     S
C974   C1532   1.407   .     S
C975   C1074   1.468   .     S
C975   C1057   1.414   .     A
C975   C110    1.413   1_565 S
C976   C1058   1.390   .     A
C976   H1160   1.084   .     S
C977   C1073   1.477   .     S
C977   C1058   1.421   .     A
C978   H1249   1.102   .     S
C978   C979    1.532   .     S
C978   C1099   1.534   .     S
C978   H1259   1.111   .     S
C979   H1237   1.110   .     S
C979   H1215   1.111   .     S
C979   H1226   1.106   .     S
C980   H1263   1.109   .     S
C980   C981    1.528   .     S
C980   C1100   1.531   .     S
C980   H1264   1.105   .     S
C981   H1262   1.110   .     S
C981   H1261   1.109   .     S
C981   H1260   1.110   .     S
C982   H1270   1.110   .     S
C982   C983    1.532   .     S
C982   C1101   1.535   .     S
C982   H1269   1.102   .     S
C983   H1266   1.107   .     S
C983   H1267   1.110   .     S
C983   H1265   1.111   .     S
C984   H1275   1.108   .     S
C984   C985    1.529   .     S
C984   C1102   1.529   .     S
C984   H1274   1.108   .     S
C985   H1273   1.110   .     S
C985   H1272   1.108   .     S
C985   H1271   1.110   .     S
C986   C988    1.529   .     S
C986   H1281   1.108   .     S
C986   H1280   1.102   .     S
C986   C1103   1.535   .     S
C987   H1171   1.084   .     S
C987   C1059   1.401   .     A
C987   C1544   1.400   .     S
C988   H1277   1.109   .     S
C988   H1276   1.108   .     S
C988   H1278   1.111   .     S
C989   C990    1.525   .     S
C989   H1285   1.105   .     S
C989   C1105   1.542   .     S
C989   H1286   1.103   .     S
C990   H1282   1.111   .     S
C990   H1283   1.106   .     S
C990   H1284   1.111   .     S
C991   C1106   1.533   .     S
C991   H1291   1.103   .     S
C991   C992    1.532   .     S
C991   H1292   1.107   .     S
C992   H1287   1.109   .     S
C992   H1288   1.111   .     S
C992   H1289   1.109   .     S
C993   H1296   1.106   .     S
C993   C994    1.528   .     S
C993   H1297   1.104   .     S
C993   C1107   1.533   .     S
C994   H1293   1.111   .     S
C994   H1294   1.109   .     S
C994   H1295   1.111   .     S
C995   C996    1.531   .     S
C995   C1108   1.530   .     S
C995   H1302   1.110   .     S
C995   H1303   1.109   .     S
C996   H1299   1.108   .     S
C996   H1298   1.109   .     S
C996   H1300   1.110   .     S
C997   H1308   1.112   .     S
C997   C999    1.532   .     S
C997   C1109   1.528   .     S
C997   H1307   1.111   .     S
C998   C1069   1.402   .     A
C998   H1182   1.084   .     S
C998   C1061   1.400   .     A
C999   H1305   1.111   .     S
C999   H1304   1.109   .     S
C999   H1306   1.110   .     S
C1000  C1110   1.527   .     S
C1000  H1314   1.110   .     S
C1000  C1001   1.533   .     S
C1000  H1313   1.107   .     S
C1001  H1309   1.110   .     S
C1001  H1311   1.109   .     S
C1001  H1310   1.110   .     S
C1002  H1319   1.108   .     S
C1002  H1318   1.104   .     S
C1002  C1003   1.529   .     S
C1002  C1111   1.538   .     S
C1003  H1316   1.111   .     S
C1003  H1317   1.111   .     S
C1003  H1315   1.105   .     S
C1004  C1112   1.528   .     S
C1004  C1005   1.529   .     S
C1004  H1325   1.107   .     S
C1004  H1324   1.107   .     S
C1005  H1322   1.109   .     S
C1005  H1320   1.110   .     S
C1005  H1321   1.111   .     S
C1006  H1329   1.106   .     S
C1006  C1007   1.527   .     S
C1006  H1330   1.108   .     S
C1006  C1113   1.533   .     S
C1007  H1328   1.110   .     S
C1007  H1326   1.106   .     S
C1007  H1327   1.111   .     S
C1008  C1114   1.526   .     S
C1008  H1335   1.109   .     S
C1008  C1010   1.524   .     S
C1008  H1336   1.108   .     S
C1009  H1193   1.084   .     S
C1009  C1062   1.395   .     A
C1010  H1332   1.109   .     S
C1010  H1333   1.110   .     S
C1010  H1331   1.109   .     S
C1011  C1116   1.532   .     S
C1011  C1012   1.526   .     S
C1011  H1341   1.108   .     S
C1011  H1340   1.108   .     S
C1012  H1338   1.111   .     S
C1012  H1337   1.106   .     S
C1012  H1339   1.110   .     S
C1013  H1140   1.110   .     S
C1013  C1014   1.531   .     S
C1013  H1139   1.103   .     S
C1013  C1117   1.531   .     S
C1014  H1343   1.108   .     S
C1014  H1344   1.110   .     S
C1014  H1342   1.109   .     S
C1015  C1118   1.530   .     S
C1015  H1144   1.110   .     S
C1015  H1145   1.107   .     S
C1015  C1016   1.528   .     S
C1016  H1143   1.110   .     S
C1016  H1141   1.110   .     S
C1016  H1142   1.109   .     S
C1017  H1151   1.110   .     S
C1017  H1150   1.104   .     S
C1017  C1119   1.531   .     S
C1017  C1018   1.535   .     S
C1018  H1146   1.110   .     S
C1018  H1147   1.106   .     S
C1018  H1148   1.111   .     S
C1019  C1120   1.527   .     S
C1019  H1156   1.107   .     S
C1019  C1021   1.527   .     S
C1019  H1155   1.109   .     S
C1020  C1072   1.394   .     A
C1020  H1204   1.084   .     S
C1020  C1063   1.396   .     A
C1021  H1154   1.110   .     S
C1021  H1152   1.111   .     S
C1021  H1153   1.109   .     S
C1022  C1121   1.539   .     S
C1022  H1162   1.107   .     S
C1022  C1023   1.533   .     S
C1022  H1161   1.102   .     S
C1023  H1159   1.108   .     S
C1023  H1157   1.110   .     S
C1023  H1158   1.108   .     S
C1024  H1166   1.109   .     S
C1024  C1025   1.530   .     S
C1024  H1167   1.109   .     S
C1024  C1122   1.535   .     S
C1025  H1164   1.110   .     S
C1025  H1163   1.110   .     S
C1025  H1165   1.107   .     S
C1026  H1173   1.109   .     S
C1026  C1123   1.533   .     S
C1026  H1172   1.102   .     S
C1026  C1027   1.525   .     S
C1027  H1169   1.111   .     S
C1027  H1168   1.109   .     S
C1027  H1170   1.107   .     S
C1028  C1124   1.533   .     S
C1028  H1177   1.108   .     S
C1028  H1178   1.110   .     S
C1028  C1029   1.532   .     S
C1029  H1175   1.108   .     S
C1029  H1174   1.111   .     S
C1029  H1176   1.111   .     S
C1030  H1183   1.108   .     S
C1030  C1032   1.533   .     S
C1030  H1184   1.109   .     S
C1030  C1125   1.532   .     S
C1031  N1345   1.433   .     S
C1032  H1179   1.111   .     S
C1032  H1180   1.108   .     S
C1032  H1181   1.111   .     S
C1033  C1127   1.531   .     S
C1033  C1034   1.524   .     S
C1033  H1189   1.107   .     S
C1033  H1188   1.104   .     S
C1034  H1187   1.110   .     S
C1034  H1185   1.110   .     S
C1034  H1186   1.108   .     S
C1035  C1128   1.528   .     S
C1035  C1036   1.533   .     S
C1035  H1195   1.105   .     S
C1035  H1194   1.109   .     S
C1036  H1191   1.108   .     S
C1036  H1190   1.110   .     S
C1036  H1192   1.109   .     S
C1037  H1200   1.109   .     S
C1037  C1038   1.528   .     S
C1037  H1199   1.102   .     S
C1037  C1129   1.538   .     S
C1038  H1197   1.110   .     S
C1038  H1198   1.110   .     S
C1038  H1196   1.103   .     S
C1039  H1206   1.107   .     S
C1039  C1040   1.527   .     S
C1039  C1130   1.532   .     S
C1039  H1205   1.109   .     S
C1040  H1201   1.109   .     S
C1040  H1203   1.110   .     S
C1040  H1202   1.109   .     S
C1041  H1211   1.108   .     S
C1041  C1043   1.528   .     S
C1041  H1210   1.109   .     S
C1041  C1131   1.533   .     S
C1042  N1353   1.433   .     S
C1042  C1049   1.395   .     A
C1043  H1207   1.104   .     S
C1043  H1209   1.106   .     S
C1043  H1208   1.110   .     S
C1044  C1132   1.529   .     S
C1044  H1216   1.109   .     S
C1044  H1217   1.107   .     S
C1044  C1045   1.527   .     S
C1045  H1214   1.110   .     S
C1045  H1213   1.108   .     S
C1045  H1212   1.109   .     S
C1046  H1221   1.107   .     S
C1046  C1133   1.530   .     S
C1046  C1047   1.525   .     S
C1046  H1222   1.109   .     S
C1047  H1218   1.105   .     S
C1047  H1219   1.110   .     S
C1047  H1220   1.107   .     S
C1048  N1354   1.433   .     S
C1048  C1060   1.392   .     A
C1049  H1248   1.084   .     S
C1049  C1065   1.396   .     A
C1050  C1071   1.387   .     A
C1050  N1355   1.428   .     S
C1051  N1356   1.430   .     S
C1051  C1082   1.395   .     A
C1051  C17     1.413   1_565 S
C1052  N1357   1.434   .     S
C1052  C1093   1.396   .     A
C1052  C18     1.415   1_565 S
C1053  C1104   1.392   .     A
C1053  N1358   1.434   .     S
C1053  C1447   1.418   .     S
C1054  C1115   1.393   .     A
C1054  N1359   1.431   .     S
C1054  C1448   1.415   .     S
C1055  C1126   1.400   .     A
C1055  N1360   1.433   .     S
C1056  N1346   1.433   .     S
C1056  C1450   1.407   1_455 S
C1057  N1347   1.433   .     S
C1058  N1348   1.430   .     S
C1059  N1349   1.433   .     S
C1059  C1449   1.410   .     S
C1060  C1066   1.394   .     A
C1060  H1268   1.084   .     S
C1061  N1350   1.433   .     S
C1062  N1351   1.434   .     S
C1063  N1352   1.433   .     S
C1063  C25     1.418   1_565 S
C1064  C1065   1.461   1_554 S
C1065  C1064   1.461   1_556 S
C1066  C1067   1.460   1_554 S
C1066  C1580   1.395   1_455 S
C1067  C1071   1.395   .     A
C1067  C1066   1.460   1_556 S
C1067  C1591   1.395   1_455 S
C1068  C1126   1.400   .     A
C1068  C1463   1.400   1_455 S
C1068  C1545   1.472   1_455 S
C1069  C1430   1.402   .     S
C1069  C1544   1.472   .     S
C1070  C1072   1.459   .     S
C1070  C57     1.396   1_565 S
C1071  H1279   1.084   .     S
C1072  C24     1.394   1_565 S
C1073  O1412   1.284   .     A
C1074  O1362   1.280   .     A
C1074  O457    1.281   1_565 S
C1075  O1363   1.279   .     A
C1075  O1886   1.279   .     S
C1076  O1364   1.281   .     A
C1076  O1887   1.282   1_455 S
C1077  O1369   1.283   .     A
C1077  O1365   1.280   .     A
C1078  O1366   1.283   .     A
C1078  O1370   1.282   .     A
C1079  O1367   1.283   .     S
C1079  O1371   1.281   .     S
C1080  O1368   1.281   .     S
C1080  O1373   1.285   .     S
C1081  O1402   1.279   .     A
C1081  C1136   1.460   .     S
C1081  O1374   1.278   .     A
C1082  H1290   1.084   .     S
C1082  C112    1.395   1_565 S
C1083  O1403   1.283   .     A
C1083  O1375   1.273   .     A
C1084  O1400   1.271   .     A
C1084  O1376   1.274   .     A
C1085  O1401   1.276   .     A
C1085  O1377   1.274   .     A
C1086  O1378   1.291   .     A
C1086  O1407   1.275   .     A
C1087  O1379   1.278   .     A
C1087  O1408   1.275   .     A
C1088  O1404   1.279   .     A
C1088  O1380   1.281   .     A
C1088  C1134   1.457   .     S
C1089  O1406   1.279   .     A
C1089  O1381   1.281   .     A
C1089  C1135   1.457   .     S
C1090  O1382   1.274   .     A
C1090  O1393   1.274   .     A
C1091  O1395   1.277   .     A
C1091  O1384   1.276   .     A
C1092  O1385   1.278   .     A
C1092  O1391   1.277   .     A
C1093  H1301   1.084   .     S
C1093  C113    1.396   1_565 S
C1094  O1386   1.278   .     A
C1094  O1392   1.276   .     A
C1095  O1398   1.282   .     A
C1095  O1387   1.278   .     A
C1096  O1399   1.282   .     A
C1096  O1388   1.279   .     A
C1097  O1396   1.285   .     A
C1097  O1389   1.272   .     A
C1098  O1397   1.289   .     A
C1098  O1390   1.274   .     A
C1099  C1116   1.418   .     A
C1100  C1114   1.414   .     A
C1101  C1113   1.420   .     A
C1102  C1112   1.412   .     A
C1103  C1111   1.418   .     A
C1104  H1312   1.084   .     S
C1104  C1542   1.395   .     S
C1105  C1110   1.410   .     A
C1106  C1109   1.405   .     A
C1107  C1108   1.416   .     A
C1113  C1136   1.420   .     A
C1114  C1135   1.416   .     A
C1115  H1323   1.084   .     S
C1115  C1543   1.395   .     S
C1116  C1134   1.418   .     A
C1117  C1135   1.415   .     A
C1117  C1133   1.416   .     A
C1118  C1134   1.415   .     A
C1118  C1132   1.413   .     A
C1119  C1131   1.418   .     A
C1120  C1136   1.416   .     A
C1120  C1130   1.412   .     A
C1121  C1129   1.417   .     A
C1122  C1128   1.409   .     A
C1123  C1127   1.409   .     A
C1124  C1125   1.401   .     A
C1126  H1334   1.084   .     S
H1223  N1345   1.046   .     S
H1224  N1345   1.046   .     S
H1225  N1353   1.046   .     S
H1227  N1353   1.046   .     S
H1228  N1830   1.046   .     S
H1229  N1354   1.045   .     S
H1230  N1355   1.045   .     S
H1231  N1355   1.045   .     S
H1232  N1356   1.046   .     S
H1233  N1356   1.046   .     S
H1234  N1357   1.046   .     S
H1235  N1357   1.046   .     S
H1236  N1834   1.046   1_455 S
H1238  N1358   1.045   .     S
H1239  N1359   1.046   .     S
H1240  N1359   1.045   .     S
H1241  N1360   1.046   .     S
H1242  N1360   1.045   .     S
H1243  N1822   1.045   .     S
H1244  N1346   1.046   .     S
H1245  N1347   1.046   .     S
H1246  N1347   1.046   .     S
H1247  N1348   1.045   .     S
H1250  N1348   1.045   .     S
H1251  N1349   1.046   .     S
H1252  N1349   1.046   .     S
H1253  N1826   1.046   1_455 S
H1254  N1350   1.046   .     S
H1255  N1351   1.046   .     S
H1256  N1351   1.046   .     S
H1257  N1352   1.046   .     S
H1258  N1352   1.046   .     S
N1346  H1719   1.045   1_455 S
N1350  H1729   1.046   .     S
N1354  H1704   1.046   1_455 S
N1358  H1712   1.046   .     S
O1361  Zn1413  1.951   .     S
O1361  Zn1424  1.940   .     S
O1361  Zn1416  1.941   .     S
O1362  Zn1415  1.944   .     S
O1363  Zn1418  1.945   .     S
O1364  Zn1417  1.945   .     S
O1365  Zn1427  1.940   .     S
O1366  Zn1426  1.940   .     S
O1367  Zn1421  1.940   .     S
O1368  Zn1413  1.940   .     S
O1369  Zn1423  1.944   .     S
O1370  Zn1422  1.944   .     S
O1371  Zn1425  1.945   .     S
O1372  Zn1419  1.949   .     S
O1372  Zn1421  1.951   .     S
O1372  Zn1425  1.940   .     S
O1373  Zn1424  1.945   .     S
O1374  Zn1416  1.939   .     S
O1375  Zn1415  1.939   .     S
O1376  Zn1418  1.933   .     S
O1377  Zn1417  1.933   .     S
O1378  Zn1420  1.934   .     S
O1379  Zn1419  1.934   .     S
O1380  Zn1414  1.934   .     S
O1381  Zn1428  1.934   .     S
O1382  Zn1415  1.933   .     S
O1383  Zn1422  1.941   .     S
O1383  Zn1426  1.949   .     S
O1383  Zn1414  1.951   .     S
O1383  Zn1894  1.940   1_455 S
O1384  Zn1416  1.933   .     S
O1385  Zn1428  1.934   .     S
O1386  Zn1414  1.934   .     S
O1387  Zn1419  1.935   .     S
O1388  Zn1420  1.935   .     S
O1389  Zn1417  1.938   .     S
O1390  Zn1418  1.938   .     S
O1391  Zn1899  1.939   .     S
O1392  Zn1422  1.939   .     S
O1393  Zn473   1.933   1_565 S
O1394  Zn1417  1.940   .     S
O1394  Zn1423  1.941   .     S
O1394  Zn1427  1.949   .     S
O1394  Zn1904  1.951   1_455 S
O1395  Zn1424  1.933   .     S
O1396  Zn1427  1.934   .     S
O1397  Zn1902  1.934   .     S
O1398  Zn1421  1.934   .     S
O1399  Zn461   1.934   1_565 S
O1400  Zn1898  1.933   .     S
O1401  Zn1423  1.933   .     S
O1402  Zn1413  1.934   .     S
O1403  Zn469   1.934   1_565 S
O1404  Zn1426  1.935   .     S
O1405  Zn1420  1.940   .     S
O1405  C121    1.283   1_565 S
O1406  Zn1903  1.935   .     S
O1407  Zn472   1.938   1_565 S
O1408  Zn1425  1.938   .     S
O1409  Zn1419  1.940   .     S
O1410  Zn1414  1.940   .     S
O1410  C1551   1.279   1_455 S
O1411  Zn1428  1.940   .     S
O1411  C1552   1.282   .     S
O1412  Zn1416  1.944   .     S
Zn1415 O420    1.941   1_565 S
Zn1418 O1859   1.940   .     S
Zn1420 O409    1.949   1_565 S
Zn1422 O1876   1.933   1_455 S
Zn1423 O1867   1.939   1_455 S
Zn1426 O1873   1.934   1_455 S
Zn1427 O1882   1.935   1_455 S
Zn1428 O1870   1.951   .     S
C1429  H1613   1.084   .     S
C1429  C1507   1.397   .     A
C1429  C1540   1.396   .     A
C1430  C1532   1.401   .     A
C1430  H1614   1.084   .     S
C1431  C1559   1.460   .     S
C1431  C1595   1.418   .     A
C1431  C1588   1.413   .     A
C1432  C1560   1.449   .     S
C1432  C1587   1.418   .     A
C1432  C1598   1.412   .     A
C1433  C1586   1.418   .     A
C1433  C1561   1.456   .     S
C1433  C1597   1.420   .     A
C1434  C1600   1.416   .     A
C1434  C1585   1.428   .     A
C1434  C1562   1.475   .     S
C1435  C1584   1.417   .     A
C1435  C1599   1.413   .     A
C1435  C1563   1.456   .     S
C1436  C1573   1.462   .     S
C1436  C1583   1.420   .     A
C1436  C1603   1.421   .     A
C1437  C1574   1.470   .     S
C1437  C1601   1.417   .     A
C1437  C1582   1.411   .     A
C1438  C1566   1.453   .     S
C1438  C1605   1.423   .     A
C1438  C1581   1.417   .     A
C1439  C1604   1.420   .     A
C1439  C1579   1.423   .     A
C1439  C1567   1.461   .     S
C1440  C1578   1.415   .     A
C1440  C1568   1.457   .     S
C1440  C1607   1.418   .     A
C1441  C1546   1.396   .     A
C1441  H1625   1.084   .     S
C1441  C1533   1.395   .     A
C1442  C1577   1.418   .     A
C1442  C1570   1.456   .     S
C1442  C1606   1.413   .     A
C1443  C1576   1.415   .     A
C1443  C1571   1.456   .     S
C1443  C1609   1.418   .     A
C1444  C1572   1.457   .     S
C1444  C1608   1.416   .     A
C1444  C1575   1.418   .     A
C1445  C1556   1.475   .     S
C1445  C1507   1.416   .     A
C1446  C1518   1.414   .     A
C1446  C1555   1.471   .     S
C1447  C1554   1.473   .     S
C1447  C1524   1.418   .     A
C1448  C1553   1.471   .     S
C1448  C1526   1.417   .     A
C1449  C1552   1.470   .     S
C1449  C1531   1.410   .     A
C1450  C1537   1.406   .     A
C1450  C1551   1.461   .     S
C1450  C1056   1.407   1_655 S
C1451  C1550   1.468   .     S
C1451  C1533   1.414   .     A
C1451  C586    1.413   1_565 S
C1452  C1534   1.390   .     A
C1452  H1636   1.084   .     S
C1453  C1549   1.477   .     S
C1453  C1534   1.421   .     A
C1454  H1725   1.102   .     S
C1454  C1455   1.532   .     S
C1454  C1575   1.534   .     S
C1454  H1735   1.111   .     S
C1455  H1713   1.110   .     S
C1455  H1691   1.111   .     S
C1455  H1702   1.106   .     S
C1456  H1739   1.109   .     S
C1456  C1457   1.528   .     S
C1456  C1576   1.531   .     S
C1456  H1740   1.105   .     S
C1457  H1738   1.110   .     S
C1457  H1737   1.109   .     S
C1457  H1736   1.110   .     S
C1458  H1746   1.110   .     S
C1458  C1459   1.532   .     S
C1458  C1577   1.535   .     S
C1458  H1745   1.102   .     S
C1459  H1742   1.107   .     S
C1459  H1743   1.110   .     S
C1459  H1741   1.111   .     S
C1460  H1751   1.108   .     S
C1460  C1461   1.529   .     S
C1460  C1578   1.529   .     S
C1460  H1750   1.108   .     S
C1461  H1749   1.110   .     S
C1461  H1748   1.108   .     S
C1461  H1747   1.110   .     S
C1462  C1464   1.529   .     S
C1462  H1757   1.108   .     S
C1462  H1756   1.102   .     S
C1462  C1579   1.535   .     S
C1463  H1647   1.084   .     S
C1463  C1535   1.401   .     A
C1463  C1068   1.400   1_655 S
C1464  H1753   1.109   .     S
C1464  H1752   1.108   .     S
C1464  H1754   1.111   .     S
C1465  C1466   1.525   .     S
C1465  H1761   1.105   .     S
C1465  C1581   1.542   .     S
C1465  H1762   1.103   .     S
C1466  H1758   1.111   .     S
C1466  H1759   1.106   .     S
C1466  H1760   1.111   .     S
C1467  C1582   1.533   .     S
C1467  H1767   1.103   .     S
C1467  C1468   1.532   .     S
C1467  H1768   1.107   .     S
C1468  H1763   1.109   .     S
C1468  H1764   1.111   .     S
C1468  H1765   1.109   .     S
C1469  H1772   1.106   .     S
C1469  C1470   1.528   .     S
C1469  H1773   1.104   .     S
C1469  C1583   1.533   .     S
C1470  H1769   1.111   .     S
C1470  H1770   1.109   .     S
C1470  H1771   1.111   .     S
C1471  C1472   1.531   .     S
C1471  C1584   1.530   .     S
C1471  H1778   1.110   .     S
C1471  H1779   1.109   .     S
C1472  H1775   1.108   .     S
C1472  H1774   1.109   .     S
C1472  H1776   1.110   .     S
C1473  H1784   1.112   .     S
C1473  C1475   1.532   .     S
C1473  C1585   1.528   .     S
C1473  H1783   1.111   .     S
C1474  C1545   1.402   .     A
C1474  H1658   1.084   .     S
C1474  C1537   1.400   .     A
C1475  H1781   1.111   .     S
C1475  H1780   1.109   .     S
C1475  H1782   1.110   .     S
C1476  C1586   1.527   .     S
C1476  H1790   1.110   .     S
C1476  C1477   1.533   .     S
C1476  H1789   1.107   .     S
C1477  H1785   1.110   .     S
C1477  H1787   1.109   .     S
C1477  H1786   1.110   .     S
C1478  H1795   1.108   .     S
C1478  H1794   1.104   .     S
C1478  C1479   1.529   .     S
C1478  C1587   1.538   .     S
C1479  H1792   1.111   .     S
C1479  H1793   1.111   .     S
C1479  H1791   1.105   .     S
C1480  C1588   1.528   .     S
C1480  C1481   1.529   .     S
C1480  H1801   1.107   .     S
C1480  H1800   1.107   .     S
C1481  H1798   1.109   .     S
C1481  H1796   1.110   .     S
C1481  H1797   1.111   .     S
C1482  H1805   1.106   .     S
C1482  C1483   1.527   .     S
C1482  H1806   1.108   .     S
C1482  C1589   1.533   .     S
C1483  H1804   1.110   .     S
C1483  H1802   1.106   .     S
C1483  H1803   1.111   .     S
C1484  C1590   1.526   .     S
C1484  H1811   1.109   .     S
C1484  C1486   1.524   .     S
C1484  H1812   1.108   .     S
C1485  H1669   1.084   .     S
C1485  C1538   1.395   .     A
C1486  H1808   1.109   .     S
C1486  H1809   1.110   .     S
C1486  H1807   1.109   .     S
C1487  C1592   1.532   .     S
C1487  C1488   1.526   .     S
C1487  H1817   1.108   .     S
C1487  H1816   1.108   .     S
C1488  H1814   1.111   .     S
C1488  H1813   1.106   .     S
C1488  H1815   1.110   .     S
C1489  H1616   1.110   .     S
C1489  C1490   1.531   .     S
C1489  H1615   1.103   .     S
C1489  C1593   1.531   .     S
C1490  H1819   1.108   .     S
C1490  H1820   1.110   .     S
C1490  H1818   1.109   .     S
C1491  C1594   1.530   .     S
C1491  H1620   1.110   .     S
C1491  H1621   1.107   .     S
C1491  C1492   1.528   .     S
C1492  H1619   1.110   .     S
C1492  H1617   1.110   .     S
C1492  H1618   1.109   .     S
C1493  H1627   1.110   .     S
C1493  H1626   1.104   .     S
C1493  C1595   1.531   .     S
C1493  C1494   1.535   .     S
C1494  H1622   1.110   .     S
C1494  H1623   1.106   .     S
C1494  H1624   1.111   .     S
C1495  C1596   1.527   .     S
C1495  H1632   1.107   .     S
C1495  C1497   1.527   .     S
C1495  H1631   1.109   .     S
C1496  C1548   1.394   .     A
C1496  H1680   1.084   .     S
C1496  C1539   1.396   .     A
C1497  H1630   1.110   .     S
C1497  H1628   1.111   .     S
C1497  H1629   1.109   .     S
C1498  C1597   1.539   .     S
C1498  H1638   1.107   .     S
C1498  C1499   1.533   .     S
C1498  H1637   1.102   .     S
C1499  H1635   1.108   .     S
C1499  H1633   1.110   .     S
C1499  H1634   1.108   .     S
C1500  H1642   1.109   .     S
C1500  C1501   1.530   .     S
C1500  H1643   1.109   .     S
C1500  C1598   1.535   .     S
C1501  H1640   1.110   .     S
C1501  H1639   1.110   .     S
C1501  H1641   1.107   .     S
C1502  H1649   1.109   .     S
C1502  C1599   1.533   .     S
C1502  H1648   1.102   .     S
C1502  C1503   1.525   .     S
C1503  H1645   1.111   .     S
C1503  H1644   1.109   .     S
C1503  H1646   1.107   .     S
C1504  C1600   1.533   .     S
C1504  H1653   1.108   .     S
C1504  H1654   1.110   .     S
C1504  C1505   1.532   .     S
C1505  H1651   1.108   .     S
C1505  H1650   1.111   .     S
C1505  H1652   1.111   .     S
C1506  H1659   1.108   .     S
C1506  C1508   1.533   .     S
C1506  H1660   1.109   .     S
C1506  C1601   1.532   .     S
C1507  N1821   1.433   .     S
C1508  H1655   1.111   .     S
C1508  H1656   1.108   .     S
C1508  H1657   1.111   .     S
C1509  C1603   1.531   .     S
C1509  C1510   1.524   .     S
C1509  H1665   1.107   .     S
C1509  H1664   1.104   .     S
C1510  H1663   1.110   .     S
C1510  H1661   1.110   .     S
C1510  H1662   1.108   .     S
C1511  C1604   1.528   .     S
C1511  C1512   1.533   .     S
C1511  H1671   1.105   .     S
C1511  H1670   1.109   .     S
C1512  H1667   1.108   .     S
C1512  H1666   1.110   .     S
C1512  H1668   1.109   .     S
C1513  H1676   1.109   .     S
C1513  C1514   1.528   .     S
C1513  H1675   1.102   .     S
C1513  C1605   1.538   .     S
C1514  H1673   1.110   .     S
C1514  H1674   1.110   .     S
C1514  H1672   1.103   .     S
C1515  H1682   1.107   .     S
C1515  C1516   1.527   .     S
C1515  C1606   1.532   .     S
C1515  H1681   1.109   .     S
C1516  H1677   1.109   .     S
C1516  H1679   1.110   .     S
C1516  H1678   1.109   .     S
C1517  H1687   1.108   .     S
C1517  C1519   1.528   .     S
C1517  H1686   1.109   .     S
C1517  C1607   1.533   .     S
C1518  N1829   1.433   .     S
C1518  C1525   1.395   .     A
C1519  H1683   1.104   .     S
C1519  H1685   1.106   .     S
C1519  H1684   1.110   .     S
C1520  C1608   1.529   .     S
C1520  H1692   1.109   .     S
C1520  H1693   1.107   .     S
C1520  C1521   1.527   .     S
C1521  H1690   1.110   .     S
C1521  H1689   1.108   .     S
C1521  H1688   1.109   .     S
C1522  H1697   1.107   .     S
C1522  C1609   1.530   .     S
C1522  C1523   1.525   .     S
C1522  H1698   1.109   .     S
C1523  H1694   1.105   .     S
C1523  H1695   1.110   .     S
C1523  H1696   1.107   .     S
C1524  N1830   1.433   .     S
C1524  C1536   1.392   .     A
C1525  H1724   1.084   .     S
C1525  C1541   1.396   .     A
C1526  C1547   1.387   .     A
C1526  N1831   1.428   .     S
C1527  N1832   1.430   .     S
C1527  C1558   1.395   .     A
C1527  C493    1.413   1_565 S
C1528  N1833   1.434   .     S
C1528  C1569   1.396   .     A
C1528  C494    1.415   1_565 S
C1529  C1580   1.392   .     A
C1529  N1834   1.434   .     S
C1529  C971    1.418   1_655 S
C1530  C1591   1.393   .     A
C1530  N1835   1.431   .     S
C1530  C972    1.415   1_655 S
C1531  C1602   1.400   .     A
C1531  N1836   1.433   .     S
C1532  N1822   1.433   .     S
C1533  N1823   1.433   .     S
C1534  N1824   1.430   .     S
C1535  N1825   1.433   .     S
C1535  C973    1.410   1_655 S
C1536  C1542   1.394   .     A
C1536  H1744   1.084   .     S
C1537  N1826   1.433   .     S
C1538  N1827   1.434   .     S
C1539  N1828   1.433   .     S
C1539  C501    1.418   1_565 S
C1540  C1541   1.461   1_554 S
C1541  C1540   1.461   1_556 S
C1542  C1543   1.460   1_554 S
C1543  C1547   1.395   .     A
C1543  C1542   1.460   1_556 S
C1544  C1602   1.400   .     A
C1545  C954    1.402   1_655 S
C1545  C1068   1.472   1_655 S
C1546  C1548   1.459   .     S
C1546  C533    1.396   1_565 S
C1547  H1755   1.084   .     S
C1548  C500    1.394   1_565 S
C1549  O1888   1.284   .     A
C1550  O1838   1.280   .     A
C1550  O933    1.281   1_565 S
C1551  O1839   1.279   .     A
C1551  O1410   1.279   1_655 S
C1552  O1840   1.281   .     A
C1553  O1845   1.283   .     A
C1553  O1841   1.280   .     A
C1554  O1842   1.283   .     A
C1554  O1846   1.282   .     A
C1555  O1843   1.283   .     S
C1555  O1847   1.281   .     S
C1556  O1844   1.281   .     S
C1556  O1849   1.285   .     S
C1557  O1878   1.279   .     A
C1557  C1612   1.460   .     S
C1557  O1850   1.278   .     A
C1558  H1766   1.084   .     S
C1558  C588    1.395   1_565 S
C1559  O1879   1.283   .     A
C1559  O1851   1.273   .     A
C1560  O1876   1.271   .     A
C1560  O1852   1.274   .     A
C1561  O1877   1.276   .     A
C1561  O1853   1.274   .     A
C1562  O1854   1.291   .     A
C1562  O1883   1.275   .     A
C1563  O1855   1.278   .     A
C1563  O1884   1.275   .     A
C1564  O1880   1.279   .     A
C1564  O1856   1.281   .     A
C1564  C1610   1.457   .     S
C1565  O1882   1.279   .     A
C1565  O1857   1.281   .     A
C1565  C1611   1.457   .     S
C1566  O1858   1.274   .     A
C1566  O1869   1.274   .     A
C1567  O1871   1.277   .     A
C1567  O1860   1.276   .     A
C1568  O1861   1.278   .     A
C1568  O1867   1.277   .     A
C1569  H1777   1.084   .     S
C1569  C589    1.396   1_565 S
C1570  O1862   1.278   .     A
C1570  O1868   1.276   .     A
C1571  O1874   1.282   .     A
C1571  O1863   1.278   .     A
C1572  O1875   1.282   .     A
C1572  O1864   1.279   .     A
C1573  O1872   1.285   .     A
C1573  O1865   1.272   .     A
C1574  O1873   1.289   .     A
C1574  O1866   1.274   .     A
C1575  C1592   1.418   .     A
C1576  C1590   1.414   .     A
C1577  C1589   1.420   .     A
C1578  C1588   1.412   .     A
C1579  C1587   1.418   .     A
C1580  H1788   1.084   .     S
C1580  C1066   1.395   1_655 S
C1581  C1586   1.410   .     A
C1582  C1585   1.405   .     A
C1583  C1584   1.416   .     A
C1589  C1612   1.420   .     A
C1590  C1611   1.416   .     A
C1591  H1799   1.084   .     S
C1591  C1067   1.395   1_655 S
C1592  C1610   1.418   .     A
C1593  C1611   1.415   .     A
C1593  C1609   1.416   .     A
C1594  C1610   1.415   .     A
C1594  C1608   1.413   .     A
C1595  C1607   1.418   .     A
C1596  C1612   1.416   .     A
C1596  C1606   1.412   .     A
C1597  C1605   1.417   .     A
C1598  C1604   1.409   .     A
C1599  C1603   1.409   .     A
C1600  C1601   1.401   .     A
C1602  H1810   1.084   .     S
H1699  N1821   1.046   .     S
H1700  N1821   1.046   .     S
H1701  N1829   1.046   .     S
H1703  N1829   1.046   .     S
H1704  N1354   1.046   1_655 S
H1705  N1830   1.045   .     S
H1706  N1831   1.045   .     S
H1707  N1831   1.045   .     S
H1708  N1832   1.046   .     S
H1709  N1832   1.046   .     S
H1710  N1833   1.046   .     S
H1711  N1833   1.046   .     S
H1714  N1834   1.045   .     S
H1715  N1835   1.046   .     S
H1716  N1835   1.045   .     S
H1717  N1836   1.046   .     S
H1718  N1836   1.045   .     S
H1719  N1346   1.045   1_655 S
H1720  N1822   1.046   .     S
H1721  N1823   1.046   .     S
H1722  N1823   1.046   .     S
H1723  N1824   1.045   .     S
H1726  N1824   1.045   .     S
H1727  N1825   1.046   .     S
H1728  N1825   1.046   .     S
H1730  N1826   1.046   .     S
H1731  N1827   1.046   .     S
H1732  N1827   1.046   .     S
H1733  N1828   1.046   .     S
H1734  N1828   1.046   .     S
N1826  H1253   1.046   1_655 S
N1834  H1236   1.046   1_655 S
O1837  Zn1889  1.951   .     S
O1837  Zn1900  1.940   .     S
O1837  Zn1892  1.941   .     S
O1838  Zn1891  1.944   .     S
O1839  Zn1894  1.945   .     S
O1840  Zn1893  1.945   .     S
O1841  Zn1903  1.940   .     S
O1842  Zn1902  1.940   .     S
O1843  Zn1897  1.940   .     S
O1844  Zn1889  1.940   .     S
O1845  Zn1899  1.944   .     S
O1846  Zn1898  1.944   .     S
O1847  Zn1901  1.945   .     S
O1848  Zn1895  1.949   .     S
O1848  Zn1897  1.951   .     S
O1848  Zn1901  1.940   .     S
O1849  Zn1900  1.945   .     S
O1850  Zn1892  1.939   .     S
O1851  Zn1891  1.939   .     S
O1852  Zn1894  1.933   .     S
O1853  Zn1893  1.933   .     S
O1854  Zn1896  1.934   .     S
O1855  Zn1895  1.934   .     S
O1856  Zn1890  1.934   .     S
O1857  Zn1904  1.934   .     S
O1858  Zn1891  1.933   .     S
O1859  Zn1898  1.941   .     S
O1859  Zn1902  1.949   .     S
O1859  Zn1890  1.951   .     S
O1860  Zn1892  1.933   .     S
O1861  Zn1904  1.934   .     S
O1862  Zn1890  1.934   .     S
O1863  Zn1895  1.935   .     S
O1864  Zn1896  1.935   .     S
O1865  Zn1893  1.938   .     S
O1866  Zn1894  1.938   .     S
O1867  Zn1423  1.939   1_655 S
O1868  Zn1898  1.939   .     S
O1869  Zn949   1.933   1_565 S
O1870  Zn1893  1.940   .     S
O1870  Zn1899  1.941   .     S
O1870  Zn1903  1.949   .     S
O1871  Zn1900  1.933   .     S
O1872  Zn1903  1.934   .     S
O1873  Zn1426  1.934   1_655 S
O1874  Zn1897  1.934   .     S
O1875  Zn937   1.934   1_565 S
O1876  Zn1422  1.933   1_655 S
O1877  Zn1899  1.933   .     S
O1878  Zn1889  1.934   .     S
O1879  Zn945   1.934   1_565 S
O1880  Zn1902  1.935   .     S
O1881  Zn1896  1.940   .     S
O1881  C597    1.283   1_565 S
O1882  Zn1427  1.935   1_655 S
O1883  Zn948   1.938   1_565 S
O1884  Zn1901  1.938   .     S
O1885  Zn1895  1.940   .     S
O1886  Zn1890  1.940   .     S
O1887  Zn1904  1.940   .     S
O1887  C1076   1.282   1_655 S
O1888  Zn1892  1.944   .     S
Zn1891 O896    1.941   1_565 S
Zn1894 O1383   1.940   1_655 S
Zn1896 O885    1.949   1_565 S
Zn1904 O1394   1.951   1_655 S
