data_str_m1_o10_o18_pcu_sym.140
_audit_creation_date              2020-01-03
_audit_creation_method            'Materials Studio'
_symmetry_space_group_name_H-M    'P1'
_symmetry_Int_Tables_number       1
_symmetry_cell_setting            triclinic
loop_
_symmetry_equiv_pos_as_xyz
  x,y,z
_cell_length_a                    32.7319
_cell_length_b                    32.4636
_cell_length_c                    35.5205
_cell_angle_alpha                 98.3140
_cell_angle_beta                  72.8430
_cell_angle_gamma                 98.5063
loop_
_atom_site_label
_atom_site_type_symbol
_atom_site_fract_x
_atom_site_fract_y
_atom_site_fract_z
_atom_site_U_iso_or_equiv
_atom_site_adp_type
_atom_site_occupancy
Br1    Br    0.12939   0.29410   0.04042   0.00000  Uiso   1.00
Br2    Br    0.26477   0.05591   0.01262   0.00000  Uiso   1.00
Br3    Br    0.03334   0.19946   0.19235   0.00000  Uiso   1.00
Br4    Br    0.30640   0.13525   0.31160   0.00000  Uiso   1.00
Br5    Br    0.23004   0.01280   0.19845   0.00000  Uiso   1.00
Br6    Br    0.19617   0.03541   0.46350   0.00000  Uiso   1.00
C7     C     0.05276   0.16026   0.25856   0.00000  Uiso   1.00
C8     C     0.15658   0.11152   0.47254   0.00000  Uiso   1.00
C9     C     0.18294   0.09106   0.48768   0.00000  Uiso   1.00
C10    C     0.28102   0.17341   0.24131   0.00000  Uiso   1.00
C11    C     0.19478   0.10976   0.02235   0.00000  Uiso   1.00
C12    C     0.17601   0.14653   0.04267   0.00000  Uiso   1.00
C13    C     0.22127   0.09213   0.04002   0.00000  Uiso   1.00
C14    C     0.22048   0.10507   0.07952   0.00000  Uiso   1.00
C15    C     0.17474   0.15769   0.08277   0.00000  Uiso   1.00
C16    C     0.32681   0.17441   0.23717   0.00000  Uiso   1.00
C17    C     0.00759   0.15798   0.26334   0.00000  Uiso   1.00
C18    C     0.11800   0.23756   0.41966   0.00000  Uiso   1.00
C19    C     0.18140   0.32229   0.23788   0.00000  Uiso   1.00
C20    C     0.15176   0.01214   0.26198   0.00000  Uiso   1.00
C21    C     0.15537   0.05623   0.25939   0.00000  Uiso   1.00
C22    C     0.17695   0.27774   0.24133   0.00000  Uiso   1.00
C23    C     0.18842   0.14491   0.14391   0.00000  Uiso   1.00
C24    C     0.14636   0.18918   0.35626   0.00000  Uiso   1.00
C25    C     0.13817   0.20116   0.39966   0.00000  Uiso   1.00
C26    C     0.19573   0.13641   0.10119   0.00000  Uiso   1.00
C27    C     0.10562   0.24285   0.46170   0.00000  Uiso   1.00
C28    C     0.06756   0.26689   0.48490   0.00000  Uiso   1.00
C29    C     0.14930   0.17443   0.42170   0.00000  Uiso   1.00
C30    C     0.02673   0.25006   0.47242   0.00000  Uiso   1.00
C31    C     0.11287   0.27261   0.39739   0.00000  Uiso   1.00
C32    C     0.15640   0.29388   0.37486   0.00000  Uiso   1.00
C33    C     0.12615   0.08530   0.45020   0.00000  Uiso   1.00
C34    C     0.07906   0.09293   0.46938   0.00000  Uiso   1.00
C35    C     0.14109   0.18220   0.46298   0.00000  Uiso   1.00
C36    C     0.12471   0.22021   0.48192   0.00000  Uiso   1.00
C37    C     0.15263   0.15485   0.48521   0.00000  Uiso   1.00
C38    C     0.15854   0.17094   0.02263   0.00000  Uiso   1.00
C39    C     0.14926   0.21208   0.03810   0.00000  Uiso   1.00
C40    C     0.13154   0.23608   0.01898   0.00000  Uiso   1.00
H41    H     0.12421   0.33201   0.28396   0.00000  Uiso   1.00
H42    H     0.07546   0.30099   0.48231   0.00000  Uiso   1.00
H43    H     0.17575   0.30664   0.39571   0.00000  Uiso   1.00
H44    H     0.17500   0.27197   0.35144   0.00000  Uiso   1.00
H45    H     0.15123   0.32018   0.36057   0.00000  Uiso   1.00
H46    H     0.09212   0.26128   0.37755   0.00000  Uiso   1.00
H47    H     0.09636   0.29802   0.41769   0.00000  Uiso   1.00
H48    H     0.06989   0.08952   0.00157   0.00000  Uiso   1.00
H49    H     0.07325   0.12452   0.46517   0.00000  Uiso   1.00
H50    H     0.05797   0.06957   0.45546   0.00000  Uiso   1.00
H51    H     0.13550   0.08984   0.41844   0.00000  Uiso   1.00
H52    H     0.15536   0.18132   0.10103   0.00000  Uiso   1.00
H53    H     0.12638   0.05133   0.45046   0.00000  Uiso   1.00
H54    H     0.23889   0.09027   0.09356   0.00000  Uiso   1.00
H55    H     0.16794   0.14936   0.40591   0.00000  Uiso   1.00
H56    H     0.15758   0.22733   0.06434   0.00000  Uiso   1.00
H57    H     0.03005   0.25559   0.44155   0.00000  Uiso   1.00
H58    H     0.01921   0.21590   0.47508   0.00000  Uiso   1.00
H59    H     0.33260   0.26616   0.49213   0.00000  Uiso   1.00
H60    H     0.05880   0.26285   0.01687   0.00000  Uiso   1.00
O61    O     0.16667   0.16667   0.25000   0.00000  Uiso   1.00
O62    O     0.15693   0.12393   0.16625   0.00000  Uiso   1.00
O63    O     0.12687   0.20646   0.33749   0.00000  Uiso   1.00
O64    O     0.21088   0.17493   0.15877   0.00000  Uiso   1.00
O65    O     0.17198   0.16135   0.33749   0.00000  Uiso   1.00
O66    O     0.17849   0.08101   0.27821   0.00000  Uiso   1.00
O67    O     0.14581   0.26136   0.26767   0.00000  Uiso   1.00
O68    O     0.07452   0.13251   0.23607   0.00000  Uiso   1.00
O69    O     0.26785   0.19179   0.21805   0.00000  Uiso   1.00
O70    O     0.06990   0.18960   0.27820   0.00000  Uiso   1.00
O71    O     0.25440   0.15277   0.26767   0.00000  Uiso   1.00
O72    O     0.13800   0.06903   0.23607   0.00000  Uiso   1.00
O73    O     0.20437   0.25527   0.21805   0.00000  Uiso   1.00
Zn74   Zn    0.19244   0.14090   0.28278   0.00000  Uiso   1.00
Zn75   Zn    0.13459   0.12378   0.22258   0.00000  Uiso   1.00
Zn76   Zn    0.21166   0.19664   0.21188   0.00000  Uiso   1.00
Zn77   Zn    0.12798   0.20535   0.28277   0.00000  Uiso   1.00
Br78   Br    0.46272   0.29410   0.04042   0.00000  Uiso   1.00
Br79   Br    0.59810   0.05591   0.01262   0.00000  Uiso   1.00
Br80   Br    0.36667   0.19946   0.19235   0.00000  Uiso   1.00
Br81   Br    0.63973   0.13525   0.31160   0.00000  Uiso   1.00
Br82   Br    0.56338   0.01280   0.19845   0.00000  Uiso   1.00
Br83   Br    0.52951   0.03541   0.46350   0.00000  Uiso   1.00
C84    C     0.38609   0.16026   0.25856   0.00000  Uiso   1.00
C85    C     0.48991   0.11152   0.47254   0.00000  Uiso   1.00
C86    C     0.51627   0.09106   0.48768   0.00000  Uiso   1.00
C87    C     0.61435   0.17341   0.24131   0.00000  Uiso   1.00
C88    C     0.52811   0.10976   0.02235   0.00000  Uiso   1.00
C89    C     0.50935   0.14653   0.04267   0.00000  Uiso   1.00
C90    C     0.55460   0.09213   0.04002   0.00000  Uiso   1.00
C91    C     0.55382   0.10507   0.07952   0.00000  Uiso   1.00
C92    C     0.50807   0.15769   0.08277   0.00000  Uiso   1.00
C93    C     0.66014   0.17441   0.23717   0.00000  Uiso   1.00
C94    C     0.34092   0.15798   0.26334   0.00000  Uiso   1.00
C95    C     0.45133   0.23756   0.41966   0.00000  Uiso   1.00
C96    C     0.51473   0.32229   0.23788   0.00000  Uiso   1.00
C97    C     0.48509   0.01214   0.26198   0.00000  Uiso   1.00
C98    C     0.48871   0.05623   0.25939   0.00000  Uiso   1.00
C99    C     0.51029   0.27774   0.24133   0.00000  Uiso   1.00
C100   C     0.52176   0.14491   0.14391   0.00000  Uiso   1.00
C101   C     0.47969   0.18918   0.35626   0.00000  Uiso   1.00
C102   C     0.47150   0.20116   0.39966   0.00000  Uiso   1.00
C103   C     0.52907   0.13641   0.10119   0.00000  Uiso   1.00
C104   C     0.43895   0.24285   0.46170   0.00000  Uiso   1.00
C105   C     0.40090   0.26689   0.48490   0.00000  Uiso   1.00
C106   C     0.48263   0.17443   0.42170   0.00000  Uiso   1.00
C107   C     0.36006   0.25006   0.47242   0.00000  Uiso   1.00
C108   C     0.44620   0.27261   0.39739   0.00000  Uiso   1.00
C109   C     0.48973   0.29388   0.37486   0.00000  Uiso   1.00
C110   C     0.45948   0.08530   0.45020   0.00000  Uiso   1.00
C111   C     0.41239   0.09293   0.46938   0.00000  Uiso   1.00
C112   C     0.47442   0.18220   0.46298   0.00000  Uiso   1.00
C113   C     0.45804   0.22021   0.48192   0.00000  Uiso   1.00
C114   C     0.48596   0.15485   0.48521   0.00000  Uiso   1.00
C115   C     0.49187   0.17094   0.02263   0.00000  Uiso   1.00
C116   C     0.48260   0.21208   0.03810   0.00000  Uiso   1.00
C117   C     0.46488   0.23608   0.01898   0.00000  Uiso   1.00
H118   H     0.45755   0.33201   0.28396   0.00000  Uiso   1.00
H119   H     0.40879   0.30099   0.48231   0.00000  Uiso   1.00
H120   H     0.50908   0.30664   0.39571   0.00000  Uiso   1.00
H121   H     0.50833   0.27197   0.35144   0.00000  Uiso   1.00
H122   H     0.48456   0.32018   0.36057   0.00000  Uiso   1.00
H123   H     0.42546   0.26128   0.37755   0.00000  Uiso   1.00
H124   H     0.42970   0.29802   0.41769   0.00000  Uiso   1.00
H125   H     0.40322   0.08952   0.00157   0.00000  Uiso   1.00
H126   H     0.40659   0.12452   0.46517   0.00000  Uiso   1.00
H127   H     0.39131   0.06957   0.45546   0.00000  Uiso   1.00
H128   H     0.46883   0.08984   0.41844   0.00000  Uiso   1.00
H129   H     0.48869   0.18132   0.10103   0.00000  Uiso   1.00
H130   H     0.45972   0.05133   0.45046   0.00000  Uiso   1.00
H131   H     0.57222   0.09027   0.09356   0.00000  Uiso   1.00
H132   H     0.50127   0.14936   0.40591   0.00000  Uiso   1.00
H133   H     0.49092   0.22733   0.06434   0.00000  Uiso   1.00
H134   H     0.36338   0.25559   0.44155   0.00000  Uiso   1.00
H135   H     0.35255   0.21590   0.47508   0.00000  Uiso   1.00
H136   H     0.66593   0.26616   0.49213   0.00000  Uiso   1.00
H137   H     0.39213   0.26285   0.01687   0.00000  Uiso   1.00
O138   O     0.50000   0.16667   0.25000   0.00000  Uiso   1.00
O139   O     0.49027   0.12393   0.16625   0.00000  Uiso   1.00
O140   O     0.46020   0.20646   0.33749   0.00000  Uiso   1.00
O141   O     0.54421   0.17493   0.15877   0.00000  Uiso   1.00
O142   O     0.50532   0.16135   0.33749   0.00000  Uiso   1.00
O143   O     0.51182   0.08101   0.27821   0.00000  Uiso   1.00
O144   O     0.47914   0.26136   0.26767   0.00000  Uiso   1.00
O145   O     0.40785   0.13251   0.23607   0.00000  Uiso   1.00
O146   O     0.60119   0.19179   0.21805   0.00000  Uiso   1.00
O147   O     0.40323   0.18960   0.27820   0.00000  Uiso   1.00
O148   O     0.58773   0.15277   0.26767   0.00000  Uiso   1.00
O149   O     0.47133   0.06903   0.23607   0.00000  Uiso   1.00
O150   O     0.53771   0.25527   0.21805   0.00000  Uiso   1.00
Zn151  Zn    0.52577   0.14090   0.28278   0.00000  Uiso   1.00
Zn152  Zn    0.46792   0.12378   0.22258   0.00000  Uiso   1.00
Zn153  Zn    0.54500   0.19664   0.21188   0.00000  Uiso   1.00
Zn154  Zn    0.46131   0.20535   0.28277   0.00000  Uiso   1.00
Br155  Br    0.79605   0.29410   0.04042   0.00000  Uiso   1.00
Br156  Br    0.93143   0.05591   0.01262   0.00000  Uiso   1.00
Br157  Br    0.70001   0.19946   0.19235   0.00000  Uiso   1.00
Br158  Br    0.97306   0.13525   0.31160   0.00000  Uiso   1.00
Br159  Br    0.89671   0.01280   0.19845   0.00000  Uiso   1.00
Br160  Br    0.86284   0.03541   0.46350   0.00000  Uiso   1.00
C161   C     0.71943   0.16026   0.25856   0.00000  Uiso   1.00
C162   C     0.82324   0.11152   0.47254   0.00000  Uiso   1.00
C163   C     0.84960   0.09106   0.48768   0.00000  Uiso   1.00
C164   C     0.94768   0.17341   0.24131   0.00000  Uiso   1.00
C165   C     0.86144   0.10976   0.02235   0.00000  Uiso   1.00
C166   C     0.84268   0.14653   0.04267   0.00000  Uiso   1.00
C167   C     0.88793   0.09213   0.04002   0.00000  Uiso   1.00
C168   C     0.88715   0.10507   0.07952   0.00000  Uiso   1.00
C169   C     0.84141   0.15769   0.08277   0.00000  Uiso   1.00
C170   C     0.99348   0.17441   0.23717   0.00000  Uiso   1.00
C171   C     0.67426   0.15798   0.26334   0.00000  Uiso   1.00
C172   C     0.78467   0.23756   0.41966   0.00000  Uiso   1.00
C173   C     0.84806   0.32229   0.23788   0.00000  Uiso   1.00
C174   C     0.81842   0.01214   0.26198   0.00000  Uiso   1.00
C175   C     0.82204   0.05623   0.25939   0.00000  Uiso   1.00
C176   C     0.84362   0.27774   0.24133   0.00000  Uiso   1.00
C177   C     0.85509   0.14491   0.14391   0.00000  Uiso   1.00
C178   C     0.81302   0.18918   0.35626   0.00000  Uiso   1.00
C179   C     0.80483   0.20116   0.39966   0.00000  Uiso   1.00
C180   C     0.86240   0.13641   0.10119   0.00000  Uiso   1.00
C181   C     0.77228   0.24285   0.46170   0.00000  Uiso   1.00
C182   C     0.73423   0.26689   0.48490   0.00000  Uiso   1.00
C183   C     0.81596   0.17443   0.42170   0.00000  Uiso   1.00
C184   C     0.69340   0.25006   0.47242   0.00000  Uiso   1.00
C185   C     0.77954   0.27261   0.39739   0.00000  Uiso   1.00
C186   C     0.82306   0.29388   0.37486   0.00000  Uiso   1.00
C187   C     0.79281   0.08530   0.45020   0.00000  Uiso   1.00
C188   C     0.74572   0.09293   0.46938   0.00000  Uiso   1.00
C189   C     0.80776   0.18220   0.46298   0.00000  Uiso   1.00
C190   C     0.79138   0.22021   0.48192   0.00000  Uiso   1.00
C191   C     0.81929   0.15485   0.48521   0.00000  Uiso   1.00
C192   C     0.82521   0.17094   0.02263   0.00000  Uiso   1.00
C193   C     0.81593   0.21208   0.03810   0.00000  Uiso   1.00
C194   C     0.79821   0.23608   0.01898   0.00000  Uiso   1.00
H195   H     0.79088   0.33201   0.28396   0.00000  Uiso   1.00
H196   H     0.74212   0.30099   0.48231   0.00000  Uiso   1.00
H197   H     0.84242   0.30664   0.39571   0.00000  Uiso   1.00
H198   H     0.84167   0.27197   0.35144   0.00000  Uiso   1.00
H199   H     0.81789   0.32018   0.36057   0.00000  Uiso   1.00
H200   H     0.75879   0.26128   0.37755   0.00000  Uiso   1.00
H201   H     0.76303   0.29802   0.41769   0.00000  Uiso   1.00
H202   H     0.73655   0.08952   0.00157   0.00000  Uiso   1.00
H203   H     0.73992   0.12452   0.46517   0.00000  Uiso   1.00
H204   H     0.72464   0.06957   0.45546   0.00000  Uiso   1.00
H205   H     0.80217   0.08984   0.41844   0.00000  Uiso   1.00
H206   H     0.82203   0.18132   0.10103   0.00000  Uiso   1.00
H207   H     0.79305   0.05133   0.45046   0.00000  Uiso   1.00
H208   H     0.90555   0.09027   0.09356   0.00000  Uiso   1.00
H209   H     0.83461   0.14936   0.40591   0.00000  Uiso   1.00
H210   H     0.82425   0.22733   0.06434   0.00000  Uiso   1.00
H211   H     0.69671   0.25559   0.44155   0.00000  Uiso   1.00
H212   H     0.68588   0.21590   0.47508   0.00000  Uiso   1.00
H213   H     0.99926   0.26616   0.49213   0.00000  Uiso   1.00
H214   H     0.72547   0.26285   0.01687   0.00000  Uiso   1.00
O215   O     0.83333   0.16667   0.25000   0.00000  Uiso   1.00
O216   O     0.82360   0.12393   0.16625   0.00000  Uiso   1.00
O217   O     0.79354   0.20646   0.33749   0.00000  Uiso   1.00
O218   O     0.87755   0.17493   0.15877   0.00000  Uiso   1.00
O219   O     0.83865   0.16135   0.33749   0.00000  Uiso   1.00
O220   O     0.84515   0.08101   0.27821   0.00000  Uiso   1.00
O221   O     0.81247   0.26136   0.26767   0.00000  Uiso   1.00
O222   O     0.74119   0.13251   0.23607   0.00000  Uiso   1.00
O223   O     0.93452   0.19179   0.21805   0.00000  Uiso   1.00
O224   O     0.73656   0.18960   0.27820   0.00000  Uiso   1.00
O225   O     0.92106   0.15277   0.26767   0.00000  Uiso   1.00
O226   O     0.80467   0.06903   0.23607   0.00000  Uiso   1.00
O227   O     0.87104   0.25527   0.21805   0.00000  Uiso   1.00
Zn228  Zn    0.85910   0.14090   0.28278   0.00000  Uiso   1.00
Zn229  Zn    0.80125   0.12378   0.22258   0.00000  Uiso   1.00
Zn230  Zn    0.87833   0.19664   0.21188   0.00000  Uiso   1.00
Zn231  Zn    0.79465   0.20535   0.28277   0.00000  Uiso   1.00
Br232  Br    0.12939   0.62744   0.04042   0.00000  Uiso   1.00
Br233  Br    0.26477   0.38925   0.01262   0.00000  Uiso   1.00
Br234  Br    0.03334   0.53280   0.19235   0.00000  Uiso   1.00
Br235  Br    0.30640   0.46858   0.31160   0.00000  Uiso   1.00
Br236  Br    0.23004   0.34614   0.19845   0.00000  Uiso   1.00
Br237  Br    0.19617   0.36874   0.46350   0.00000  Uiso   1.00
C238   C     0.05276   0.49359   0.25856   0.00000  Uiso   1.00
C239   C     0.15658   0.44485   0.47254   0.00000  Uiso   1.00
C240   C     0.18294   0.42439   0.48768   0.00000  Uiso   1.00
C241   C     0.28102   0.50674   0.24131   0.00000  Uiso   1.00
C242   C     0.19478   0.44310   0.02235   0.00000  Uiso   1.00
C243   C     0.17601   0.47986   0.04267   0.00000  Uiso   1.00
C244   C     0.22127   0.42546   0.04002   0.00000  Uiso   1.00
C245   C     0.22048   0.43841   0.07952   0.00000  Uiso   1.00
C246   C     0.17474   0.49103   0.08277   0.00000  Uiso   1.00
C247   C     0.32681   0.50774   0.23717   0.00000  Uiso   1.00
C248   C     0.00759   0.49132   0.26334   0.00000  Uiso   1.00
C249   C     0.11800   0.57089   0.41966   0.00000  Uiso   1.00
C250   C     0.18140   0.65562   0.23788   0.00000  Uiso   1.00
C251   C     0.15176   0.34547   0.26198   0.00000  Uiso   1.00
C252   C     0.15537   0.38957   0.25939   0.00000  Uiso   1.00
C253   C     0.17695   0.61107   0.24133   0.00000  Uiso   1.00
C254   C     0.18842   0.47825   0.14391   0.00000  Uiso   1.00
C255   C     0.14636   0.52251   0.35626   0.00000  Uiso   1.00
C256   C     0.13817   0.53449   0.39966   0.00000  Uiso   1.00
C257   C     0.19573   0.46975   0.10119   0.00000  Uiso   1.00
C258   C     0.10562   0.57619   0.46170   0.00000  Uiso   1.00
C259   C     0.06756   0.60022   0.48490   0.00000  Uiso   1.00
C260   C     0.14930   0.50776   0.42170   0.00000  Uiso   1.00
C261   C     0.02673   0.58339   0.47242   0.00000  Uiso   1.00
C262   C     0.11287   0.60595   0.39739   0.00000  Uiso   1.00
C263   C     0.15640   0.62721   0.37486   0.00000  Uiso   1.00
C264   C     0.12615   0.41864   0.45020   0.00000  Uiso   1.00
C265   C     0.07906   0.42627   0.46938   0.00000  Uiso   1.00
C266   C     0.14109   0.51553   0.46298   0.00000  Uiso   1.00
C267   C     0.12471   0.55355   0.48192   0.00000  Uiso   1.00
C268   C     0.15263   0.48819   0.48521   0.00000  Uiso   1.00
C269   C     0.15854   0.50428   0.02263   0.00000  Uiso   1.00
C270   C     0.14926   0.54542   0.03810   0.00000  Uiso   1.00
C271   C     0.13154   0.56942   0.01898   0.00000  Uiso   1.00
H272   H     0.12421   0.66534   0.28396   0.00000  Uiso   1.00
H273   H     0.07546   0.63433   0.48231   0.00000  Uiso   1.00
H274   H     0.17575   0.63997   0.39571   0.00000  Uiso   1.00
H275   H     0.17500   0.60531   0.35144   0.00000  Uiso   1.00
H276   H     0.15123   0.65351   0.36057   0.00000  Uiso   1.00
H277   H     0.09212   0.59462   0.37755   0.00000  Uiso   1.00
H278   H     0.09636   0.63136   0.41769   0.00000  Uiso   1.00
H279   H     0.06989   0.42286   0.00157   0.00000  Uiso   1.00
H280   H     0.07325   0.45785   0.46517   0.00000  Uiso   1.00
H281   H     0.05797   0.40290   0.45546   0.00000  Uiso   1.00
H282   H     0.13550   0.42317   0.41844   0.00000  Uiso   1.00
H283   H     0.15536   0.51465   0.10103   0.00000  Uiso   1.00
H284   H     0.12638   0.38467   0.45046   0.00000  Uiso   1.00
H285   H     0.23889   0.42361   0.09356   0.00000  Uiso   1.00
H286   H     0.16794   0.48269   0.40591   0.00000  Uiso   1.00
H287   H     0.15758   0.56066   0.06434   0.00000  Uiso   1.00
H288   H     0.03005   0.58892   0.44155   0.00000  Uiso   1.00
H289   H     0.01921   0.54923   0.47508   0.00000  Uiso   1.00
H290   H     0.33260   0.59950   0.49213   0.00000  Uiso   1.00
H291   H     0.05880   0.59619   0.01687   0.00000  Uiso   1.00
O292   O     0.16667   0.50000   0.25000   0.00000  Uiso   1.00
O293   O     0.15693   0.45726   0.16625   0.00000  Uiso   1.00
O294   O     0.12687   0.53979   0.33749   0.00000  Uiso   1.00
O295   O     0.21088   0.50826   0.15877   0.00000  Uiso   1.00
O296   O     0.17198   0.49468   0.33749   0.00000  Uiso   1.00
O297   O     0.17849   0.41434   0.27821   0.00000  Uiso   1.00
O298   O     0.14581   0.59469   0.26767   0.00000  Uiso   1.00
O299   O     0.07452   0.46584   0.23607   0.00000  Uiso   1.00
O300   O     0.26785   0.52512   0.21805   0.00000  Uiso   1.00
O301   O     0.06990   0.52293   0.27820   0.00000  Uiso   1.00
O302   O     0.25440   0.48610   0.26767   0.00000  Uiso   1.00
O303   O     0.13800   0.40236   0.23607   0.00000  Uiso   1.00
O304   O     0.20437   0.58860   0.21805   0.00000  Uiso   1.00
Zn305  Zn    0.19244   0.47423   0.28278   0.00000  Uiso   1.00
Zn306  Zn    0.13459   0.45711   0.22258   0.00000  Uiso   1.00
Zn307  Zn    0.21166   0.52997   0.21188   0.00000  Uiso   1.00
Zn308  Zn    0.12798   0.53868   0.28277   0.00000  Uiso   1.00
Br309  Br    0.46272   0.62744   0.04042   0.00000  Uiso   1.00
Br310  Br    0.59810   0.38925   0.01262   0.00000  Uiso   1.00
Br311  Br    0.36667   0.53280   0.19235   0.00000  Uiso   1.00
Br312  Br    0.63973   0.46858   0.31160   0.00000  Uiso   1.00
Br313  Br    0.56338   0.34614   0.19845   0.00000  Uiso   1.00
Br314  Br    0.52951   0.36874   0.46350   0.00000  Uiso   1.00
C315   C     0.38609   0.49359   0.25856   0.00000  Uiso   1.00
C316   C     0.48991   0.44485   0.47254   0.00000  Uiso   1.00
C317   C     0.51627   0.42439   0.48768   0.00000  Uiso   1.00
C318   C     0.61435   0.50674   0.24131   0.00000  Uiso   1.00
C319   C     0.52811   0.44310   0.02235   0.00000  Uiso   1.00
C320   C     0.50935   0.47986   0.04267   0.00000  Uiso   1.00
C321   C     0.55460   0.42546   0.04002   0.00000  Uiso   1.00
C322   C     0.55382   0.43841   0.07952   0.00000  Uiso   1.00
C323   C     0.50807   0.49103   0.08277   0.00000  Uiso   1.00
C324   C     0.66014   0.50774   0.23717   0.00000  Uiso   1.00
C325   C     0.34092   0.49132   0.26334   0.00000  Uiso   1.00
C326   C     0.45133   0.57089   0.41966   0.00000  Uiso   1.00
C327   C     0.51473   0.65562   0.23788   0.00000  Uiso   1.00
C328   C     0.48509   0.34547   0.26198   0.00000  Uiso   1.00
C329   C     0.48871   0.38957   0.25939   0.00000  Uiso   1.00
C330   C     0.51029   0.61107   0.24133   0.00000  Uiso   1.00
C331   C     0.52176   0.47825   0.14391   0.00000  Uiso   1.00
C332   C     0.47969   0.52251   0.35626   0.00000  Uiso   1.00
C333   C     0.47150   0.53449   0.39966   0.00000  Uiso   1.00
C334   C     0.52907   0.46975   0.10119   0.00000  Uiso   1.00
C335   C     0.43895   0.57619   0.46170   0.00000  Uiso   1.00
C336   C     0.40090   0.60022   0.48490   0.00000  Uiso   1.00
C337   C     0.48263   0.50776   0.42170   0.00000  Uiso   1.00
C338   C     0.36006   0.58339   0.47242   0.00000  Uiso   1.00
C339   C     0.44620   0.60595   0.39739   0.00000  Uiso   1.00
C340   C     0.48973   0.62721   0.37486   0.00000  Uiso   1.00
C341   C     0.45948   0.41864   0.45020   0.00000  Uiso   1.00
C342   C     0.41239   0.42627   0.46938   0.00000  Uiso   1.00
C343   C     0.47442   0.51553   0.46298   0.00000  Uiso   1.00
C344   C     0.45804   0.55355   0.48192   0.00000  Uiso   1.00
C345   C     0.48596   0.48819   0.48521   0.00000  Uiso   1.00
C346   C     0.49187   0.50428   0.02263   0.00000  Uiso   1.00
C347   C     0.48260   0.54542   0.03810   0.00000  Uiso   1.00
C348   C     0.46488   0.56942   0.01898   0.00000  Uiso   1.00
H349   H     0.45755   0.66534   0.28396   0.00000  Uiso   1.00
H350   H     0.40879   0.63433   0.48231   0.00000  Uiso   1.00
H351   H     0.50908   0.63997   0.39571   0.00000  Uiso   1.00
H352   H     0.50833   0.60531   0.35144   0.00000  Uiso   1.00
H353   H     0.48456   0.65351   0.36057   0.00000  Uiso   1.00
H354   H     0.42546   0.59462   0.37755   0.00000  Uiso   1.00
H355   H     0.42970   0.63136   0.41769   0.00000  Uiso   1.00
H356   H     0.40322   0.42286   0.00157   0.00000  Uiso   1.00
H357   H     0.40659   0.45785   0.46517   0.00000  Uiso   1.00
H358   H     0.39131   0.40290   0.45546   0.00000  Uiso   1.00
H359   H     0.46883   0.42317   0.41844   0.00000  Uiso   1.00
H360   H     0.48869   0.51465   0.10103   0.00000  Uiso   1.00
H361   H     0.45972   0.38467   0.45046   0.00000  Uiso   1.00
H362   H     0.57222   0.42361   0.09356   0.00000  Uiso   1.00
H363   H     0.50127   0.48269   0.40591   0.00000  Uiso   1.00
H364   H     0.49092   0.56066   0.06434   0.00000  Uiso   1.00
H365   H     0.36338   0.58892   0.44155   0.00000  Uiso   1.00
H366   H     0.35255   0.54923   0.47508   0.00000  Uiso   1.00
H367   H     0.66593   0.59950   0.49213   0.00000  Uiso   1.00
H368   H     0.39213   0.59619   0.01687   0.00000  Uiso   1.00
O369   O     0.50000   0.50000   0.25000   0.00000  Uiso   1.00
O370   O     0.49027   0.45726   0.16625   0.00000  Uiso   1.00
O371   O     0.46020   0.53979   0.33749   0.00000  Uiso   1.00
O372   O     0.54421   0.50826   0.15877   0.00000  Uiso   1.00
O373   O     0.50532   0.49468   0.33749   0.00000  Uiso   1.00
O374   O     0.51182   0.41434   0.27821   0.00000  Uiso   1.00
O375   O     0.47914   0.59469   0.26767   0.00000  Uiso   1.00
O376   O     0.40785   0.46584   0.23607   0.00000  Uiso   1.00
O377   O     0.60119   0.52512   0.21805   0.00000  Uiso   1.00
O378   O     0.40323   0.52293   0.27820   0.00000  Uiso   1.00
O379   O     0.58773   0.48610   0.26767   0.00000  Uiso   1.00
O380   O     0.47133   0.40236   0.23607   0.00000  Uiso   1.00
O381   O     0.53771   0.58860   0.21805   0.00000  Uiso   1.00
Zn382  Zn    0.52577   0.47423   0.28278   0.00000  Uiso   1.00
Zn383  Zn    0.46792   0.45711   0.22258   0.00000  Uiso   1.00
Zn384  Zn    0.54500   0.52997   0.21188   0.00000  Uiso   1.00
Zn385  Zn    0.46131   0.53868   0.28277   0.00000  Uiso   1.00
Br386  Br    0.79605   0.62744   0.04042   0.00000  Uiso   1.00
Br387  Br    0.93143   0.38925   0.01262   0.00000  Uiso   1.00
Br388  Br    0.70001   0.53280   0.19235   0.00000  Uiso   1.00
Br389  Br    0.97306   0.46858   0.31160   0.00000  Uiso   1.00
Br390  Br    0.89671   0.34614   0.19845   0.00000  Uiso   1.00
Br391  Br    0.86284   0.36874   0.46350   0.00000  Uiso   1.00
C392   C     0.71943   0.49359   0.25856   0.00000  Uiso   1.00
C393   C     0.82324   0.44485   0.47254   0.00000  Uiso   1.00
C394   C     0.84960   0.42439   0.48768   0.00000  Uiso   1.00
C395   C     0.94768   0.50674   0.24131   0.00000  Uiso   1.00
C396   C     0.86144   0.44310   0.02235   0.00000  Uiso   1.00
C397   C     0.84268   0.47986   0.04267   0.00000  Uiso   1.00
C398   C     0.88793   0.42546   0.04002   0.00000  Uiso   1.00
C399   C     0.88715   0.43841   0.07952   0.00000  Uiso   1.00
C400   C     0.84141   0.49103   0.08277   0.00000  Uiso   1.00
C401   C     0.99348   0.50774   0.23717   0.00000  Uiso   1.00
C402   C     0.67426   0.49132   0.26334   0.00000  Uiso   1.00
C403   C     0.78467   0.57089   0.41966   0.00000  Uiso   1.00
C404   C     0.84806   0.65562   0.23788   0.00000  Uiso   1.00
C405   C     0.81842   0.34547   0.26198   0.00000  Uiso   1.00
C406   C     0.82204   0.38957   0.25939   0.00000  Uiso   1.00
C407   C     0.84362   0.61107   0.24133   0.00000  Uiso   1.00
C408   C     0.85509   0.47825   0.14391   0.00000  Uiso   1.00
C409   C     0.81302   0.52251   0.35626   0.00000  Uiso   1.00
C410   C     0.80483   0.53449   0.39966   0.00000  Uiso   1.00
C411   C     0.86240   0.46975   0.10119   0.00000  Uiso   1.00
C412   C     0.77228   0.57619   0.46170   0.00000  Uiso   1.00
C413   C     0.73423   0.60022   0.48490   0.00000  Uiso   1.00
C414   C     0.81596   0.50776   0.42170   0.00000  Uiso   1.00
C415   C     0.69340   0.58339   0.47242   0.00000  Uiso   1.00
C416   C     0.77954   0.60595   0.39739   0.00000  Uiso   1.00
C417   C     0.82306   0.62721   0.37486   0.00000  Uiso   1.00
C418   C     0.79281   0.41864   0.45020   0.00000  Uiso   1.00
C419   C     0.74572   0.42627   0.46938   0.00000  Uiso   1.00
C420   C     0.80776   0.51553   0.46298   0.00000  Uiso   1.00
C421   C     0.79138   0.55355   0.48192   0.00000  Uiso   1.00
C422   C     0.81929   0.48819   0.48521   0.00000  Uiso   1.00
C423   C     0.82521   0.50428   0.02263   0.00000  Uiso   1.00
C424   C     0.81593   0.54542   0.03810   0.00000  Uiso   1.00
C425   C     0.79821   0.56942   0.01898   0.00000  Uiso   1.00
H426   H     0.79088   0.66534   0.28396   0.00000  Uiso   1.00
H427   H     0.74212   0.63433   0.48231   0.00000  Uiso   1.00
H428   H     0.84242   0.63997   0.39571   0.00000  Uiso   1.00
H429   H     0.84167   0.60531   0.35144   0.00000  Uiso   1.00
H430   H     0.81789   0.65351   0.36057   0.00000  Uiso   1.00
H431   H     0.75879   0.59462   0.37755   0.00000  Uiso   1.00
H432   H     0.76303   0.63136   0.41769   0.00000  Uiso   1.00
H433   H     0.73655   0.42286   0.00157   0.00000  Uiso   1.00
H434   H     0.73992   0.45785   0.46517   0.00000  Uiso   1.00
H435   H     0.72464   0.40290   0.45546   0.00000  Uiso   1.00
H436   H     0.80217   0.42317   0.41844   0.00000  Uiso   1.00
H437   H     0.82203   0.51465   0.10103   0.00000  Uiso   1.00
H438   H     0.79305   0.38467   0.45046   0.00000  Uiso   1.00
H439   H     0.90555   0.42361   0.09356   0.00000  Uiso   1.00
H440   H     0.83461   0.48269   0.40591   0.00000  Uiso   1.00
H441   H     0.82425   0.56066   0.06434   0.00000  Uiso   1.00
H442   H     0.69671   0.58892   0.44155   0.00000  Uiso   1.00
H443   H     0.68588   0.54923   0.47508   0.00000  Uiso   1.00
H444   H     0.99926   0.59950   0.49213   0.00000  Uiso   1.00
H445   H     0.72547   0.59619   0.01687   0.00000  Uiso   1.00
O446   O     0.83333   0.50000   0.25000   0.00000  Uiso   1.00
O447   O     0.82360   0.45726   0.16625   0.00000  Uiso   1.00
O448   O     0.79354   0.53979   0.33749   0.00000  Uiso   1.00
O449   O     0.87755   0.50826   0.15877   0.00000  Uiso   1.00
O450   O     0.83865   0.49468   0.33749   0.00000  Uiso   1.00
O451   O     0.84515   0.41434   0.27821   0.00000  Uiso   1.00
O452   O     0.81247   0.59469   0.26767   0.00000  Uiso   1.00
O453   O     0.74119   0.46584   0.23607   0.00000  Uiso   1.00
O454   O     0.93452   0.52512   0.21805   0.00000  Uiso   1.00
O455   O     0.73656   0.52293   0.27820   0.00000  Uiso   1.00
O456   O     0.92106   0.48610   0.26767   0.00000  Uiso   1.00
O457   O     0.80467   0.40236   0.23607   0.00000  Uiso   1.00
O458   O     0.87104   0.58860   0.21805   0.00000  Uiso   1.00
Zn459  Zn    0.85910   0.47423   0.28278   0.00000  Uiso   1.00
Zn460  Zn    0.80125   0.45711   0.22258   0.00000  Uiso   1.00
Zn461  Zn    0.87833   0.52997   0.21188   0.00000  Uiso   1.00
Zn462  Zn    0.79465   0.53868   0.28277   0.00000  Uiso   1.00
Br463  Br    0.12939   0.96077   0.04042   0.00000  Uiso   1.00
Br464  Br    0.26477   0.72258   0.01262   0.00000  Uiso   1.00
Br465  Br    0.03334   0.86613   0.19235   0.00000  Uiso   1.00
Br466  Br    0.30640   0.80192   0.31160   0.00000  Uiso   1.00
Br467  Br    0.23004   0.67947   0.19845   0.00000  Uiso   1.00
Br468  Br    0.19617   0.70207   0.46350   0.00000  Uiso   1.00
C469   C     0.05276   0.82693   0.25856   0.00000  Uiso   1.00
C470   C     0.15658   0.77819   0.47254   0.00000  Uiso   1.00
C471   C     0.18294   0.75772   0.48768   0.00000  Uiso   1.00
C472   C     0.28102   0.84008   0.24131   0.00000  Uiso   1.00
C473   C     0.19478   0.77643   0.02235   0.00000  Uiso   1.00
C474   C     0.17601   0.81320   0.04267   0.00000  Uiso   1.00
C475   C     0.22127   0.75879   0.04002   0.00000  Uiso   1.00
C476   C     0.22048   0.77174   0.07952   0.00000  Uiso   1.00
C477   C     0.17474   0.82436   0.08277   0.00000  Uiso   1.00
C478   C     0.32681   0.84108   0.23717   0.00000  Uiso   1.00
C479   C     0.00759   0.82465   0.26334   0.00000  Uiso   1.00
C480   C     0.11800   0.90422   0.41966   0.00000  Uiso   1.00
C481   C     0.18140   0.98896   0.23788   0.00000  Uiso   1.00
C482   C     0.15176   0.67880   0.26198   0.00000  Uiso   1.00
C483   C     0.15537   0.72290   0.25939   0.00000  Uiso   1.00
C484   C     0.17695   0.94440   0.24133   0.00000  Uiso   1.00
C485   C     0.18842   0.81158   0.14391   0.00000  Uiso   1.00
C486   C     0.14636   0.85584   0.35626   0.00000  Uiso   1.00
C487   C     0.13817   0.86783   0.39966   0.00000  Uiso   1.00
C488   C     0.19573   0.80308   0.10119   0.00000  Uiso   1.00
C489   C     0.10562   0.90952   0.46170   0.00000  Uiso   1.00
C490   C     0.06756   0.93355   0.48490   0.00000  Uiso   1.00
C491   C     0.14930   0.84109   0.42170   0.00000  Uiso   1.00
C492   C     0.02673   0.91672   0.47242   0.00000  Uiso   1.00
C493   C     0.11287   0.93928   0.39739   0.00000  Uiso   1.00
C494   C     0.15640   0.96055   0.37486   0.00000  Uiso   1.00
C495   C     0.12615   0.75197   0.45020   0.00000  Uiso   1.00
C496   C     0.07906   0.75960   0.46938   0.00000  Uiso   1.00
C497   C     0.14109   0.84886   0.46298   0.00000  Uiso   1.00
C498   C     0.12471   0.88688   0.48192   0.00000  Uiso   1.00
C499   C     0.15263   0.82152   0.48521   0.00000  Uiso   1.00
C500   C     0.15854   0.83761   0.02263   0.00000  Uiso   1.00
C501   C     0.14926   0.87875   0.03810   0.00000  Uiso   1.00
C502   C     0.13154   0.90275   0.01898   0.00000  Uiso   1.00
H503   H     0.12421   0.99867   0.28396   0.00000  Uiso   1.00
H504   H     0.07546   0.96766   0.48231   0.00000  Uiso   1.00
H505   H     0.17575   0.97331   0.39571   0.00000  Uiso   1.00
H506   H     0.17500   0.93864   0.35144   0.00000  Uiso   1.00
H507   H     0.15123   0.98685   0.36057   0.00000  Uiso   1.00
H508   H     0.09212   0.92795   0.37755   0.00000  Uiso   1.00
H509   H     0.09636   0.96469   0.41769   0.00000  Uiso   1.00
H510   H     0.06989   0.75619   0.00157   0.00000  Uiso   1.00
H511   H     0.07325   0.79118   0.46517   0.00000  Uiso   1.00
H512   H     0.05797   0.73623   0.45546   0.00000  Uiso   1.00
H513   H     0.13550   0.75650   0.41844   0.00000  Uiso   1.00
H514   H     0.15536   0.84798   0.10103   0.00000  Uiso   1.00
H515   H     0.12638   0.71800   0.45046   0.00000  Uiso   1.00
H516   H     0.23889   0.75694   0.09356   0.00000  Uiso   1.00
H517   H     0.16794   0.81603   0.40591   0.00000  Uiso   1.00
H518   H     0.15758   0.89400   0.06434   0.00000  Uiso   1.00
H519   H     0.03005   0.92226   0.44155   0.00000  Uiso   1.00
H520   H     0.01921   0.88257   0.47508   0.00000  Uiso   1.00
H521   H     0.33260   0.93283   0.49213   0.00000  Uiso   1.00
H522   H     0.05880   0.92952   0.01687   0.00000  Uiso   1.00
O523   O     0.16667   0.83333   0.25000   0.00000  Uiso   1.00
O524   O     0.15693   0.79060   0.16625   0.00000  Uiso   1.00
O525   O     0.12687   0.87313   0.33749   0.00000  Uiso   1.00
O526   O     0.21088   0.84159   0.15877   0.00000  Uiso   1.00
O527   O     0.17198   0.82802   0.33749   0.00000  Uiso   1.00
O528   O     0.17849   0.74768   0.27821   0.00000  Uiso   1.00
O529   O     0.14581   0.92803   0.26767   0.00000  Uiso   1.00
O530   O     0.07452   0.79917   0.23607   0.00000  Uiso   1.00
O531   O     0.26785   0.85845   0.21805   0.00000  Uiso   1.00
O532   O     0.06990   0.85627   0.27820   0.00000  Uiso   1.00
O533   O     0.25440   0.81944   0.26767   0.00000  Uiso   1.00
O534   O     0.13800   0.73570   0.23607   0.00000  Uiso   1.00
O535   O     0.20437   0.92193   0.21805   0.00000  Uiso   1.00
Zn536  Zn    0.19244   0.80756   0.28278   0.00000  Uiso   1.00
Zn537  Zn    0.13459   0.79044   0.22258   0.00000  Uiso   1.00
Zn538  Zn    0.21166   0.86331   0.21188   0.00000  Uiso   1.00
Zn539  Zn    0.12798   0.87202   0.28277   0.00000  Uiso   1.00
Br540  Br    0.46272   0.96077   0.04042   0.00000  Uiso   1.00
Br541  Br    0.59810   0.72258   0.01262   0.00000  Uiso   1.00
Br542  Br    0.36667   0.86613   0.19235   0.00000  Uiso   1.00
Br543  Br    0.63973   0.80192   0.31160   0.00000  Uiso   1.00
Br544  Br    0.56338   0.67947   0.19845   0.00000  Uiso   1.00
Br545  Br    0.52951   0.70207   0.46350   0.00000  Uiso   1.00
C546   C     0.38609   0.82693   0.25856   0.00000  Uiso   1.00
C547   C     0.48991   0.77819   0.47254   0.00000  Uiso   1.00
C548   C     0.51627   0.75772   0.48768   0.00000  Uiso   1.00
C549   C     0.61435   0.84008   0.24131   0.00000  Uiso   1.00
C550   C     0.52811   0.77643   0.02235   0.00000  Uiso   1.00
C551   C     0.50935   0.81320   0.04267   0.00000  Uiso   1.00
C552   C     0.55460   0.75879   0.04002   0.00000  Uiso   1.00
C553   C     0.55382   0.77174   0.07952   0.00000  Uiso   1.00
C554   C     0.50807   0.82436   0.08277   0.00000  Uiso   1.00
C555   C     0.66014   0.84108   0.23717   0.00000  Uiso   1.00
C556   C     0.34092   0.82465   0.26334   0.00000  Uiso   1.00
C557   C     0.45133   0.90422   0.41966   0.00000  Uiso   1.00
C558   C     0.51473   0.98896   0.23788   0.00000  Uiso   1.00
C559   C     0.48509   0.67880   0.26198   0.00000  Uiso   1.00
C560   C     0.48871   0.72290   0.25939   0.00000  Uiso   1.00
C561   C     0.51029   0.94440   0.24133   0.00000  Uiso   1.00
C562   C     0.52176   0.81158   0.14391   0.00000  Uiso   1.00
C563   C     0.47969   0.85584   0.35626   0.00000  Uiso   1.00
C564   C     0.47150   0.86783   0.39966   0.00000  Uiso   1.00
C565   C     0.52907   0.80308   0.10119   0.00000  Uiso   1.00
C566   C     0.43895   0.90952   0.46170   0.00000  Uiso   1.00
C567   C     0.40090   0.93355   0.48490   0.00000  Uiso   1.00
C568   C     0.48263   0.84109   0.42170   0.00000  Uiso   1.00
C569   C     0.36006   0.91672   0.47242   0.00000  Uiso   1.00
C570   C     0.44620   0.93928   0.39739   0.00000  Uiso   1.00
C571   C     0.48973   0.96055   0.37486   0.00000  Uiso   1.00
C572   C     0.45948   0.75197   0.45020   0.00000  Uiso   1.00
C573   C     0.41239   0.75960   0.46938   0.00000  Uiso   1.00
C574   C     0.47442   0.84886   0.46298   0.00000  Uiso   1.00
C575   C     0.45804   0.88688   0.48192   0.00000  Uiso   1.00
C576   C     0.48596   0.82152   0.48521   0.00000  Uiso   1.00
C577   C     0.49187   0.83761   0.02263   0.00000  Uiso   1.00
C578   C     0.48260   0.87875   0.03810   0.00000  Uiso   1.00
C579   C     0.46488   0.90275   0.01898   0.00000  Uiso   1.00
H580   H     0.45755   0.99867   0.28396   0.00000  Uiso   1.00
H581   H     0.40879   0.96766   0.48231   0.00000  Uiso   1.00
H582   H     0.50908   0.97331   0.39571   0.00000  Uiso   1.00
H583   H     0.50833   0.93864   0.35144   0.00000  Uiso   1.00
H584   H     0.48456   0.98685   0.36057   0.00000  Uiso   1.00
H585   H     0.42546   0.92795   0.37755   0.00000  Uiso   1.00
H586   H     0.42970   0.96469   0.41769   0.00000  Uiso   1.00
H587   H     0.40322   0.75619   0.00157   0.00000  Uiso   1.00
H588   H     0.40659   0.79118   0.46517   0.00000  Uiso   1.00
H589   H     0.39131   0.73623   0.45546   0.00000  Uiso   1.00
H590   H     0.46883   0.75650   0.41844   0.00000  Uiso   1.00
H591   H     0.48869   0.84798   0.10103   0.00000  Uiso   1.00
H592   H     0.45972   0.71800   0.45046   0.00000  Uiso   1.00
H593   H     0.57222   0.75694   0.09356   0.00000  Uiso   1.00
H594   H     0.50127   0.81603   0.40591   0.00000  Uiso   1.00
H595   H     0.49092   0.89400   0.06434   0.00000  Uiso   1.00
H596   H     0.36338   0.92226   0.44155   0.00000  Uiso   1.00
H597   H     0.35255   0.88257   0.47508   0.00000  Uiso   1.00
H598   H     0.66593   0.93283   0.49213   0.00000  Uiso   1.00
H599   H     0.39213   0.92952   0.01687   0.00000  Uiso   1.00
O600   O     0.50000   0.83333   0.25000   0.00000  Uiso   1.00
O601   O     0.49027   0.79060   0.16625   0.00000  Uiso   1.00
O602   O     0.46020   0.87313   0.33749   0.00000  Uiso   1.00
O603   O     0.54421   0.84159   0.15877   0.00000  Uiso   1.00
O604   O     0.50532   0.82802   0.33749   0.00000  Uiso   1.00
O605   O     0.51182   0.74768   0.27821   0.00000  Uiso   1.00
O606   O     0.47914   0.92803   0.26767   0.00000  Uiso   1.00
O607   O     0.40785   0.79917   0.23607   0.00000  Uiso   1.00
O608   O     0.60119   0.85845   0.21805   0.00000  Uiso   1.00
O609   O     0.40323   0.85627   0.27820   0.00000  Uiso   1.00
O610   O     0.58773   0.81944   0.26767   0.00000  Uiso   1.00
O611   O     0.47133   0.73570   0.23607   0.00000  Uiso   1.00
O612   O     0.53771   0.92193   0.21805   0.00000  Uiso   1.00
Zn613  Zn    0.52577   0.80756   0.28278   0.00000  Uiso   1.00
Zn614  Zn    0.46792   0.79044   0.22258   0.00000  Uiso   1.00
Zn615  Zn    0.54500   0.86331   0.21188   0.00000  Uiso   1.00
Zn616  Zn    0.46131   0.87202   0.28277   0.00000  Uiso   1.00
Br617  Br    0.79605   0.96077   0.04042   0.00000  Uiso   1.00
Br618  Br    0.93143   0.72258   0.01262   0.00000  Uiso   1.00
Br619  Br    0.70001   0.86613   0.19235   0.00000  Uiso   1.00
Br620  Br    0.97306   0.80192   0.31160   0.00000  Uiso   1.00
Br621  Br    0.89671   0.67947   0.19845   0.00000  Uiso   1.00
Br622  Br    0.86284   0.70207   0.46350   0.00000  Uiso   1.00
C623   C     0.71943   0.82693   0.25856   0.00000  Uiso   1.00
C624   C     0.82324   0.77819   0.47254   0.00000  Uiso   1.00
C625   C     0.84960   0.75772   0.48768   0.00000  Uiso   1.00
C626   C     0.94768   0.84008   0.24131   0.00000  Uiso   1.00
C627   C     0.86144   0.77643   0.02235   0.00000  Uiso   1.00
C628   C     0.84268   0.81320   0.04267   0.00000  Uiso   1.00
C629   C     0.88793   0.75879   0.04002   0.00000  Uiso   1.00
C630   C     0.88715   0.77174   0.07952   0.00000  Uiso   1.00
C631   C     0.84141   0.82436   0.08277   0.00000  Uiso   1.00
C632   C     0.99348   0.84108   0.23717   0.00000  Uiso   1.00
C633   C     0.67426   0.82465   0.26334   0.00000  Uiso   1.00
C634   C     0.78467   0.90422   0.41966   0.00000  Uiso   1.00
C635   C     0.84806   0.98896   0.23788   0.00000  Uiso   1.00
C636   C     0.81842   0.67880   0.26198   0.00000  Uiso   1.00
C637   C     0.82204   0.72290   0.25939   0.00000  Uiso   1.00
C638   C     0.84362   0.94440   0.24133   0.00000  Uiso   1.00
C639   C     0.85509   0.81158   0.14391   0.00000  Uiso   1.00
C640   C     0.81302   0.85584   0.35626   0.00000  Uiso   1.00
C641   C     0.80483   0.86783   0.39966   0.00000  Uiso   1.00
C642   C     0.86240   0.80308   0.10119   0.00000  Uiso   1.00
C643   C     0.77228   0.90952   0.46170   0.00000  Uiso   1.00
C644   C     0.73423   0.93355   0.48490   0.00000  Uiso   1.00
C645   C     0.81596   0.84109   0.42170   0.00000  Uiso   1.00
C646   C     0.69340   0.91672   0.47242   0.00000  Uiso   1.00
C647   C     0.77954   0.93928   0.39739   0.00000  Uiso   1.00
C648   C     0.82306   0.96055   0.37486   0.00000  Uiso   1.00
C649   C     0.79281   0.75197   0.45020   0.00000  Uiso   1.00
C650   C     0.74572   0.75960   0.46938   0.00000  Uiso   1.00
C651   C     0.80776   0.84886   0.46298   0.00000  Uiso   1.00
C652   C     0.79138   0.88688   0.48192   0.00000  Uiso   1.00
C653   C     0.81929   0.82152   0.48521   0.00000  Uiso   1.00
C654   C     0.82521   0.83761   0.02263   0.00000  Uiso   1.00
C655   C     0.81593   0.87875   0.03810   0.00000  Uiso   1.00
C656   C     0.79821   0.90275   0.01898   0.00000  Uiso   1.00
H657   H     0.79088   0.99867   0.28396   0.00000  Uiso   1.00
H658   H     0.74212   0.96766   0.48231   0.00000  Uiso   1.00
H659   H     0.84242   0.97331   0.39571   0.00000  Uiso   1.00
H660   H     0.84167   0.93864   0.35144   0.00000  Uiso   1.00
H661   H     0.81789   0.98685   0.36057   0.00000  Uiso   1.00
H662   H     0.75879   0.92795   0.37755   0.00000  Uiso   1.00
H663   H     0.76303   0.96469   0.41769   0.00000  Uiso   1.00
H664   H     0.73655   0.75619   0.00157   0.00000  Uiso   1.00
H665   H     0.73992   0.79118   0.46517   0.00000  Uiso   1.00
H666   H     0.72464   0.73623   0.45546   0.00000  Uiso   1.00
H667   H     0.80217   0.75650   0.41844   0.00000  Uiso   1.00
H668   H     0.82203   0.84798   0.10103   0.00000  Uiso   1.00
H669   H     0.79305   0.71800   0.45046   0.00000  Uiso   1.00
H670   H     0.90555   0.75694   0.09356   0.00000  Uiso   1.00
H671   H     0.83461   0.81603   0.40591   0.00000  Uiso   1.00
H672   H     0.82425   0.89400   0.06434   0.00000  Uiso   1.00
H673   H     0.69671   0.92226   0.44155   0.00000  Uiso   1.00
H674   H     0.68588   0.88257   0.47508   0.00000  Uiso   1.00
H675   H     0.99926   0.93283   0.49213   0.00000  Uiso   1.00
H676   H     0.72547   0.92952   0.01687   0.00000  Uiso   1.00
O677   O     0.83333   0.83333   0.25000   0.00000  Uiso   1.00
O678   O     0.82360   0.79060   0.16625   0.00000  Uiso   1.00
O679   O     0.79354   0.87313   0.33749   0.00000  Uiso   1.00
O680   O     0.87755   0.84159   0.15877   0.00000  Uiso   1.00
O681   O     0.83865   0.82802   0.33749   0.00000  Uiso   1.00
O682   O     0.84515   0.74768   0.27821   0.00000  Uiso   1.00
O683   O     0.81247   0.92803   0.26767   0.00000  Uiso   1.00
O684   O     0.74119   0.79917   0.23607   0.00000  Uiso   1.00
O685   O     0.93452   0.85845   0.21805   0.00000  Uiso   1.00
O686   O     0.73656   0.85627   0.27820   0.00000  Uiso   1.00
O687   O     0.92106   0.81944   0.26767   0.00000  Uiso   1.00
O688   O     0.80467   0.73570   0.23607   0.00000  Uiso   1.00
O689   O     0.87104   0.92193   0.21805   0.00000  Uiso   1.00
Zn690  Zn    0.85910   0.80756   0.28278   0.00000  Uiso   1.00
Zn691  Zn    0.80125   0.79044   0.22258   0.00000  Uiso   1.00
Zn692  Zn    0.87833   0.86331   0.21188   0.00000  Uiso   1.00
Zn693  Zn    0.79465   0.87202   0.28277   0.00000  Uiso   1.00
Br694  Br    0.12939   0.29410   0.54042   0.00000  Uiso   1.00
Br695  Br    0.26477   0.05591   0.51262   0.00000  Uiso   1.00
Br696  Br    0.03334   0.19946   0.69235   0.00000  Uiso   1.00
Br697  Br    0.30640   0.13525   0.81160   0.00000  Uiso   1.00
Br698  Br    0.23004   0.01280   0.69845   0.00000  Uiso   1.00
Br699  Br    0.19617   0.03541   0.96350   0.00000  Uiso   1.00
C700   C     0.05276   0.16026   0.75856   0.00000  Uiso   1.00
C701   C     0.15658   0.11152   0.97254   0.00000  Uiso   1.00
C702   C     0.18294   0.09106   0.98768   0.00000  Uiso   1.00
C703   C     0.28102   0.17341   0.74131   0.00000  Uiso   1.00
C704   C     0.19478   0.10976   0.52235   0.00000  Uiso   1.00
C705   C     0.17601   0.14653   0.54267   0.00000  Uiso   1.00
C706   C     0.22127   0.09213   0.54002   0.00000  Uiso   1.00
C707   C     0.22048   0.10507   0.57952   0.00000  Uiso   1.00
C708   C     0.17474   0.15769   0.58277   0.00000  Uiso   1.00
C709   C     0.32681   0.17441   0.73717   0.00000  Uiso   1.00
C710   C     0.00759   0.15798   0.76334   0.00000  Uiso   1.00
C711   C     0.11800   0.23756   0.91966   0.00000  Uiso   1.00
C712   C     0.18140   0.32229   0.73788   0.00000  Uiso   1.00
C713   C     0.15176   0.01214   0.76198   0.00000  Uiso   1.00
C714   C     0.15537   0.05623   0.75939   0.00000  Uiso   1.00
C715   C     0.17695   0.27774   0.74133   0.00000  Uiso   1.00
C716   C     0.18842   0.14491   0.64391   0.00000  Uiso   1.00
C717   C     0.14636   0.18918   0.85626   0.00000  Uiso   1.00
C718   C     0.13817   0.20116   0.89966   0.00000  Uiso   1.00
C719   C     0.19573   0.13641   0.60119   0.00000  Uiso   1.00
C720   C     0.10562   0.24285   0.96170   0.00000  Uiso   1.00
C721   C     0.06756   0.26689   0.98490   0.00000  Uiso   1.00
C722   C     0.14930   0.17443   0.92170   0.00000  Uiso   1.00
C723   C     0.02673   0.25006   0.97242   0.00000  Uiso   1.00
C724   C     0.11287   0.27261   0.89739   0.00000  Uiso   1.00
C725   C     0.15640   0.29388   0.87486   0.00000  Uiso   1.00
C726   C     0.12615   0.08530   0.95020   0.00000  Uiso   1.00
C727   C     0.07906   0.09293   0.96938   0.00000  Uiso   1.00
C728   C     0.14109   0.18220   0.96298   0.00000  Uiso   1.00
C729   C     0.12471   0.22021   0.98192   0.00000  Uiso   1.00
C730   C     0.15263   0.15485   0.98521   0.00000  Uiso   1.00
C731   C     0.15854   0.17094   0.52263   0.00000  Uiso   1.00
C732   C     0.14926   0.21208   0.53810   0.00000  Uiso   1.00
C733   C     0.13154   0.23608   0.51898   0.00000  Uiso   1.00
H734   H     0.12421   0.33201   0.78396   0.00000  Uiso   1.00
H735   H     0.07546   0.30099   0.98231   0.00000  Uiso   1.00
H736   H     0.17575   0.30664   0.89571   0.00000  Uiso   1.00
H737   H     0.17500   0.27197   0.85144   0.00000  Uiso   1.00
H738   H     0.15123   0.32018   0.86057   0.00000  Uiso   1.00
H739   H     0.09212   0.26128   0.87755   0.00000  Uiso   1.00
H740   H     0.09636   0.29802   0.91769   0.00000  Uiso   1.00
H741   H     0.06989   0.08952   0.50157   0.00000  Uiso   1.00
H742   H     0.07325   0.12452   0.96517   0.00000  Uiso   1.00
H743   H     0.05797   0.06957   0.95546   0.00000  Uiso   1.00
H744   H     0.13550   0.08984   0.91844   0.00000  Uiso   1.00
H745   H     0.15536   0.18132   0.60103   0.00000  Uiso   1.00
H746   H     0.12638   0.05133   0.95046   0.00000  Uiso   1.00
H747   H     0.23889   0.09027   0.59356   0.00000  Uiso   1.00
H748   H     0.16794   0.14936   0.90591   0.00000  Uiso   1.00
H749   H     0.15758   0.22733   0.56434   0.00000  Uiso   1.00
H750   H     0.03005   0.25559   0.94155   0.00000  Uiso   1.00
H751   H     0.01921   0.21590   0.97508   0.00000  Uiso   1.00
H752   H     0.33260   0.26616   0.99213   0.00000  Uiso   1.00
H753   H     0.05880   0.26285   0.51687   0.00000  Uiso   1.00
O754   O     0.16667   0.16667   0.75000   0.00000  Uiso   1.00
O755   O     0.15693   0.12393   0.66625   0.00000  Uiso   1.00
O756   O     0.12687   0.20646   0.83749   0.00000  Uiso   1.00
O757   O     0.21088   0.17493   0.65877   0.00000  Uiso   1.00
O758   O     0.17198   0.16135   0.83749   0.00000  Uiso   1.00
O759   O     0.17849   0.08101   0.77821   0.00000  Uiso   1.00
O760   O     0.14581   0.26136   0.76767   0.00000  Uiso   1.00
O761   O     0.07452   0.13251   0.73607   0.00000  Uiso   1.00
O762   O     0.26785   0.19179   0.71805   0.00000  Uiso   1.00
O763   O     0.06990   0.18960   0.77820   0.00000  Uiso   1.00
O764   O     0.25440   0.15277   0.76767   0.00000  Uiso   1.00
O765   O     0.13800   0.06903   0.73607   0.00000  Uiso   1.00
O766   O     0.20437   0.25527   0.71805   0.00000  Uiso   1.00
Zn767  Zn    0.19244   0.14090   0.78278   0.00000  Uiso   1.00
Zn768  Zn    0.13459   0.12378   0.72258   0.00000  Uiso   1.00
Zn769  Zn    0.21166   0.19664   0.71188   0.00000  Uiso   1.00
Zn770  Zn    0.12798   0.20535   0.78277   0.00000  Uiso   1.00
Br771  Br    0.46272   0.29410   0.54042   0.00000  Uiso   1.00
Br772  Br    0.59810   0.05591   0.51262   0.00000  Uiso   1.00
Br773  Br    0.36667   0.19946   0.69235   0.00000  Uiso   1.00
Br774  Br    0.63973   0.13525   0.81160   0.00000  Uiso   1.00
Br775  Br    0.56338   0.01280   0.69845   0.00000  Uiso   1.00
Br776  Br    0.52951   0.03541   0.96350   0.00000  Uiso   1.00
C777   C     0.38609   0.16026   0.75856   0.00000  Uiso   1.00
C778   C     0.48991   0.11152   0.97254   0.00000  Uiso   1.00
C779   C     0.51627   0.09106   0.98768   0.00000  Uiso   1.00
C780   C     0.61435   0.17341   0.74131   0.00000  Uiso   1.00
C781   C     0.52811   0.10976   0.52235   0.00000  Uiso   1.00
C782   C     0.50935   0.14653   0.54267   0.00000  Uiso   1.00
C783   C     0.55460   0.09213   0.54002   0.00000  Uiso   1.00
C784   C     0.55382   0.10507   0.57952   0.00000  Uiso   1.00
C785   C     0.50807   0.15769   0.58277   0.00000  Uiso   1.00
C786   C     0.66014   0.17441   0.73717   0.00000  Uiso   1.00
C787   C     0.34092   0.15798   0.76334   0.00000  Uiso   1.00
C788   C     0.45133   0.23756   0.91966   0.00000  Uiso   1.00
C789   C     0.51473   0.32229   0.73788   0.00000  Uiso   1.00
C790   C     0.48509   0.01214   0.76198   0.00000  Uiso   1.00
C791   C     0.48871   0.05623   0.75939   0.00000  Uiso   1.00
C792   C     0.51029   0.27774   0.74133   0.00000  Uiso   1.00
C793   C     0.52176   0.14491   0.64391   0.00000  Uiso   1.00
C794   C     0.47969   0.18918   0.85626   0.00000  Uiso   1.00
C795   C     0.47150   0.20116   0.89966   0.00000  Uiso   1.00
C796   C     0.52907   0.13641   0.60119   0.00000  Uiso   1.00
C797   C     0.43895   0.24285   0.96170   0.00000  Uiso   1.00
C798   C     0.40090   0.26689   0.98490   0.00000  Uiso   1.00
C799   C     0.48263   0.17443   0.92170   0.00000  Uiso   1.00
C800   C     0.36006   0.25006   0.97242   0.00000  Uiso   1.00
C801   C     0.44620   0.27261   0.89739   0.00000  Uiso   1.00
C802   C     0.48973   0.29388   0.87486   0.00000  Uiso   1.00
C803   C     0.45948   0.08530   0.95020   0.00000  Uiso   1.00
C804   C     0.41239   0.09293   0.96938   0.00000  Uiso   1.00
C805   C     0.47442   0.18220   0.96298   0.00000  Uiso   1.00
C806   C     0.45804   0.22021   0.98192   0.00000  Uiso   1.00
C807   C     0.48596   0.15485   0.98521   0.00000  Uiso   1.00
C808   C     0.49187   0.17094   0.52263   0.00000  Uiso   1.00
C809   C     0.48260   0.21208   0.53810   0.00000  Uiso   1.00
C810   C     0.46488   0.23608   0.51898   0.00000  Uiso   1.00
H811   H     0.45755   0.33201   0.78396   0.00000  Uiso   1.00
H812   H     0.40879   0.30099   0.98231   0.00000  Uiso   1.00
H813   H     0.50908   0.30664   0.89571   0.00000  Uiso   1.00
H814   H     0.50833   0.27197   0.85144   0.00000  Uiso   1.00
H815   H     0.48456   0.32018   0.86057   0.00000  Uiso   1.00
H816   H     0.42546   0.26128   0.87755   0.00000  Uiso   1.00
H817   H     0.42970   0.29802   0.91769   0.00000  Uiso   1.00
H818   H     0.40322   0.08952   0.50157   0.00000  Uiso   1.00
H819   H     0.40659   0.12452   0.96517   0.00000  Uiso   1.00
H820   H     0.39131   0.06957   0.95546   0.00000  Uiso   1.00
H821   H     0.46883   0.08984   0.91844   0.00000  Uiso   1.00
H822   H     0.48869   0.18132   0.60103   0.00000  Uiso   1.00
H823   H     0.45972   0.05133   0.95046   0.00000  Uiso   1.00
H824   H     0.57222   0.09027   0.59356   0.00000  Uiso   1.00
H825   H     0.50127   0.14936   0.90591   0.00000  Uiso   1.00
H826   H     0.49092   0.22733   0.56434   0.00000  Uiso   1.00
H827   H     0.36338   0.25559   0.94155   0.00000  Uiso   1.00
H828   H     0.35255   0.21590   0.97508   0.00000  Uiso   1.00
H829   H     0.66593   0.26616   0.99213   0.00000  Uiso   1.00
H830   H     0.39213   0.26285   0.51687   0.00000  Uiso   1.00
O831   O     0.50000   0.16667   0.75000   0.00000  Uiso   1.00
O832   O     0.49027   0.12393   0.66625   0.00000  Uiso   1.00
O833   O     0.46020   0.20646   0.83749   0.00000  Uiso   1.00
O834   O     0.54421   0.17493   0.65877   0.00000  Uiso   1.00
O835   O     0.50532   0.16135   0.83749   0.00000  Uiso   1.00
O836   O     0.51182   0.08101   0.77821   0.00000  Uiso   1.00
O837   O     0.47914   0.26136   0.76767   0.00000  Uiso   1.00
O838   O     0.40785   0.13251   0.73607   0.00000  Uiso   1.00
O839   O     0.60119   0.19179   0.71805   0.00000  Uiso   1.00
O840   O     0.40323   0.18960   0.77820   0.00000  Uiso   1.00
O841   O     0.58773   0.15277   0.76767   0.00000  Uiso   1.00
O842   O     0.47133   0.06903   0.73607   0.00000  Uiso   1.00
O843   O     0.53771   0.25527   0.71805   0.00000  Uiso   1.00
Zn844  Zn    0.52577   0.14090   0.78278   0.00000  Uiso   1.00
Zn845  Zn    0.46792   0.12378   0.72258   0.00000  Uiso   1.00
Zn846  Zn    0.54500   0.19664   0.71188   0.00000  Uiso   1.00
Zn847  Zn    0.46131   0.20535   0.78277   0.00000  Uiso   1.00
Br848  Br    0.79605   0.29410   0.54042   0.00000  Uiso   1.00
Br849  Br    0.93143   0.05591   0.51262   0.00000  Uiso   1.00
Br850  Br    0.70001   0.19946   0.69235   0.00000  Uiso   1.00
Br851  Br    0.97306   0.13525   0.81160   0.00000  Uiso   1.00
Br852  Br    0.89671   0.01280   0.69845   0.00000  Uiso   1.00
Br853  Br    0.86284   0.03541   0.96350   0.00000  Uiso   1.00
C854   C     0.71943   0.16026   0.75856   0.00000  Uiso   1.00
C855   C     0.82324   0.11152   0.97254   0.00000  Uiso   1.00
C856   C     0.84960   0.09106   0.98768   0.00000  Uiso   1.00
C857   C     0.94768   0.17341   0.74131   0.00000  Uiso   1.00
C858   C     0.86144   0.10976   0.52235   0.00000  Uiso   1.00
C859   C     0.84268   0.14653   0.54267   0.00000  Uiso   1.00
C860   C     0.88793   0.09213   0.54002   0.00000  Uiso   1.00
C861   C     0.88715   0.10507   0.57952   0.00000  Uiso   1.00
C862   C     0.84141   0.15769   0.58277   0.00000  Uiso   1.00
C863   C     0.99348   0.17441   0.73717   0.00000  Uiso   1.00
C864   C     0.67426   0.15798   0.76334   0.00000  Uiso   1.00
C865   C     0.78467   0.23756   0.91966   0.00000  Uiso   1.00
C866   C     0.84806   0.32229   0.73788   0.00000  Uiso   1.00
C867   C     0.81842   0.01214   0.76198   0.00000  Uiso   1.00
C868   C     0.82204   0.05623   0.75939   0.00000  Uiso   1.00
C869   C     0.84362   0.27774   0.74133   0.00000  Uiso   1.00
C870   C     0.85509   0.14491   0.64391   0.00000  Uiso   1.00
C871   C     0.81302   0.18918   0.85626   0.00000  Uiso   1.00
C872   C     0.80483   0.20116   0.89966   0.00000  Uiso   1.00
C873   C     0.86240   0.13641   0.60119   0.00000  Uiso   1.00
C874   C     0.77228   0.24285   0.96170   0.00000  Uiso   1.00
C875   C     0.73423   0.26689   0.98490   0.00000  Uiso   1.00
C876   C     0.81596   0.17443   0.92170   0.00000  Uiso   1.00
C877   C     0.69340   0.25006   0.97242   0.00000  Uiso   1.00
C878   C     0.77954   0.27261   0.89739   0.00000  Uiso   1.00
C879   C     0.82306   0.29388   0.87486   0.00000  Uiso   1.00
C880   C     0.79281   0.08530   0.95020   0.00000  Uiso   1.00
C881   C     0.74572   0.09293   0.96938   0.00000  Uiso   1.00
C882   C     0.80776   0.18220   0.96298   0.00000  Uiso   1.00
C883   C     0.79138   0.22021   0.98192   0.00000  Uiso   1.00
C884   C     0.81929   0.15485   0.98521   0.00000  Uiso   1.00
C885   C     0.82521   0.17094   0.52263   0.00000  Uiso   1.00
C886   C     0.81593   0.21208   0.53810   0.00000  Uiso   1.00
C887   C     0.79821   0.23608   0.51898   0.00000  Uiso   1.00
H888   H     0.79088   0.33201   0.78396   0.00000  Uiso   1.00
H889   H     0.74212   0.30099   0.98231   0.00000  Uiso   1.00
H890   H     0.84242   0.30664   0.89571   0.00000  Uiso   1.00
H891   H     0.84167   0.27197   0.85144   0.00000  Uiso   1.00
H892   H     0.81789   0.32018   0.86057   0.00000  Uiso   1.00
H893   H     0.75879   0.26128   0.87755   0.00000  Uiso   1.00
H894   H     0.76303   0.29802   0.91769   0.00000  Uiso   1.00
H895   H     0.73655   0.08952   0.50157   0.00000  Uiso   1.00
H896   H     0.73992   0.12452   0.96517   0.00000  Uiso   1.00
H897   H     0.72464   0.06957   0.95546   0.00000  Uiso   1.00
H898   H     0.80217   0.08984   0.91844   0.00000  Uiso   1.00
H899   H     0.82203   0.18132   0.60103   0.00000  Uiso   1.00
H900   H     0.79305   0.05133   0.95046   0.00000  Uiso   1.00
H901   H     0.90555   0.09027   0.59356   0.00000  Uiso   1.00
H902   H     0.83461   0.14936   0.90591   0.00000  Uiso   1.00
H903   H     0.82425   0.22733   0.56434   0.00000  Uiso   1.00
H904   H     0.69671   0.25559   0.94155   0.00000  Uiso   1.00
H905   H     0.68588   0.21590   0.97508   0.00000  Uiso   1.00
H906   H     0.99926   0.26616   0.99213   0.00000  Uiso   1.00
H907   H     0.72547   0.26285   0.51687   0.00000  Uiso   1.00
O908   O     0.83333   0.16667   0.75000   0.00000  Uiso   1.00
O909   O     0.82360   0.12393   0.66625   0.00000  Uiso   1.00
O910   O     0.79354   0.20646   0.83749   0.00000  Uiso   1.00
O911   O     0.87755   0.17493   0.65877   0.00000  Uiso   1.00
O912   O     0.83865   0.16135   0.83749   0.00000  Uiso   1.00
O913   O     0.84515   0.08101   0.77821   0.00000  Uiso   1.00
O914   O     0.81247   0.26136   0.76767   0.00000  Uiso   1.00
O915   O     0.74119   0.13251   0.73607   0.00000  Uiso   1.00
O916   O     0.93452   0.19179   0.71805   0.00000  Uiso   1.00
O917   O     0.73656   0.18960   0.77820   0.00000  Uiso   1.00
O918   O     0.92106   0.15277   0.76767   0.00000  Uiso   1.00
O919   O     0.80467   0.06903   0.73607   0.00000  Uiso   1.00
O920   O     0.87104   0.25527   0.71805   0.00000  Uiso   1.00
Zn921  Zn    0.85910   0.14090   0.78278   0.00000  Uiso   1.00
Zn922  Zn    0.80125   0.12378   0.72258   0.00000  Uiso   1.00
Zn923  Zn    0.87833   0.19664   0.71188   0.00000  Uiso   1.00
Zn924  Zn    0.79465   0.20535   0.78277   0.00000  Uiso   1.00
Br925  Br    0.12939   0.62744   0.54042   0.00000  Uiso   1.00
Br926  Br    0.26477   0.38925   0.51262   0.00000  Uiso   1.00
Br927  Br    0.03334   0.53280   0.69235   0.00000  Uiso   1.00
Br928  Br    0.30640   0.46858   0.81160   0.00000  Uiso   1.00
Br929  Br    0.23004   0.34614   0.69845   0.00000  Uiso   1.00
Br930  Br    0.19617   0.36874   0.96350   0.00000  Uiso   1.00
C931   C     0.05276   0.49359   0.75856   0.00000  Uiso   1.00
C932   C     0.15658   0.44485   0.97254   0.00000  Uiso   1.00
C933   C     0.18294   0.42439   0.98768   0.00000  Uiso   1.00
C934   C     0.28102   0.50674   0.74131   0.00000  Uiso   1.00
C935   C     0.19478   0.44310   0.52235   0.00000  Uiso   1.00
C936   C     0.17601   0.47986   0.54267   0.00000  Uiso   1.00
C937   C     0.22127   0.42546   0.54002   0.00000  Uiso   1.00
C938   C     0.22048   0.43841   0.57952   0.00000  Uiso   1.00
C939   C     0.17474   0.49103   0.58277   0.00000  Uiso   1.00
C940   C     0.32681   0.50774   0.73717   0.00000  Uiso   1.00
C941   C     0.00759   0.49132   0.76334   0.00000  Uiso   1.00
C942   C     0.11800   0.57089   0.91966   0.00000  Uiso   1.00
C943   C     0.18140   0.65562   0.73788   0.00000  Uiso   1.00
C944   C     0.15176   0.34547   0.76198   0.00000  Uiso   1.00
C945   C     0.15537   0.38957   0.75939   0.00000  Uiso   1.00
C946   C     0.17695   0.61107   0.74133   0.00000  Uiso   1.00
C947   C     0.18842   0.47825   0.64391   0.00000  Uiso   1.00
C948   C     0.14636   0.52251   0.85626   0.00000  Uiso   1.00
C949   C     0.13817   0.53449   0.89966   0.00000  Uiso   1.00
C950   C     0.19573   0.46975   0.60119   0.00000  Uiso   1.00
C951   C     0.10562   0.57619   0.96170   0.00000  Uiso   1.00
C952   C     0.06756   0.60022   0.98490   0.00000  Uiso   1.00
C953   C     0.14930   0.50776   0.92170   0.00000  Uiso   1.00
C954   C     0.02673   0.58339   0.97242   0.00000  Uiso   1.00
C955   C     0.11287   0.60595   0.89739   0.00000  Uiso   1.00
C956   C     0.15640   0.62721   0.87486   0.00000  Uiso   1.00
C957   C     0.12615   0.41864   0.95020   0.00000  Uiso   1.00
C958   C     0.07906   0.42627   0.96938   0.00000  Uiso   1.00
C959   C     0.14109   0.51553   0.96298   0.00000  Uiso   1.00
C960   C     0.12471   0.55355   0.98192   0.00000  Uiso   1.00
C961   C     0.15263   0.48819   0.98521   0.00000  Uiso   1.00
C962   C     0.15854   0.50428   0.52263   0.00000  Uiso   1.00
C963   C     0.14926   0.54542   0.53810   0.00000  Uiso   1.00
C964   C     0.13154   0.56942   0.51898   0.00000  Uiso   1.00
H965   H     0.12421   0.66534   0.78396   0.00000  Uiso   1.00
H966   H     0.07546   0.63433   0.98231   0.00000  Uiso   1.00
H967   H     0.17575   0.63997   0.89571   0.00000  Uiso   1.00
H968   H     0.17500   0.60531   0.85144   0.00000  Uiso   1.00
H969   H     0.15123   0.65351   0.86057   0.00000  Uiso   1.00
H970   H     0.09212   0.59462   0.87755   0.00000  Uiso   1.00
H971   H     0.09636   0.63136   0.91769   0.00000  Uiso   1.00
H972   H     0.06989   0.42286   0.50157   0.00000  Uiso   1.00
H973   H     0.07325   0.45785   0.96517   0.00000  Uiso   1.00
H974   H     0.05797   0.40290   0.95546   0.00000  Uiso   1.00
H975   H     0.13550   0.42317   0.91844   0.00000  Uiso   1.00
H976   H     0.15536   0.51465   0.60103   0.00000  Uiso   1.00
H977   H     0.12638   0.38467   0.95046   0.00000  Uiso   1.00
H978   H     0.23889   0.42361   0.59356   0.00000  Uiso   1.00
H979   H     0.16794   0.48269   0.90591   0.00000  Uiso   1.00
H980   H     0.15758   0.56066   0.56434   0.00000  Uiso   1.00
H981   H     0.03005   0.58892   0.94155   0.00000  Uiso   1.00
H982   H     0.01921   0.54923   0.97508   0.00000  Uiso   1.00
H983   H     0.33260   0.59950   0.99213   0.00000  Uiso   1.00
H984   H     0.05880   0.59619   0.51687   0.00000  Uiso   1.00
O985   O     0.16667   0.50000   0.75000   0.00000  Uiso   1.00
O986   O     0.15693   0.45726   0.66625   0.00000  Uiso   1.00
O987   O     0.12687   0.53979   0.83749   0.00000  Uiso   1.00
O988   O     0.21088   0.50826   0.65877   0.00000  Uiso   1.00
O989   O     0.17198   0.49468   0.83749   0.00000  Uiso   1.00
O990   O     0.17849   0.41434   0.77821   0.00000  Uiso   1.00
O991   O     0.14581   0.59469   0.76767   0.00000  Uiso   1.00
O992   O     0.07452   0.46584   0.73607   0.00000  Uiso   1.00
O993   O     0.26785   0.52512   0.71805   0.00000  Uiso   1.00
O994   O     0.06990   0.52293   0.77820   0.00000  Uiso   1.00
O995   O     0.25440   0.48610   0.76767   0.00000  Uiso   1.00
O996   O     0.13800   0.40236   0.73607   0.00000  Uiso   1.00
O997   O     0.20437   0.58860   0.71805   0.00000  Uiso   1.00
Zn998  Zn    0.19244   0.47423   0.78278   0.00000  Uiso   1.00
Zn999  Zn    0.13459   0.45711   0.72258   0.00000  Uiso   1.00
Zn1000 Zn    0.21166   0.52997   0.71188   0.00000  Uiso   1.00
Zn1001 Zn    0.12798   0.53868   0.78277   0.00000  Uiso   1.00
Br1002 Br    0.46272   0.62744   0.54042   0.00000  Uiso   1.00
Br1003 Br    0.59810   0.38925   0.51262   0.00000  Uiso   1.00
Br1004 Br    0.36667   0.53280   0.69235   0.00000  Uiso   1.00
Br1005 Br    0.63973   0.46858   0.81160   0.00000  Uiso   1.00
Br1006 Br    0.56338   0.34614   0.69845   0.00000  Uiso   1.00
Br1007 Br    0.52951   0.36874   0.96350   0.00000  Uiso   1.00
C1008  C     0.38609   0.49359   0.75856   0.00000  Uiso   1.00
C1009  C     0.48991   0.44485   0.97254   0.00000  Uiso   1.00
C1010  C     0.51627   0.42439   0.98768   0.00000  Uiso   1.00
C1011  C     0.61435   0.50674   0.74131   0.00000  Uiso   1.00
C1012  C     0.52811   0.44310   0.52235   0.00000  Uiso   1.00
C1013  C     0.50935   0.47986   0.54267   0.00000  Uiso   1.00
C1014  C     0.55460   0.42546   0.54002   0.00000  Uiso   1.00
C1015  C     0.55382   0.43841   0.57952   0.00000  Uiso   1.00
C1016  C     0.50807   0.49103   0.58277   0.00000  Uiso   1.00
C1017  C     0.66014   0.50774   0.73717   0.00000  Uiso   1.00
C1018  C     0.34092   0.49132   0.76334   0.00000  Uiso   1.00
C1019  C     0.45133   0.57089   0.91966   0.00000  Uiso   1.00
C1020  C     0.51473   0.65562   0.73788   0.00000  Uiso   1.00
C1021  C     0.48509   0.34547   0.76198   0.00000  Uiso   1.00
C1022  C     0.48871   0.38957   0.75939   0.00000  Uiso   1.00
C1023  C     0.51029   0.61107   0.74133   0.00000  Uiso   1.00
C1024  C     0.52176   0.47825   0.64391   0.00000  Uiso   1.00
C1025  C     0.47969   0.52251   0.85626   0.00000  Uiso   1.00
C1026  C     0.47150   0.53449   0.89966   0.00000  Uiso   1.00
C1027  C     0.52907   0.46975   0.60119   0.00000  Uiso   1.00
C1028  C     0.43895   0.57619   0.96170   0.00000  Uiso   1.00
C1029  C     0.40090   0.60022   0.98490   0.00000  Uiso   1.00
C1030  C     0.48263   0.50776   0.92170   0.00000  Uiso   1.00
C1031  C     0.36006   0.58339   0.97242   0.00000  Uiso   1.00
C1032  C     0.44620   0.60595   0.89739   0.00000  Uiso   1.00
C1033  C     0.48973   0.62721   0.87486   0.00000  Uiso   1.00
C1034  C     0.45948   0.41864   0.95020   0.00000  Uiso   1.00
C1035  C     0.41239   0.42627   0.96938   0.00000  Uiso   1.00
C1036  C     0.47442   0.51553   0.96298   0.00000  Uiso   1.00
C1037  C     0.45804   0.55355   0.98192   0.00000  Uiso   1.00
C1038  C     0.48596   0.48819   0.98521   0.00000  Uiso   1.00
C1039  C     0.49187   0.50428   0.52263   0.00000  Uiso   1.00
C1040  C     0.48260   0.54542   0.53810   0.00000  Uiso   1.00
C1041  C     0.46488   0.56942   0.51898   0.00000  Uiso   1.00
H1042  H     0.45755   0.66534   0.78396   0.00000  Uiso   1.00
H1043  H     0.40879   0.63433   0.98231   0.00000  Uiso   1.00
H1044  H     0.50908   0.63997   0.89571   0.00000  Uiso   1.00
H1045  H     0.50833   0.60531   0.85144   0.00000  Uiso   1.00
H1046  H     0.48456   0.65351   0.86057   0.00000  Uiso   1.00
H1047  H     0.42546   0.59462   0.87755   0.00000  Uiso   1.00
H1048  H     0.42970   0.63136   0.91769   0.00000  Uiso   1.00
H1049  H     0.40322   0.42286   0.50157   0.00000  Uiso   1.00
H1050  H     0.40659   0.45785   0.96517   0.00000  Uiso   1.00
H1051  H     0.39131   0.40290   0.95546   0.00000  Uiso   1.00
H1052  H     0.46883   0.42317   0.91844   0.00000  Uiso   1.00
H1053  H     0.48869   0.51465   0.60103   0.00000  Uiso   1.00
H1054  H     0.45972   0.38467   0.95046   0.00000  Uiso   1.00
H1055  H     0.57222   0.42361   0.59356   0.00000  Uiso   1.00
H1056  H     0.50127   0.48269   0.90591   0.00000  Uiso   1.00
H1057  H     0.49092   0.56066   0.56434   0.00000  Uiso   1.00
H1058  H     0.36338   0.58892   0.94155   0.00000  Uiso   1.00
H1059  H     0.35255   0.54923   0.97508   0.00000  Uiso   1.00
H1060  H     0.66593   0.59950   0.99213   0.00000  Uiso   1.00
H1061  H     0.39213   0.59619   0.51687   0.00000  Uiso   1.00
O1062  O     0.50000   0.50000   0.75000   0.00000  Uiso   1.00
O1063  O     0.49027   0.45726   0.66625   0.00000  Uiso   1.00
O1064  O     0.46020   0.53979   0.83749   0.00000  Uiso   1.00
O1065  O     0.54421   0.50826   0.65877   0.00000  Uiso   1.00
O1066  O     0.50532   0.49468   0.83749   0.00000  Uiso   1.00
O1067  O     0.51182   0.41434   0.77821   0.00000  Uiso   1.00
O1068  O     0.47914   0.59469   0.76767   0.00000  Uiso   1.00
O1069  O     0.40785   0.46584   0.73607   0.00000  Uiso   1.00
O1070  O     0.60119   0.52512   0.71805   0.00000  Uiso   1.00
O1071  O     0.40323   0.52293   0.77820   0.00000  Uiso   1.00
O1072  O     0.58773   0.48610   0.76767   0.00000  Uiso   1.00
O1073  O     0.47133   0.40236   0.73607   0.00000  Uiso   1.00
O1074  O     0.53771   0.58860   0.71805   0.00000  Uiso   1.00
Zn1075 Zn    0.52577   0.47423   0.78278   0.00000  Uiso   1.00
Zn1076 Zn    0.46792   0.45711   0.72258   0.00000  Uiso   1.00
Zn1077 Zn    0.54500   0.52997   0.71188   0.00000  Uiso   1.00
Zn1078 Zn    0.46131   0.53868   0.78277   0.00000  Uiso   1.00
Br1079 Br    0.79605   0.62744   0.54042   0.00000  Uiso   1.00
Br1080 Br    0.93143   0.38925   0.51262   0.00000  Uiso   1.00
Br1081 Br    0.70001   0.53280   0.69235   0.00000  Uiso   1.00
Br1082 Br    0.97306   0.46858   0.81160   0.00000  Uiso   1.00
Br1083 Br    0.89671   0.34614   0.69845   0.00000  Uiso   1.00
Br1084 Br    0.86284   0.36874   0.96350   0.00000  Uiso   1.00
C1085  C     0.71943   0.49359   0.75856   0.00000  Uiso   1.00
C1086  C     0.82324   0.44485   0.97254   0.00000  Uiso   1.00
C1087  C     0.84960   0.42439   0.98768   0.00000  Uiso   1.00
C1088  C     0.94768   0.50674   0.74131   0.00000  Uiso   1.00
C1089  C     0.86144   0.44310   0.52235   0.00000  Uiso   1.00
C1090  C     0.84268   0.47986   0.54267   0.00000  Uiso   1.00
C1091  C     0.88793   0.42546   0.54002   0.00000  Uiso   1.00
C1092  C     0.88715   0.43841   0.57952   0.00000  Uiso   1.00
C1093  C     0.84141   0.49103   0.58277   0.00000  Uiso   1.00
C1094  C     0.99348   0.50774   0.73717   0.00000  Uiso   1.00
C1095  C     0.67426   0.49132   0.76334   0.00000  Uiso   1.00
C1096  C     0.78467   0.57089   0.91966   0.00000  Uiso   1.00
C1097  C     0.84806   0.65562   0.73788   0.00000  Uiso   1.00
C1098  C     0.81842   0.34547   0.76198   0.00000  Uiso   1.00
C1099  C     0.82204   0.38957   0.75939   0.00000  Uiso   1.00
C1100  C     0.84362   0.61107   0.74133   0.00000  Uiso   1.00
C1101  C     0.85509   0.47825   0.64391   0.00000  Uiso   1.00
C1102  C     0.81302   0.52251   0.85626   0.00000  Uiso   1.00
C1103  C     0.80483   0.53449   0.89966   0.00000  Uiso   1.00
C1104  C     0.86240   0.46975   0.60119   0.00000  Uiso   1.00
C1105  C     0.77228   0.57619   0.96170   0.00000  Uiso   1.00
C1106  C     0.73423   0.60022   0.98490   0.00000  Uiso   1.00
C1107  C     0.81596   0.50776   0.92170   0.00000  Uiso   1.00
C1108  C     0.69340   0.58339   0.97242   0.00000  Uiso   1.00
C1109  C     0.77954   0.60595   0.89739   0.00000  Uiso   1.00
C1110  C     0.82306   0.62721   0.87486   0.00000  Uiso   1.00
C1111  C     0.79281   0.41864   0.95020   0.00000  Uiso   1.00
C1112  C     0.74572   0.42627   0.96938   0.00000  Uiso   1.00
C1113  C     0.80776   0.51553   0.96298   0.00000  Uiso   1.00
C1114  C     0.79138   0.55355   0.98192   0.00000  Uiso   1.00
C1115  C     0.81929   0.48819   0.98521   0.00000  Uiso   1.00
C1116  C     0.82521   0.50428   0.52263   0.00000  Uiso   1.00
C1117  C     0.81593   0.54542   0.53810   0.00000  Uiso   1.00
C1118  C     0.79821   0.56942   0.51898   0.00000  Uiso   1.00
H1119  H     0.79088   0.66534   0.78396   0.00000  Uiso   1.00
H1120  H     0.74212   0.63433   0.98231   0.00000  Uiso   1.00
H1121  H     0.84242   0.63997   0.89571   0.00000  Uiso   1.00
H1122  H     0.84167   0.60531   0.85144   0.00000  Uiso   1.00
H1123  H     0.81789   0.65351   0.86057   0.00000  Uiso   1.00
H1124  H     0.75879   0.59462   0.87755   0.00000  Uiso   1.00
H1125  H     0.76303   0.63136   0.91769   0.00000  Uiso   1.00
H1126  H     0.73655   0.42286   0.50157   0.00000  Uiso   1.00
H1127  H     0.73992   0.45785   0.96517   0.00000  Uiso   1.00
H1128  H     0.72464   0.40290   0.95546   0.00000  Uiso   1.00
H1129  H     0.80217   0.42317   0.91844   0.00000  Uiso   1.00
H1130  H     0.82203   0.51465   0.60103   0.00000  Uiso   1.00
H1131  H     0.79305   0.38467   0.95046   0.00000  Uiso   1.00
H1132  H     0.90555   0.42361   0.59356   0.00000  Uiso   1.00
H1133  H     0.83461   0.48269   0.90591   0.00000  Uiso   1.00
H1134  H     0.82425   0.56066   0.56434   0.00000  Uiso   1.00
H1135  H     0.69671   0.58892   0.94155   0.00000  Uiso   1.00
H1136  H     0.68588   0.54923   0.97508   0.00000  Uiso   1.00
H1137  H     0.99926   0.59950   0.99213   0.00000  Uiso   1.00
H1138  H     0.72547   0.59619   0.51687   0.00000  Uiso   1.00
O1139  O     0.83333   0.50000   0.75000   0.00000  Uiso   1.00
O1140  O     0.82360   0.45726   0.66625   0.00000  Uiso   1.00
O1141  O     0.79354   0.53979   0.83749   0.00000  Uiso   1.00
O1142  O     0.87755   0.50826   0.65877   0.00000  Uiso   1.00
O1143  O     0.83865   0.49468   0.83749   0.00000  Uiso   1.00
O1144  O     0.84515   0.41434   0.77821   0.00000  Uiso   1.00
O1145  O     0.81247   0.59469   0.76767   0.00000  Uiso   1.00
O1146  O     0.74119   0.46584   0.73607   0.00000  Uiso   1.00
O1147  O     0.93452   0.52512   0.71805   0.00000  Uiso   1.00
O1148  O     0.73656   0.52293   0.77820   0.00000  Uiso   1.00
O1149  O     0.92106   0.48610   0.76767   0.00000  Uiso   1.00
O1150  O     0.80467   0.40236   0.73607   0.00000  Uiso   1.00
O1151  O     0.87104   0.58860   0.71805   0.00000  Uiso   1.00
Zn1152 Zn    0.85910   0.47423   0.78278   0.00000  Uiso   1.00
Zn1153 Zn    0.80125   0.45711   0.72258   0.00000  Uiso   1.00
Zn1154 Zn    0.87833   0.52997   0.71188   0.00000  Uiso   1.00
Zn1155 Zn    0.79465   0.53868   0.78277   0.00000  Uiso   1.00
Br1156 Br    0.12939   0.96077   0.54042   0.00000  Uiso   1.00
Br1157 Br    0.26477   0.72258   0.51262   0.00000  Uiso   1.00
Br1158 Br    0.03334   0.86613   0.69235   0.00000  Uiso   1.00
Br1159 Br    0.30640   0.80192   0.81160   0.00000  Uiso   1.00
Br1160 Br    0.23004   0.67947   0.69845   0.00000  Uiso   1.00
Br1161 Br    0.19617   0.70207   0.96350   0.00000  Uiso   1.00
C1162  C     0.05276   0.82693   0.75856   0.00000  Uiso   1.00
C1163  C     0.15658   0.77819   0.97254   0.00000  Uiso   1.00
C1164  C     0.18294   0.75772   0.98768   0.00000  Uiso   1.00
C1165  C     0.28102   0.84008   0.74131   0.00000  Uiso   1.00
C1166  C     0.19478   0.77643   0.52235   0.00000  Uiso   1.00
C1167  C     0.17601   0.81320   0.54267   0.00000  Uiso   1.00
C1168  C     0.22127   0.75879   0.54002   0.00000  Uiso   1.00
C1169  C     0.22048   0.77174   0.57952   0.00000  Uiso   1.00
C1170  C     0.17474   0.82436   0.58277   0.00000  Uiso   1.00
C1171  C     0.32681   0.84108   0.73717   0.00000  Uiso   1.00
C1172  C     0.00759   0.82465   0.76334   0.00000  Uiso   1.00
C1173  C     0.11800   0.90422   0.91966   0.00000  Uiso   1.00
C1174  C     0.18140   0.98896   0.73788   0.00000  Uiso   1.00
C1175  C     0.15176   0.67880   0.76198   0.00000  Uiso   1.00
C1176  C     0.15537   0.72290   0.75939   0.00000  Uiso   1.00
C1177  C     0.17695   0.94440   0.74133   0.00000  Uiso   1.00
C1178  C     0.18842   0.81158   0.64391   0.00000  Uiso   1.00
C1179  C     0.14636   0.85584   0.85626   0.00000  Uiso   1.00
C1180  C     0.13817   0.86783   0.89966   0.00000  Uiso   1.00
C1181  C     0.19573   0.80308   0.60119   0.00000  Uiso   1.00
C1182  C     0.10562   0.90952   0.96170   0.00000  Uiso   1.00
C1183  C     0.06756   0.93355   0.98490   0.00000  Uiso   1.00
C1184  C     0.14930   0.84109   0.92170   0.00000  Uiso   1.00
C1185  C     0.02673   0.91672   0.97242   0.00000  Uiso   1.00
C1186  C     0.11287   0.93928   0.89739   0.00000  Uiso   1.00
C1187  C     0.15640   0.96055   0.87486   0.00000  Uiso   1.00
C1188  C     0.12615   0.75197   0.95020   0.00000  Uiso   1.00
C1189  C     0.07906   0.75960   0.96938   0.00000  Uiso   1.00
C1190  C     0.14109   0.84886   0.96298   0.00000  Uiso   1.00
C1191  C     0.12471   0.88688   0.98192   0.00000  Uiso   1.00
C1192  C     0.15263   0.82152   0.98521   0.00000  Uiso   1.00
C1193  C     0.15854   0.83761   0.52263   0.00000  Uiso   1.00
C1194  C     0.14926   0.87875   0.53810   0.00000  Uiso   1.00
C1195  C     0.13154   0.90275   0.51898   0.00000  Uiso   1.00
H1196  H     0.12421   0.99867   0.78396   0.00000  Uiso   1.00
H1197  H     0.07546   0.96766   0.98231   0.00000  Uiso   1.00
H1198  H     0.17575   0.97331   0.89571   0.00000  Uiso   1.00
H1199  H     0.17500   0.93864   0.85144   0.00000  Uiso   1.00
H1200  H     0.15123   0.98685   0.86057   0.00000  Uiso   1.00
H1201  H     0.09212   0.92795   0.87755   0.00000  Uiso   1.00
H1202  H     0.09636   0.96469   0.91769   0.00000  Uiso   1.00
H1203  H     0.06989   0.75619   0.50157   0.00000  Uiso   1.00
H1204  H     0.07325   0.79118   0.96517   0.00000  Uiso   1.00
H1205  H     0.05797   0.73623   0.95546   0.00000  Uiso   1.00
H1206  H     0.13550   0.75650   0.91844   0.00000  Uiso   1.00
H1207  H     0.15536   0.84798   0.60103   0.00000  Uiso   1.00
H1208  H     0.12638   0.71800   0.95046   0.00000  Uiso   1.00
H1209  H     0.23889   0.75694   0.59356   0.00000  Uiso   1.00
H1210  H     0.16794   0.81603   0.90591   0.00000  Uiso   1.00
H1211  H     0.15758   0.89400   0.56434   0.00000  Uiso   1.00
H1212  H     0.03005   0.92226   0.94155   0.00000  Uiso   1.00
H1213  H     0.01921   0.88257   0.97508   0.00000  Uiso   1.00
H1214  H     0.33260   0.93283   0.99213   0.00000  Uiso   1.00
H1215  H     0.05880   0.92952   0.51687   0.00000  Uiso   1.00
O1216  O     0.16667   0.83333   0.75000   0.00000  Uiso   1.00
O1217  O     0.15693   0.79060   0.66625   0.00000  Uiso   1.00
O1218  O     0.12687   0.87313   0.83749   0.00000  Uiso   1.00
O1219  O     0.21088   0.84159   0.65877   0.00000  Uiso   1.00
O1220  O     0.17198   0.82802   0.83749   0.00000  Uiso   1.00
O1221  O     0.17849   0.74768   0.77821   0.00000  Uiso   1.00
O1222  O     0.14581   0.92803   0.76767   0.00000  Uiso   1.00
O1223  O     0.07452   0.79917   0.73607   0.00000  Uiso   1.00
O1224  O     0.26785   0.85845   0.71805   0.00000  Uiso   1.00
O1225  O     0.06990   0.85627   0.77820   0.00000  Uiso   1.00
O1226  O     0.25440   0.81944   0.76767   0.00000  Uiso   1.00
O1227  O     0.13800   0.73570   0.73607   0.00000  Uiso   1.00
O1228  O     0.20437   0.92193   0.71805   0.00000  Uiso   1.00
Zn1229 Zn    0.19244   0.80756   0.78278   0.00000  Uiso   1.00
Zn1230 Zn    0.13459   0.79044   0.72258   0.00000  Uiso   1.00
Zn1231 Zn    0.21166   0.86331   0.71188   0.00000  Uiso   1.00
Zn1232 Zn    0.12798   0.87202   0.78277   0.00000  Uiso   1.00
Br1233 Br    0.46272   0.96077   0.54042   0.00000  Uiso   1.00
Br1234 Br    0.59810   0.72258   0.51262   0.00000  Uiso   1.00
Br1235 Br    0.36667   0.86613   0.69235   0.00000  Uiso   1.00
Br1236 Br    0.63973   0.80192   0.81160   0.00000  Uiso   1.00
Br1237 Br    0.56338   0.67947   0.69845   0.00000  Uiso   1.00
Br1238 Br    0.52951   0.70207   0.96350   0.00000  Uiso   1.00
C1239  C     0.38609   0.82693   0.75856   0.00000  Uiso   1.00
C1240  C     0.48991   0.77819   0.97254   0.00000  Uiso   1.00
C1241  C     0.51627   0.75772   0.98768   0.00000  Uiso   1.00
C1242  C     0.61435   0.84008   0.74131   0.00000  Uiso   1.00
C1243  C     0.52811   0.77643   0.52235   0.00000  Uiso   1.00
C1244  C     0.50935   0.81320   0.54267   0.00000  Uiso   1.00
C1245  C     0.55460   0.75879   0.54002   0.00000  Uiso   1.00
C1246  C     0.55382   0.77174   0.57952   0.00000  Uiso   1.00
C1247  C     0.50807   0.82436   0.58277   0.00000  Uiso   1.00
C1248  C     0.66014   0.84108   0.73717   0.00000  Uiso   1.00
C1249  C     0.34092   0.82465   0.76334   0.00000  Uiso   1.00
C1250  C     0.45133   0.90422   0.91966   0.00000  Uiso   1.00
C1251  C     0.51473   0.98896   0.73788   0.00000  Uiso   1.00
C1252  C     0.48509   0.67880   0.76198   0.00000  Uiso   1.00
C1253  C     0.48871   0.72290   0.75939   0.00000  Uiso   1.00
C1254  C     0.51029   0.94440   0.74133   0.00000  Uiso   1.00
C1255  C     0.52176   0.81158   0.64391   0.00000  Uiso   1.00
C1256  C     0.47969   0.85584   0.85626   0.00000  Uiso   1.00
C1257  C     0.47150   0.86783   0.89966   0.00000  Uiso   1.00
C1258  C     0.52907   0.80308   0.60119   0.00000  Uiso   1.00
C1259  C     0.43895   0.90952   0.96170   0.00000  Uiso   1.00
C1260  C     0.40090   0.93355   0.98490   0.00000  Uiso   1.00
C1261  C     0.48263   0.84109   0.92170   0.00000  Uiso   1.00
C1262  C     0.36006   0.91672   0.97242   0.00000  Uiso   1.00
C1263  C     0.44620   0.93928   0.89739   0.00000  Uiso   1.00
C1264  C     0.48973   0.96055   0.87486   0.00000  Uiso   1.00
C1265  C     0.45948   0.75197   0.95020   0.00000  Uiso   1.00
C1266  C     0.41239   0.75960   0.96938   0.00000  Uiso   1.00
C1267  C     0.47442   0.84886   0.96298   0.00000  Uiso   1.00
C1268  C     0.45804   0.88688   0.98192   0.00000  Uiso   1.00
C1269  C     0.48596   0.82152   0.98521   0.00000  Uiso   1.00
C1270  C     0.49187   0.83761   0.52263   0.00000  Uiso   1.00
C1271  C     0.48260   0.87875   0.53810   0.00000  Uiso   1.00
C1272  C     0.46488   0.90275   0.51898   0.00000  Uiso   1.00
H1273  H     0.45755   0.99867   0.78396   0.00000  Uiso   1.00
H1274  H     0.40879   0.96766   0.98231   0.00000  Uiso   1.00
H1275  H     0.50908   0.97331   0.89571   0.00000  Uiso   1.00
H1276  H     0.50833   0.93864   0.85144   0.00000  Uiso   1.00
H1277  H     0.48456   0.98685   0.86057   0.00000  Uiso   1.00
H1278  H     0.42546   0.92795   0.87755   0.00000  Uiso   1.00
H1279  H     0.42970   0.96469   0.91769   0.00000  Uiso   1.00
H1280  H     0.40322   0.75619   0.50157   0.00000  Uiso   1.00
H1281  H     0.40659   0.79118   0.96517   0.00000  Uiso   1.00
H1282  H     0.39131   0.73623   0.95546   0.00000  Uiso   1.00
H1283  H     0.46883   0.75650   0.91844   0.00000  Uiso   1.00
H1284  H     0.48869   0.84798   0.60103   0.00000  Uiso   1.00
H1285  H     0.45972   0.71800   0.95046   0.00000  Uiso   1.00
H1286  H     0.57222   0.75694   0.59356   0.00000  Uiso   1.00
H1287  H     0.50127   0.81603   0.90591   0.00000  Uiso   1.00
H1288  H     0.49092   0.89400   0.56434   0.00000  Uiso   1.00
H1289  H     0.36338   0.92226   0.94155   0.00000  Uiso   1.00
H1290  H     0.35255   0.88257   0.97508   0.00000  Uiso   1.00
H1291  H     0.66593   0.93283   0.99213   0.00000  Uiso   1.00
H1292  H     0.39213   0.92952   0.51687   0.00000  Uiso   1.00
O1293  O     0.50000   0.83333   0.75000   0.00000  Uiso   1.00
O1294  O     0.49027   0.79060   0.66625   0.00000  Uiso   1.00
O1295  O     0.46020   0.87313   0.83749   0.00000  Uiso   1.00
O1296  O     0.54421   0.84159   0.65877   0.00000  Uiso   1.00
O1297  O     0.50532   0.82802   0.83749   0.00000  Uiso   1.00
O1298  O     0.51182   0.74768   0.77821   0.00000  Uiso   1.00
O1299  O     0.47914   0.92803   0.76767   0.00000  Uiso   1.00
O1300  O     0.40785   0.79917   0.73607   0.00000  Uiso   1.00
O1301  O     0.60119   0.85845   0.71805   0.00000  Uiso   1.00
O1302  O     0.40323   0.85627   0.77820   0.00000  Uiso   1.00
O1303  O     0.58773   0.81944   0.76767   0.00000  Uiso   1.00
O1304  O     0.47133   0.73570   0.73607   0.00000  Uiso   1.00
O1305  O     0.53771   0.92193   0.71805   0.00000  Uiso   1.00
Zn1306 Zn    0.52577   0.80756   0.78278   0.00000  Uiso   1.00
Zn1307 Zn    0.46792   0.79044   0.72258   0.00000  Uiso   1.00
Zn1308 Zn    0.54500   0.86331   0.71188   0.00000  Uiso   1.00
Zn1309 Zn    0.46131   0.87202   0.78277   0.00000  Uiso   1.00
Br1310 Br    0.79605   0.96077   0.54042   0.00000  Uiso   1.00
Br1311 Br    0.93143   0.72258   0.51262   0.00000  Uiso   1.00
Br1312 Br    0.70001   0.86613   0.69235   0.00000  Uiso   1.00
Br1313 Br    0.97306   0.80192   0.81160   0.00000  Uiso   1.00
Br1314 Br    0.89671   0.67947   0.69845   0.00000  Uiso   1.00
Br1315 Br    0.86284   0.70207   0.96350   0.00000  Uiso   1.00
C1316  C     0.71943   0.82693   0.75856   0.00000  Uiso   1.00
C1317  C     0.82324   0.77819   0.97254   0.00000  Uiso   1.00
C1318  C     0.84960   0.75772   0.98768   0.00000  Uiso   1.00
C1319  C     0.94768   0.84008   0.74131   0.00000  Uiso   1.00
C1320  C     0.86144   0.77643   0.52235   0.00000  Uiso   1.00
C1321  C     0.84268   0.81320   0.54267   0.00000  Uiso   1.00
C1322  C     0.88793   0.75879   0.54002   0.00000  Uiso   1.00
C1323  C     0.88715   0.77174   0.57952   0.00000  Uiso   1.00
C1324  C     0.84141   0.82436   0.58277   0.00000  Uiso   1.00
C1325  C     0.99348   0.84108   0.73717   0.00000  Uiso   1.00
C1326  C     0.67426   0.82465   0.76334   0.00000  Uiso   1.00
C1327  C     0.78467   0.90422   0.91966   0.00000  Uiso   1.00
C1328  C     0.84806   0.98896   0.73788   0.00000  Uiso   1.00
C1329  C     0.81842   0.67880   0.76198   0.00000  Uiso   1.00
C1330  C     0.82204   0.72290   0.75939   0.00000  Uiso   1.00
C1331  C     0.84362   0.94440   0.74133   0.00000  Uiso   1.00
C1332  C     0.85509   0.81158   0.64391   0.00000  Uiso   1.00
C1333  C     0.81302   0.85584   0.85626   0.00000  Uiso   1.00
C1334  C     0.80483   0.86783   0.89966   0.00000  Uiso   1.00
C1335  C     0.86240   0.80308   0.60119   0.00000  Uiso   1.00
C1336  C     0.77228   0.90952   0.96170   0.00000  Uiso   1.00
C1337  C     0.73423   0.93355   0.98490   0.00000  Uiso   1.00
C1338  C     0.81596   0.84109   0.92170   0.00000  Uiso   1.00
C1339  C     0.69340   0.91672   0.97242   0.00000  Uiso   1.00
C1340  C     0.77954   0.93928   0.89739   0.00000  Uiso   1.00
C1341  C     0.82306   0.96055   0.87486   0.00000  Uiso   1.00
C1342  C     0.79281   0.75197   0.95020   0.00000  Uiso   1.00
C1343  C     0.74572   0.75960   0.96938   0.00000  Uiso   1.00
C1344  C     0.80776   0.84886   0.96298   0.00000  Uiso   1.00
C1345  C     0.79138   0.88688   0.98192   0.00000  Uiso   1.00
C1346  C     0.81929   0.82152   0.98521   0.00000  Uiso   1.00
C1347  C     0.82521   0.83761   0.52263   0.00000  Uiso   1.00
C1348  C     0.81593   0.87875   0.53810   0.00000  Uiso   1.00
C1349  C     0.79821   0.90275   0.51898   0.00000  Uiso   1.00
H1350  H     0.79088   0.99867   0.78396   0.00000  Uiso   1.00
H1351  H     0.74212   0.96766   0.98231   0.00000  Uiso   1.00
H1352  H     0.84242   0.97331   0.89571   0.00000  Uiso   1.00
H1353  H     0.84167   0.93864   0.85144   0.00000  Uiso   1.00
H1354  H     0.81789   0.98685   0.86057   0.00000  Uiso   1.00
H1355  H     0.75879   0.92795   0.87755   0.00000  Uiso   1.00
H1356  H     0.76303   0.96469   0.91769   0.00000  Uiso   1.00
H1357  H     0.73655   0.75619   0.50157   0.00000  Uiso   1.00
H1358  H     0.73992   0.79118   0.96517   0.00000  Uiso   1.00
H1359  H     0.72464   0.73623   0.95546   0.00000  Uiso   1.00
H1360  H     0.80217   0.75650   0.91844   0.00000  Uiso   1.00
H1361  H     0.82203   0.84798   0.60103   0.00000  Uiso   1.00
H1362  H     0.79305   0.71800   0.95046   0.00000  Uiso   1.00
H1363  H     0.90555   0.75694   0.59356   0.00000  Uiso   1.00
H1364  H     0.83461   0.81603   0.90591   0.00000  Uiso   1.00
H1365  H     0.82425   0.89400   0.56434   0.00000  Uiso   1.00
H1366  H     0.69671   0.92226   0.94155   0.00000  Uiso   1.00
H1367  H     0.68588   0.88257   0.97508   0.00000  Uiso   1.00
H1368  H     0.99926   0.93283   0.99213   0.00000  Uiso   1.00
H1369  H     0.72547   0.92952   0.51687   0.00000  Uiso   1.00
O1370  O     0.83333   0.83333   0.75000   0.00000  Uiso   1.00
O1371  O     0.82360   0.79060   0.66625   0.00000  Uiso   1.00
O1372  O     0.79354   0.87313   0.83749   0.00000  Uiso   1.00
O1373  O     0.87755   0.84159   0.65877   0.00000  Uiso   1.00
O1374  O     0.83865   0.82802   0.83749   0.00000  Uiso   1.00
O1375  O     0.84515   0.74768   0.77821   0.00000  Uiso   1.00
O1376  O     0.81247   0.92803   0.76767   0.00000  Uiso   1.00
O1377  O     0.74119   0.79917   0.73607   0.00000  Uiso   1.00
O1378  O     0.93452   0.85845   0.71805   0.00000  Uiso   1.00
O1379  O     0.73656   0.85627   0.77820   0.00000  Uiso   1.00
O1380  O     0.92106   0.81944   0.76767   0.00000  Uiso   1.00
O1381  O     0.80467   0.73570   0.73607   0.00000  Uiso   1.00
O1382  O     0.87104   0.92193   0.71805   0.00000  Uiso   1.00
Zn1383 Zn    0.85910   0.80756   0.78278   0.00000  Uiso   1.00
Zn1384 Zn    0.80125   0.79044   0.72258   0.00000  Uiso   1.00
Zn1385 Zn    0.87833   0.86331   0.71188   0.00000  Uiso   1.00
Zn1386 Zn    0.79465   0.87202   0.78277   0.00000  Uiso   1.00
loop_
_geom_bond_atom_site_label_1
_geom_bond_atom_site_label_2
_geom_bond_distance
_geom_bond_site_symmetry_2
_ccdc_geom_bond_type
Br1    C40     1.930   .     S
Br2    C13     1.924   .     S
Br3    C170    1.932   1_455 S
Br4    C94     1.933   .     S
Br5    C481    1.931   1_545 S
Br6    C9      1.937   .     S
C7     O68     1.266   .     A
C7     C17     1.430   .     S
C7     O70     1.261   .     A
C8     C9      1.422   .     A
C8     C37     1.426   .     A
C8     C33     1.538   .     S
C9     C704    1.425   .     S
C10    O71     1.270   .     A
C10    C16     1.458   .     S
C10    O69     1.286   .     A
C11    C12     1.424   .     A
C11    C13     1.430   .     A
C11    C702    1.425   1_554 S
C12    C15     1.408   .     A
C12    C38     1.414   .     A
C13    C14     1.399   .     A
C14    C26     1.391   .     A
C14    H54     1.084   .     S
C15    C26     1.384   .     A
C15    H52     1.081   .     S
C16    Br80    1.932   .     S
C16    C94     1.353   .     S
C17    Br158   1.933   1_455 S
C17    C170    1.353   1_455 S
C18    C25     1.431   .     A
C18    C27     1.419   .     A
C18    C31     1.531   .     S
C19    C22     1.451   .     S
C19    Br236   1.931   .     S
C19    C251    1.334   .     S
C20    C21     1.433   .     S
C20    C481    1.334   1_545 S
C20    H503    1.086   1_545 S
C21    O66     1.276   .     A
C21    O72     1.276   .     A
C22    O67     1.272   .     A
C22    O73     1.266   .     A
C23    C26     1.456   .     S
C23    O62     1.274   .     A
C23    O64     1.279   .     A
C24    C25     1.487   .     S
C24    O65     1.298   .     A
C24    O63     1.277   .     A
C25    C29     1.399   .     A
C27    C36     1.414   .     A
C27    C28     1.528   .     S
C28    C30     1.531   .     S
C28    H42     1.110   .     S
C28    H753    1.109   .     S
C29    H55     1.078   .     S
C29    C35     1.402   .     A
C30    H57     1.108   .     S
C30    H58     1.111   .     S
C30    H213    1.111   1_455 S
C31    C32     1.531   .     S
C31    H46     1.108   .     S
C31    H47     1.105   .     S
C32    H45     1.111   .     S
C32    H43     1.110   .     S
C32    H44     1.108   .     S
C33    H53     1.105   .     S
C33    C34     1.532   .     S
C33    H51     1.104   .     S
C34    H50     1.111   .     S
C34    H49     1.108   .     S
C34    H741    1.111   .     S
C35    C37     1.426   .     A
C35    C36     1.416   .     A
C36    C733    1.411   .     S
C37    C731    1.413   .     S
C38    C39     1.410   .     A
C38    C730    1.413   1_554 S
C39    C40     1.387   .     A
C39    H56     1.079   .     S
C40    C729    1.411   1_554 S
H41    C251    1.086   .     S
H48    C727    1.111   1_554 S
H59    C107    1.111   .     S
H60    C721    1.109   1_554 S
O61    Zn75    1.941   .     S
O61    Zn77    1.927   .     S
O61    Zn76    1.931   .     S
O61    Zn74    1.959   .     S
O62    Zn75    1.917   .     S
O63    Zn77    1.928   .     S
O64    Zn76    1.922   .     S
O65    Zn74    1.912   .     S
O66    Zn74    1.925   .     S
O67    Zn77    1.928   .     S
O68    Zn75    1.935   .     S
O69    Zn76    1.947   .     S
O70    Zn77    1.942   .     S
O71    Zn74    1.933   .     S
O72    Zn75    1.933   .     S
O73    Zn76    1.926   .     S
Br78   C117    1.930   .     S
Br79   C90     1.924   .     S
Br81   C171    1.933   .     S
Br82   C558    1.931   1_545 S
Br83   C86     1.937   .     S
C84    O145    1.266   .     A
C84    C94     1.430   .     S
C84    O147    1.261   .     A
C85    C86     1.422   .     A
C85    C114    1.426   .     A
C85    C110    1.538   .     S
C86    C781    1.425   .     S
C87    O148    1.270   .     A
C87    C93     1.458   .     S
C87    O146    1.286   .     A
C88    C89     1.424   .     A
C88    C90     1.430   .     A
C88    C779    1.425   1_554 S
C89    C92     1.408   .     A
C89    C115    1.414   .     A
C90    C91     1.399   .     A
C91    C103    1.391   .     A
C91    H131    1.084   .     S
C92    C103    1.384   .     A
C92    H129    1.081   .     S
C93    Br157   1.932   .     S
C93    C171    1.353   .     S
C95    C102    1.431   .     A
C95    C104    1.419   .     A
C95    C108    1.531   .     S
C96    C99     1.451   .     S
C96    Br313   1.931   .     S
C96    C328    1.334   .     S
C97    C98     1.433   .     S
C97    C558    1.334   1_545 S
C97    H580    1.086   1_545 S
C98    O143    1.276   .     A
C98    O149    1.276   .     A
C99    O144    1.272   .     A
C99    O150    1.266   .     A
C100   C103    1.456   .     S
C100   O139    1.274   .     A
C100   O141    1.279   .     A
C101   C102    1.487   .     S
C101   O142    1.298   .     A
C101   O140    1.277   .     A
C102   C106    1.399   .     A
C104   C113    1.414   .     A
C104   C105    1.528   .     S
C105   C107    1.531   .     S
C105   H119    1.110   .     S
C105   H830    1.109   .     S
C106   H132    1.078   .     S
C106   C112    1.402   .     A
C107   H134    1.108   .     S
C107   H135    1.111   .     S
C108   C109    1.531   .     S
C108   H123    1.108   .     S
C108   H124    1.105   .     S
C109   H122    1.111   .     S
C109   H120    1.110   .     S
C109   H121    1.108   .     S
C110   H130    1.105   .     S
C110   C111    1.532   .     S
C110   H128    1.104   .     S
C111   H127    1.111   .     S
C111   H126    1.108   .     S
C111   H818    1.111   .     S
C112   C114    1.426   .     A
C112   C113    1.416   .     A
C113   C810    1.411   .     S
C114   C808    1.413   .     S
C115   C116    1.410   .     A
C115   C807    1.413   1_554 S
C116   C117    1.387   .     A
C116   H133    1.079   .     S
C117   C806    1.411   1_554 S
H118   C328    1.086   .     S
H125   C804    1.111   1_554 S
H136   C184    1.111   .     S
H137   C798    1.109   1_554 S
O138   Zn152   1.941   .     S
O138   Zn154   1.927   .     S
O138   Zn153   1.931   .     S
O138   Zn151   1.959   .     S
O139   Zn152   1.917   .     S
O140   Zn154   1.928   .     S
O141   Zn153   1.922   .     S
O142   Zn151   1.912   .     S
O143   Zn151   1.925   .     S
O144   Zn154   1.928   .     S
O145   Zn152   1.935   .     S
O146   Zn153   1.947   .     S
O147   Zn154   1.942   .     S
O148   Zn151   1.933   .     S
O149   Zn152   1.933   .     S
O150   Zn153   1.926   .     S
Br155  C194    1.930   .     S
Br156  C167    1.924   .     S
Br158  C17     1.933   1_655 S
Br159  C635    1.931   1_545 S
Br160  C163    1.937   .     S
C161   O222    1.266   .     A
C161   C171    1.430   .     S
C161   O224    1.261   .     A
C162   C163    1.422   .     A
C162   C191    1.426   .     A
C162   C187    1.538   .     S
C163   C858    1.425   .     S
C164   O225    1.270   .     A
C164   C170    1.458   .     S
C164   O223    1.286   .     A
C165   C166    1.424   .     A
C165   C167    1.430   .     A
C165   C856    1.425   1_554 S
C166   C169    1.408   .     A
C166   C192    1.414   .     A
C167   C168    1.399   .     A
C168   C180    1.391   .     A
C168   H208    1.084   .     S
C169   C180    1.384   .     A
C169   H206    1.081   .     S
C170   Br3     1.932   1_655 S
C170   C17     1.353   1_655 S
C172   C179    1.431   .     A
C172   C181    1.419   .     A
C172   C185    1.531   .     S
C173   C176    1.451   .     S
C173   Br390   1.931   .     S
C173   C405    1.334   .     S
C174   C175    1.433   .     S
C174   C635    1.334   1_545 S
C174   H657    1.086   1_545 S
C175   O220    1.276   .     A
C175   O226    1.276   .     A
C176   O221    1.272   .     A
C176   O227    1.266   .     A
C177   C180    1.456   .     S
C177   O216    1.274   .     A
C177   O218    1.279   .     A
C178   C179    1.487   .     S
C178   O219    1.298   .     A
C178   O217    1.277   .     A
C179   C183    1.399   .     A
C181   C190    1.414   .     A
C181   C182    1.528   .     S
C182   C184    1.531   .     S
C182   H196    1.110   .     S
C182   H907    1.109   .     S
C183   H209    1.078   .     S
C183   C189    1.402   .     A
C184   H211    1.108   .     S
C184   H212    1.111   .     S
C185   C186    1.531   .     S
C185   H200    1.108   .     S
C185   H201    1.105   .     S
C186   H199    1.111   .     S
C186   H197    1.110   .     S
C186   H198    1.108   .     S
C187   H207    1.105   .     S
C187   C188    1.532   .     S
C187   H205    1.104   .     S
C188   H204    1.111   .     S
C188   H203    1.108   .     S
C188   H895    1.111   .     S
C189   C191    1.426   .     A
C189   C190    1.416   .     A
C190   C887    1.411   .     S
C191   C885    1.413   .     S
C192   C193    1.410   .     A
C192   C884    1.413   1_554 S
C193   C194    1.387   .     A
C193   H210    1.079   .     S
C194   C883    1.411   1_554 S
H195   C405    1.086   .     S
H202   C881    1.111   1_554 S
H213   C30     1.111   1_655 S
H214   C875    1.109   1_554 S
O215   Zn229   1.941   .     S
O215   Zn231   1.927   .     S
O215   Zn230   1.931   .     S
O215   Zn228   1.959   .     S
O216   Zn229   1.917   .     S
O217   Zn231   1.928   .     S
O218   Zn230   1.922   .     S
O219   Zn228   1.912   .     S
O220   Zn228   1.925   .     S
O221   Zn231   1.928   .     S
O222   Zn229   1.935   .     S
O223   Zn230   1.947   .     S
O224   Zn231   1.942   .     S
O225   Zn228   1.933   .     S
O226   Zn229   1.933   .     S
O227   Zn230   1.926   .     S
Br232  C271    1.930   .     S
Br233  C244    1.924   .     S
Br234  C401    1.932   1_455 S
Br235  C325    1.933   .     S
Br237  C240    1.937   .     S
C238   O299    1.266   .     A
C238   C248    1.430   .     S
C238   O301    1.261   .     A
C239   C240    1.422   .     A
C239   C268    1.426   .     A
C239   C264    1.538   .     S
C240   C935    1.425   .     S
C241   O302    1.270   .     A
C241   C247    1.458   .     S
C241   O300    1.286   .     A
C242   C243    1.424   .     A
C242   C244    1.430   .     A
C242   C933    1.425   1_554 S
C243   C246    1.408   .     A
C243   C269    1.414   .     A
C244   C245    1.399   .     A
C245   C257    1.391   .     A
C245   H285    1.084   .     S
C246   C257    1.384   .     A
C246   H283    1.081   .     S
C247   Br311   1.932   .     S
C247   C325    1.353   .     S
C248   Br389   1.933   1_455 S
C248   C401    1.353   1_455 S
C249   C256    1.431   .     A
C249   C258    1.419   .     A
C249   C262    1.531   .     S
C250   C253    1.451   .     S
C250   Br467   1.931   .     S
C250   C482    1.334   .     S
C251   C252    1.433   .     S
C252   O297    1.276   .     A
C252   O303    1.276   .     A
C253   O298    1.272   .     A
C253   O304    1.266   .     A
C254   C257    1.456   .     S
C254   O293    1.274   .     A
C254   O295    1.279   .     A
C255   C256    1.487   .     S
C255   O296    1.298   .     A
C255   O294    1.277   .     A
C256   C260    1.399   .     A
C258   C267    1.414   .     A
C258   C259    1.528   .     S
C259   C261    1.531   .     S
C259   H273    1.110   .     S
C259   H984    1.109   .     S
C260   H286    1.078   .     S
C260   C266    1.402   .     A
C261   H288    1.108   .     S
C261   H289    1.111   .     S
C261   H444    1.111   1_455 S
C262   C263    1.531   .     S
C262   H277    1.108   .     S
C262   H278    1.105   .     S
C263   H276    1.111   .     S
C263   H274    1.110   .     S
C263   H275    1.108   .     S
C264   H284    1.105   .     S
C264   C265    1.532   .     S
C264   H282    1.104   .     S
C265   H281    1.111   .     S
C265   H280    1.108   .     S
C265   H972    1.111   .     S
C266   C268    1.426   .     A
C266   C267    1.416   .     A
C267   C964    1.411   .     S
C268   C962    1.413   .     S
C269   C270    1.410   .     A
C269   C961    1.413   1_554 S
C270   C271    1.387   .     A
C270   H287    1.079   .     S
C271   C960    1.411   1_554 S
H272   C482    1.086   .     S
H279   C958    1.111   1_554 S
H290   C338    1.111   .     S
H291   C952    1.109   1_554 S
O292   Zn306   1.941   .     S
O292   Zn308   1.927   .     S
O292   Zn307   1.931   .     S
O292   Zn305   1.959   .     S
O293   Zn306   1.917   .     S
O294   Zn308   1.928   .     S
O295   Zn307   1.922   .     S
O296   Zn305   1.912   .     S
O297   Zn305   1.925   .     S
O298   Zn308   1.928   .     S
O299   Zn306   1.935   .     S
O300   Zn307   1.947   .     S
O301   Zn308   1.942   .     S
O302   Zn305   1.933   .     S
O303   Zn306   1.933   .     S
O304   Zn307   1.926   .     S
Br309  C348    1.930   .     S
Br310  C321    1.924   .     S
Br312  C402    1.933   .     S
Br314  C317    1.937   .     S
C315   O376    1.266   .     A
C315   C325    1.430   .     S
C315   O378    1.261   .     A
C316   C317    1.422   .     A
C316   C345    1.426   .     A
C316   C341    1.538   .     S
C317   C1012   1.425   .     S
C318   O379    1.270   .     A
C318   C324    1.458   .     S
C318   O377    1.286   .     A
C319   C320    1.424   .     A
C319   C321    1.430   .     A
C319   C1010   1.425   1_554 S
C320   C323    1.408   .     A
C320   C346    1.414   .     A
C321   C322    1.399   .     A
C322   C334    1.391   .     A
C322   H362    1.084   .     S
C323   C334    1.384   .     A
C323   H360    1.081   .     S
C324   Br388   1.932   .     S
C324   C402    1.353   .     S
C326   C333    1.431   .     A
C326   C335    1.419   .     A
C326   C339    1.531   .     S
C327   C330    1.451   .     S
C327   Br544   1.931   .     S
C327   C559    1.334   .     S
C328   C329    1.433   .     S
C329   O374    1.276   .     A
C329   O380    1.276   .     A
C330   O375    1.272   .     A
C330   O381    1.266   .     A
C331   C334    1.456   .     S
C331   O370    1.274   .     A
C331   O372    1.279   .     A
C332   C333    1.487   .     S
C332   O373    1.298   .     A
C332   O371    1.277   .     A
C333   C337    1.399   .     A
C335   C344    1.414   .     A
C335   C336    1.528   .     S
C336   C338    1.531   .     S
C336   H350    1.110   .     S
C336   H1061   1.109   .     S
C337   H363    1.078   .     S
C337   C343    1.402   .     A
C338   H365    1.108   .     S
C338   H366    1.111   .     S
C339   C340    1.531   .     S
C339   H354    1.108   .     S
C339   H355    1.105   .     S
C340   H353    1.111   .     S
C340   H351    1.110   .     S
C340   H352    1.108   .     S
C341   H361    1.105   .     S
C341   C342    1.532   .     S
C341   H359    1.104   .     S
C342   H358    1.111   .     S
C342   H357    1.108   .     S
C342   H1049   1.111   .     S
C343   C345    1.426   .     A
C343   C344    1.416   .     A
C344   C1041   1.411   .     S
C345   C1039   1.413   .     S
C346   C347    1.410   .     A
C346   C1038   1.413   1_554 S
C347   C348    1.387   .     A
C347   H364    1.079   .     S
C348   C1037   1.411   1_554 S
H349   C559    1.086   .     S
H356   C1035   1.111   1_554 S
H367   C415    1.111   .     S
H368   C1029   1.109   1_554 S
O369   Zn383   1.941   .     S
O369   Zn385   1.927   .     S
O369   Zn384   1.931   .     S
O369   Zn382   1.959   .     S
O370   Zn383   1.917   .     S
O371   Zn385   1.928   .     S
O372   Zn384   1.922   .     S
O373   Zn382   1.912   .     S
O374   Zn382   1.925   .     S
O375   Zn385   1.928   .     S
O376   Zn383   1.935   .     S
O377   Zn384   1.947   .     S
O378   Zn385   1.942   .     S
O379   Zn382   1.933   .     S
O380   Zn383   1.933   .     S
O381   Zn384   1.926   .     S
Br386  C425    1.930   .     S
Br387  C398    1.924   .     S
Br389  C248    1.933   1_655 S
Br391  C394    1.937   .     S
C392   O453    1.266   .     A
C392   C402    1.430   .     S
C392   O455    1.261   .     A
C393   C394    1.422   .     A
C393   C422    1.426   .     A
C393   C418    1.538   .     S
C394   C1089   1.425   .     S
C395   O456    1.270   .     A
C395   C401    1.458   .     S
C395   O454    1.286   .     A
C396   C397    1.424   .     A
C396   C398    1.430   .     A
C396   C1087   1.425   1_554 S
C397   C400    1.408   .     A
C397   C423    1.414   .     A
C398   C399    1.399   .     A
C399   C411    1.391   .     A
C399   H439    1.084   .     S
C400   C411    1.384   .     A
C400   H437    1.081   .     S
C401   Br234   1.932   1_655 S
C401   C248    1.353   1_655 S
C403   C410    1.431   .     A
C403   C412    1.419   .     A
C403   C416    1.531   .     S
C404   C407    1.451   .     S
C404   Br621   1.931   .     S
C404   C636    1.334   .     S
C405   C406    1.433   .     S
C406   O451    1.276   .     A
C406   O457    1.276   .     A
C407   O452    1.272   .     A
C407   O458    1.266   .     A
C408   C411    1.456   .     S
C408   O447    1.274   .     A
C408   O449    1.279   .     A
C409   C410    1.487   .     S
C409   O450    1.298   .     A
C409   O448    1.277   .     A
C410   C414    1.399   .     A
C412   C421    1.414   .     A
C412   C413    1.528   .     S
C413   C415    1.531   .     S
C413   H427    1.110   .     S
C413   H1138   1.109   .     S
C414   H440    1.078   .     S
C414   C420    1.402   .     A
C415   H442    1.108   .     S
C415   H443    1.111   .     S
C416   C417    1.531   .     S
C416   H431    1.108   .     S
C416   H432    1.105   .     S
C417   H430    1.111   .     S
C417   H428    1.110   .     S
C417   H429    1.108   .     S
C418   H438    1.105   .     S
C418   C419    1.532   .     S
C418   H436    1.104   .     S
C419   H435    1.111   .     S
C419   H434    1.108   .     S
C419   H1126   1.111   .     S
C420   C422    1.426   .     A
C420   C421    1.416   .     A
C421   C1118   1.411   .     S
C422   C1116   1.413   .     S
C423   C424    1.410   .     A
C423   C1115   1.413   1_554 S
C424   C425    1.387   .     A
C424   H441    1.079   .     S
C425   C1114   1.411   1_554 S
H426   C636    1.086   .     S
H433   C1112   1.111   1_554 S
H444   C261    1.111   1_655 S
H445   C1106   1.109   1_554 S
O446   Zn460   1.941   .     S
O446   Zn462   1.927   .     S
O446   Zn461   1.931   .     S
O446   Zn459   1.959   .     S
O447   Zn460   1.917   .     S
O448   Zn462   1.928   .     S
O449   Zn461   1.922   .     S
O450   Zn459   1.912   .     S
O451   Zn459   1.925   .     S
O452   Zn462   1.928   .     S
O453   Zn460   1.935   .     S
O454   Zn461   1.947   .     S
O455   Zn462   1.942   .     S
O456   Zn459   1.933   .     S
O457   Zn460   1.933   .     S
O458   Zn461   1.926   .     S
Br463  C502    1.930   .     S
Br464  C475    1.924   .     S
Br465  C632    1.932   1_455 S
Br466  C556    1.933   .     S
Br468  C471    1.937   .     S
C469   O530    1.266   .     A
C469   C479    1.430   .     S
C469   O532    1.261   .     A
C470   C471    1.422   .     A
C470   C499    1.426   .     A
C470   C495    1.538   .     S
C471   C1166   1.425   .     S
C472   O533    1.270   .     A
C472   C478    1.458   .     S
C472   O531    1.286   .     A
C473   C474    1.424   .     A
C473   C475    1.430   .     A
C473   C1164   1.425   1_554 S
C474   C477    1.408   .     A
C474   C500    1.414   .     A
C475   C476    1.399   .     A
C476   C488    1.391   .     A
C476   H516    1.084   .     S
C477   C488    1.384   .     A
C477   H514    1.081   .     S
C478   Br542   1.932   .     S
C478   C556    1.353   .     S
C479   Br620   1.933   1_455 S
C479   C632    1.353   1_455 S
C480   C487    1.431   .     A
C480   C489    1.419   .     A
C480   C493    1.531   .     S
C481   C484    1.451   .     S
C481   Br5     1.931   1_565 S
C481   C20     1.334   1_565 S
C482   C483    1.433   .     S
C483   O528    1.276   .     A
C483   O534    1.276   .     A
C484   O529    1.272   .     A
C484   O535    1.266   .     A
C485   C488    1.456   .     S
C485   O524    1.274   .     A
C485   O526    1.279   .     A
C486   C487    1.487   .     S
C486   O527    1.298   .     A
C486   O525    1.277   .     A
C487   C491    1.399   .     A
C489   C498    1.414   .     A
C489   C490    1.528   .     S
C490   C492    1.531   .     S
C490   H504    1.110   .     S
C490   H1215   1.109   .     S
C491   H517    1.078   .     S
C491   C497    1.402   .     A
C492   H519    1.108   .     S
C492   H520    1.111   .     S
C492   H675    1.111   1_455 S
C493   C494    1.531   .     S
C493   H508    1.108   .     S
C493   H509    1.105   .     S
C494   H507    1.111   .     S
C494   H505    1.110   .     S
C494   H506    1.108   .     S
C495   H515    1.105   .     S
C495   C496    1.532   .     S
C495   H513    1.104   .     S
C496   H512    1.111   .     S
C496   H511    1.108   .     S
C496   H1203   1.111   .     S
C497   C499    1.426   .     A
C497   C498    1.416   .     A
C498   C1195   1.411   .     S
C499   C1193   1.413   .     S
C500   C501    1.410   .     A
C500   C1192   1.413   1_554 S
C501   C502    1.387   .     A
C501   H518    1.079   .     S
C502   C1191   1.411   1_554 S
H503   C20     1.086   1_565 S
H510   C1189   1.111   1_554 S
H521   C569    1.111   .     S
H522   C1183   1.109   1_554 S
O523   Zn537   1.941   .     S
O523   Zn539   1.927   .     S
O523   Zn538   1.931   .     S
O523   Zn536   1.959   .     S
O524   Zn537   1.917   .     S
O525   Zn539   1.928   .     S
O526   Zn538   1.922   .     S
O527   Zn536   1.912   .     S
O528   Zn536   1.925   .     S
O529   Zn539   1.928   .     S
O530   Zn537   1.935   .     S
O531   Zn538   1.947   .     S
O532   Zn539   1.942   .     S
O533   Zn536   1.933   .     S
O534   Zn537   1.933   .     S
O535   Zn538   1.926   .     S
Br540  C579    1.930   .     S
Br541  C552    1.924   .     S
Br543  C633    1.933   .     S
Br545  C548    1.937   .     S
C546   O607    1.266   .     A
C546   C556    1.430   .     S
C546   O609    1.261   .     A
C547   C548    1.422   .     A
C547   C576    1.426   .     A
C547   C572    1.538   .     S
C548   C1243   1.425   .     S
C549   O610    1.270   .     A
C549   C555    1.458   .     S
C549   O608    1.286   .     A
C550   C551    1.424   .     A
C550   C552    1.430   .     A
C550   C1241   1.425   1_554 S
C551   C554    1.408   .     A
C551   C577    1.414   .     A
C552   C553    1.399   .     A
C553   C565    1.391   .     A
C553   H593    1.084   .     S
C554   C565    1.384   .     A
C554   H591    1.081   .     S
C555   Br619   1.932   .     S
C555   C633    1.353   .     S
C557   C564    1.431   .     A
C557   C566    1.419   .     A
C557   C570    1.531   .     S
C558   C561    1.451   .     S
C558   Br82    1.931   1_565 S
C558   C97     1.334   1_565 S
C559   C560    1.433   .     S
C560   O605    1.276   .     A
C560   O611    1.276   .     A
C561   O606    1.272   .     A
C561   O612    1.266   .     A
C562   C565    1.456   .     S
C562   O601    1.274   .     A
C562   O603    1.279   .     A
C563   C564    1.487   .     S
C563   O604    1.298   .     A
C563   O602    1.277   .     A
C564   C568    1.399   .     A
C566   C575    1.414   .     A
C566   C567    1.528   .     S
C567   C569    1.531   .     S
C567   H581    1.110   .     S
C567   H1292   1.109   .     S
C568   H594    1.078   .     S
C568   C574    1.402   .     A
C569   H596    1.108   .     S
C569   H597    1.111   .     S
C570   C571    1.531   .     S
C570   H585    1.108   .     S
C570   H586    1.105   .     S
C571   H584    1.111   .     S
C571   H582    1.110   .     S
C571   H583    1.108   .     S
C572   H592    1.105   .     S
C572   C573    1.532   .     S
C572   H590    1.104   .     S
C573   H589    1.111   .     S
C573   H588    1.108   .     S
C573   H1280   1.111   .     S
C574   C576    1.426   .     A
C574   C575    1.416   .     A
C575   C1272   1.411   .     S
C576   C1270   1.413   .     S
C577   C578    1.410   .     A
C577   C1269   1.413   1_554 S
C578   C579    1.387   .     A
C578   H595    1.079   .     S
C579   C1268   1.411   1_554 S
H580   C97     1.086   1_565 S
H587   C1266   1.111   1_554 S
H598   C646    1.111   .     S
H599   C1260   1.109   1_554 S
O600   Zn614   1.941   .     S
O600   Zn616   1.927   .     S
O600   Zn615   1.931   .     S
O600   Zn613   1.959   .     S
O601   Zn614   1.917   .     S
O602   Zn616   1.928   .     S
O603   Zn615   1.922   .     S
O604   Zn613   1.912   .     S
O605   Zn613   1.925   .     S
O606   Zn616   1.928   .     S
O607   Zn614   1.935   .     S
O608   Zn615   1.947   .     S
O609   Zn616   1.942   .     S
O610   Zn613   1.933   .     S
O611   Zn614   1.933   .     S
O612   Zn615   1.926   .     S
Br617  C656    1.930   .     S
Br618  C629    1.924   .     S
Br620  C479    1.933   1_655 S
Br622  C625    1.937   .     S
C623   O684    1.266   .     A
C623   C633    1.430   .     S
C623   O686    1.261   .     A
C624   C625    1.422   .     A
C624   C653    1.426   .     A
C624   C649    1.538   .     S
C625   C1320   1.425   .     S
C626   O687    1.270   .     A
C626   C632    1.458   .     S
C626   O685    1.286   .     A
C627   C628    1.424   .     A
C627   C629    1.430   .     A
C627   C1318   1.425   1_554 S
C628   C631    1.408   .     A
C628   C654    1.414   .     A
C629   C630    1.399   .     A
C630   C642    1.391   .     A
C630   H670    1.084   .     S
C631   C642    1.384   .     A
C631   H668    1.081   .     S
C632   Br465   1.932   1_655 S
C632   C479    1.353   1_655 S
C634   C641    1.431   .     A
C634   C643    1.419   .     A
C634   C647    1.531   .     S
C635   C638    1.451   .     S
C635   Br159   1.931   1_565 S
C635   C174    1.334   1_565 S
C636   C637    1.433   .     S
C637   O682    1.276   .     A
C637   O688    1.276   .     A
C638   O683    1.272   .     A
C638   O689    1.266   .     A
C639   C642    1.456   .     S
C639   O678    1.274   .     A
C639   O680    1.279   .     A
C640   C641    1.487   .     S
C640   O681    1.298   .     A
C640   O679    1.277   .     A
C641   C645    1.399   .     A
C643   C652    1.414   .     A
C643   C644    1.528   .     S
C644   C646    1.531   .     S
C644   H658    1.110   .     S
C644   H1369   1.109   .     S
C645   H671    1.078   .     S
C645   C651    1.402   .     A
C646   H673    1.108   .     S
C646   H674    1.111   .     S
C647   C648    1.531   .     S
C647   H662    1.108   .     S
C647   H663    1.105   .     S
C648   H661    1.111   .     S
C648   H659    1.110   .     S
C648   H660    1.108   .     S
C649   H669    1.105   .     S
C649   C650    1.532   .     S
C649   H667    1.104   .     S
C650   H666    1.111   .     S
C650   H665    1.108   .     S
C650   H1357   1.111   .     S
C651   C653    1.426   .     A
C651   C652    1.416   .     A
C652   C1349   1.411   .     S
C653   C1347   1.413   .     S
C654   C655    1.410   .     A
C654   C1346   1.413   1_554 S
C655   C656    1.387   .     A
C655   H672    1.079   .     S
C656   C1345   1.411   1_554 S
H657   C174    1.086   1_565 S
H664   C1343   1.111   1_554 S
H675   C492    1.111   1_655 S
H676   C1337   1.109   1_554 S
O677   Zn691   1.941   .     S
O677   Zn693   1.927   .     S
O677   Zn692   1.931   .     S
O677   Zn690   1.959   .     S
O678   Zn691   1.917   .     S
O679   Zn693   1.928   .     S
O680   Zn692   1.922   .     S
O681   Zn690   1.912   .     S
O682   Zn690   1.925   .     S
O683   Zn693   1.928   .     S
O684   Zn691   1.935   .     S
O685   Zn692   1.947   .     S
O686   Zn693   1.942   .     S
O687   Zn690   1.933   .     S
O688   Zn691   1.933   .     S
O689   Zn692   1.926   .     S
Br694  C733    1.930   .     S
Br695  C706    1.924   .     S
Br696  C863    1.932   1_455 S
Br697  C787    1.933   .     S
Br698  C1174   1.931   1_545 S
Br699  C702    1.937   .     S
C700   O761    1.266   .     A
C700   C710    1.430   .     S
C700   O763    1.261   .     A
C701   C702    1.422   .     A
C701   C730    1.426   .     A
C701   C726    1.538   .     S
C702   C11     1.425   1_556 S
C703   O764    1.270   .     A
C703   C709    1.458   .     S
C703   O762    1.286   .     A
C704   C705    1.424   .     A
C704   C706    1.430   .     A
C705   C708    1.408   .     A
C705   C731    1.414   .     A
C706   C707    1.399   .     A
C707   C719    1.391   .     A
C707   H747    1.084   .     S
C708   C719    1.384   .     A
C708   H745    1.081   .     S
C709   Br773   1.932   .     S
C709   C787    1.353   .     S
C710   Br851   1.933   1_455 S
C710   C863    1.353   1_455 S
C711   C718    1.431   .     A
C711   C720    1.419   .     A
C711   C724    1.531   .     S
C712   C715    1.451   .     S
C712   Br929   1.931   .     S
C712   C944    1.334   .     S
C713   C714    1.433   .     S
C713   C1174   1.334   1_545 S
C713   H1196   1.086   1_545 S
C714   O759    1.276   .     A
C714   O765    1.276   .     A
C715   O760    1.272   .     A
C715   O766    1.266   .     A
C716   C719    1.456   .     S
C716   O755    1.274   .     A
C716   O757    1.279   .     A
C717   C718    1.487   .     S
C717   O758    1.298   .     A
C717   O756    1.277   .     A
C718   C722    1.399   .     A
C720   C729    1.414   .     A
C720   C721    1.528   .     S
C721   C723    1.531   .     S
C721   H735    1.110   .     S
C721   H60     1.109   1_556 S
C722   H748    1.078   .     S
C722   C728    1.402   .     A
C723   H750    1.108   .     S
C723   H751    1.111   .     S
C723   H906    1.111   1_455 S
C724   C725    1.531   .     S
C724   H739    1.108   .     S
C724   H740    1.105   .     S
C725   H738    1.111   .     S
C725   H736    1.110   .     S
C725   H737    1.108   .     S
C726   H746    1.105   .     S
C726   C727    1.532   .     S
C726   H744    1.104   .     S
C727   H743    1.111   .     S
C727   H742    1.108   .     S
C727   H48     1.111   1_556 S
C728   C730    1.426   .     A
C728   C729    1.416   .     A
C729   C40     1.411   1_556 S
C730   C38     1.413   1_556 S
C731   C732    1.410   .     A
C732   C733    1.387   .     A
C732   H749    1.079   .     S
H734   C944    1.086   .     S
H752   C800    1.111   .     S
O754   Zn768   1.941   .     S
O754   Zn770   1.927   .     S
O754   Zn769   1.931   .     S
O754   Zn767   1.959   .     S
O755   Zn768   1.917   .     S
O756   Zn770   1.928   .     S
O757   Zn769   1.922   .     S
O758   Zn767   1.912   .     S
O759   Zn767   1.925   .     S
O760   Zn770   1.928   .     S
O761   Zn768   1.935   .     S
O762   Zn769   1.947   .     S
O763   Zn770   1.942   .     S
O764   Zn767   1.933   .     S
O765   Zn768   1.933   .     S
O766   Zn769   1.926   .     S
Br771  C810    1.930   .     S
Br772  C783    1.924   .     S
Br774  C864    1.933   .     S
Br775  C1251   1.931   1_545 S
Br776  C779    1.937   .     S
C777   O838    1.266   .     A
C777   C787    1.430   .     S
C777   O840    1.261   .     A
C778   C779    1.422   .     A
C778   C807    1.426   .     A
C778   C803    1.538   .     S
C779   C88     1.425   1_556 S
C780   O841    1.270   .     A
C780   C786    1.458   .     S
C780   O839    1.286   .     A
C781   C782    1.424   .     A
C781   C783    1.430   .     A
C782   C785    1.408   .     A
C782   C808    1.414   .     A
C783   C784    1.399   .     A
C784   C796    1.391   .     A
C784   H824    1.084   .     S
C785   C796    1.384   .     A
C785   H822    1.081   .     S
C786   Br850   1.932   .     S
C786   C864    1.353   .     S
C788   C795    1.431   .     A
C788   C797    1.419   .     A
C788   C801    1.531   .     S
C789   C792    1.451   .     S
C789   Br1006  1.931   .     S
C789   C1021   1.334   .     S
C790   C791    1.433   .     S
C790   C1251   1.334   1_545 S
C790   H1273   1.086   1_545 S
C791   O836    1.276   .     A
C791   O842    1.276   .     A
C792   O837    1.272   .     A
C792   O843    1.266   .     A
C793   C796    1.456   .     S
C793   O832    1.274   .     A
C793   O834    1.279   .     A
C794   C795    1.487   .     S
C794   O835    1.298   .     A
C794   O833    1.277   .     A
C795   C799    1.399   .     A
C797   C806    1.414   .     A
C797   C798    1.528   .     S
C798   C800    1.531   .     S
C798   H812    1.110   .     S
C798   H137    1.109   1_556 S
C799   H825    1.078   .     S
C799   C805    1.402   .     A
C800   H827    1.108   .     S
C800   H828    1.111   .     S
C801   C802    1.531   .     S
C801   H816    1.108   .     S
C801   H817    1.105   .     S
C802   H815    1.111   .     S
C802   H813    1.110   .     S
C802   H814    1.108   .     S
C803   H823    1.105   .     S
C803   C804    1.532   .     S
C803   H821    1.104   .     S
C804   H820    1.111   .     S
C804   H819    1.108   .     S
C804   H125    1.111   1_556 S
C805   C807    1.426   .     A
C805   C806    1.416   .     A
C806   C117    1.411   1_556 S
C807   C115    1.413   1_556 S
C808   C809    1.410   .     A
C809   C810    1.387   .     A
C809   H826    1.079   .     S
H811   C1021   1.086   .     S
H829   C877    1.111   .     S
O831   Zn845   1.941   .     S
O831   Zn847   1.927   .     S
O831   Zn846   1.931   .     S
O831   Zn844   1.959   .     S
O832   Zn845   1.917   .     S
O833   Zn847   1.928   .     S
O834   Zn846   1.922   .     S
O835   Zn844   1.912   .     S
O836   Zn844   1.925   .     S
O837   Zn847   1.928   .     S
O838   Zn845   1.935   .     S
O839   Zn846   1.947   .     S
O840   Zn847   1.942   .     S
O841   Zn844   1.933   .     S
O842   Zn845   1.933   .     S
O843   Zn846   1.926   .     S
Br848  C887    1.930   .     S
Br849  C860    1.924   .     S
Br851  C710    1.933   1_655 S
Br852  C1328   1.931   1_545 S
Br853  C856    1.937   .     S
C854   O915    1.266   .     A
C854   C864    1.430   .     S
C854   O917    1.261   .     A
C855   C856    1.422   .     A
C855   C884    1.426   .     A
C855   C880    1.538   .     S
C856   C165    1.425   1_556 S
C857   O918    1.270   .     A
C857   C863    1.458   .     S
C857   O916    1.286   .     A
C858   C859    1.424   .     A
C858   C860    1.430   .     A
C859   C862    1.408   .     A
C859   C885    1.414   .     A
C860   C861    1.399   .     A
C861   C873    1.391   .     A
C861   H901    1.084   .     S
C862   C873    1.384   .     A
C862   H899    1.081   .     S
C863   Br696   1.932   1_655 S
C863   C710    1.353   1_655 S
C865   C872    1.431   .     A
C865   C874    1.419   .     A
C865   C878    1.531   .     S
C866   C869    1.451   .     S
C866   Br1083  1.931   .     S
C866   C1098   1.334   .     S
C867   C868    1.433   .     S
C867   C1328   1.334   1_545 S
C867   H1350   1.086   1_545 S
C868   O913    1.276   .     A
C868   O919    1.276   .     A
C869   O914    1.272   .     A
C869   O920    1.266   .     A
C870   C873    1.456   .     S
C870   O909    1.274   .     A
C870   O911    1.279   .     A
C871   C872    1.487   .     S
C871   O912    1.298   .     A
C871   O910    1.277   .     A
C872   C876    1.399   .     A
C874   C883    1.414   .     A
C874   C875    1.528   .     S
C875   C877    1.531   .     S
C875   H889    1.110   .     S
C875   H214    1.109   1_556 S
C876   H902    1.078   .     S
C876   C882    1.402   .     A
C877   H904    1.108   .     S
C877   H905    1.111   .     S
C878   C879    1.531   .     S
C878   H893    1.108   .     S
C878   H894    1.105   .     S
C879   H892    1.111   .     S
C879   H890    1.110   .     S
C879   H891    1.108   .     S
C880   H900    1.105   .     S
C880   C881    1.532   .     S
C880   H898    1.104   .     S
C881   H897    1.111   .     S
C881   H896    1.108   .     S
C881   H202    1.111   1_556 S
C882   C884    1.426   .     A
C882   C883    1.416   .     A
C883   C194    1.411   1_556 S
C884   C192    1.413   1_556 S
C885   C886    1.410   .     A
C886   C887    1.387   .     A
C886   H903    1.079   .     S
H888   C1098   1.086   .     S
H906   C723    1.111   1_655 S
O908   Zn922   1.941   .     S
O908   Zn924   1.927   .     S
O908   Zn923   1.931   .     S
O908   Zn921   1.959   .     S
O909   Zn922   1.917   .     S
O910   Zn924   1.928   .     S
O911   Zn923   1.922   .     S
O912   Zn921   1.912   .     S
O913   Zn921   1.925   .     S
O914   Zn924   1.928   .     S
O915   Zn922   1.935   .     S
O916   Zn923   1.947   .     S
O917   Zn924   1.942   .     S
O918   Zn921   1.933   .     S
O919   Zn922   1.933   .     S
O920   Zn923   1.926   .     S
Br925  C964    1.930   .     S
Br926  C937    1.924   .     S
Br927  C1094   1.932   1_455 S
Br928  C1018   1.933   .     S
Br930  C933    1.937   .     S
C931   O992    1.266   .     A
C931   C941    1.430   .     S
C931   O994    1.261   .     A
C932   C933    1.422   .     A
C932   C961    1.426   .     A
C932   C957    1.538   .     S
C933   C242    1.425   1_556 S
C934   O995    1.270   .     A
C934   C940    1.458   .     S
C934   O993    1.286   .     A
C935   C936    1.424   .     A
C935   C937    1.430   .     A
C936   C939    1.408   .     A
C936   C962    1.414   .     A
C937   C938    1.399   .     A
C938   C950    1.391   .     A
C938   H978    1.084   .     S
C939   C950    1.384   .     A
C939   H976    1.081   .     S
C940   Br1004  1.932   .     S
C940   C1018   1.353   .     S
C941   Br1082  1.933   1_455 S
C941   C1094   1.353   1_455 S
C942   C949    1.431   .     A
C942   C951    1.419   .     A
C942   C955    1.531   .     S
C943   C946    1.451   .     S
C943   Br1160  1.931   .     S
C943   C1175   1.334   .     S
C944   C945    1.433   .     S
C945   O990    1.276   .     A
C945   O996    1.276   .     A
C946   O991    1.272   .     A
C946   O997    1.266   .     A
C947   C950    1.456   .     S
C947   O986    1.274   .     A
C947   O988    1.279   .     A
C948   C949    1.487   .     S
C948   O989    1.298   .     A
C948   O987    1.277   .     A
C949   C953    1.399   .     A
C951   C960    1.414   .     A
C951   C952    1.528   .     S
C952   C954    1.531   .     S
C952   H966    1.110   .     S
C952   H291    1.109   1_556 S
C953   H979    1.078   .     S
C953   C959    1.402   .     A
C954   H981    1.108   .     S
C954   H982    1.111   .     S
C954   H1137   1.111   1_455 S
C955   C956    1.531   .     S
C955   H970    1.108   .     S
C955   H971    1.105   .     S
C956   H969    1.111   .     S
C956   H967    1.110   .     S
C956   H968    1.108   .     S
C957   H977    1.105   .     S
C957   C958    1.532   .     S
C957   H975    1.104   .     S
C958   H974    1.111   .     S
C958   H973    1.108   .     S
C958   H279    1.111   1_556 S
C959   C961    1.426   .     A
C959   C960    1.416   .     A
C960   C271    1.411   1_556 S
C961   C269    1.413   1_556 S
C962   C963    1.410   .     A
C963   C964    1.387   .     A
C963   H980    1.079   .     S
H965   C1175   1.086   .     S
H983   C1031   1.111   .     S
O985   Zn999   1.941   .     S
O985   Zn1001  1.927   .     S
O985   Zn1000  1.931   .     S
O985   Zn998   1.959   .     S
O986   Zn999   1.917   .     S
O987   Zn1001  1.928   .     S
O988   Zn1000  1.922   .     S
O989   Zn998   1.912   .     S
O990   Zn998   1.925   .     S
O991   Zn1001  1.928   .     S
O992   Zn999   1.935   .     S
O993   Zn1000  1.947   .     S
O994   Zn1001  1.942   .     S
O995   Zn998   1.933   .     S
O996   Zn999   1.933   .     S
O997   Zn1000  1.926   .     S
Br1002 C1041   1.930   .     S
Br1003 C1014   1.924   .     S
Br1005 C1095   1.933   .     S
Br1007 C1010   1.937   .     S
C1008  O1069   1.266   .     A
C1008  C1018   1.430   .     S
C1008  O1071   1.261   .     A
C1009  C1010   1.422   .     A
C1009  C1038   1.426   .     A
C1009  C1034   1.538   .     S
C1010  C319    1.425   1_556 S
C1011  O1072   1.270   .     A
C1011  C1017   1.458   .     S
C1011  O1070   1.286   .     A
C1012  C1013   1.424   .     A
C1012  C1014   1.430   .     A
C1013  C1016   1.408   .     A
C1013  C1039   1.414   .     A
C1014  C1015   1.399   .     A
C1015  C1027   1.391   .     A
C1015  H1055   1.084   .     S
C1016  C1027   1.384   .     A
C1016  H1053   1.081   .     S
C1017  Br1081  1.932   .     S
C1017  C1095   1.353   .     S
C1019  C1026   1.431   .     A
C1019  C1028   1.419   .     A
C1019  C1032   1.531   .     S
C1020  C1023   1.451   .     S
C1020  Br1237  1.931   .     S
C1020  C1252   1.334   .     S
C1021  C1022   1.433   .     S
C1022  O1067   1.276   .     A
C1022  O1073   1.276   .     A
C1023  O1068   1.272   .     A
C1023  O1074   1.266   .     A
C1024  C1027   1.456   .     S
C1024  O1063   1.274   .     A
C1024  O1065   1.279   .     A
C1025  C1026   1.487   .     S
C1025  O1066   1.298   .     A
C1025  O1064   1.277   .     A
C1026  C1030   1.399   .     A
C1028  C1037   1.414   .     A
C1028  C1029   1.528   .     S
C1029  C1031   1.531   .     S
C1029  H1043   1.110   .     S
C1029  H368    1.109   1_556 S
C1030  H1056   1.078   .     S
C1030  C1036   1.402   .     A
C1031  H1058   1.108   .     S
C1031  H1059   1.111   .     S
C1032  C1033   1.531   .     S
C1032  H1047   1.108   .     S
C1032  H1048   1.105   .     S
C1033  H1046   1.111   .     S
C1033  H1044   1.110   .     S
C1033  H1045   1.108   .     S
C1034  H1054   1.105   .     S
C1034  C1035   1.532   .     S
C1034  H1052   1.104   .     S
C1035  H1051   1.111   .     S
C1035  H1050   1.108   .     S
C1035  H356    1.111   1_556 S
C1036  C1038   1.426   .     A
C1036  C1037   1.416   .     A
C1037  C348    1.411   1_556 S
C1038  C346    1.413   1_556 S
C1039  C1040   1.410   .     A
C1040  C1041   1.387   .     A
C1040  H1057   1.079   .     S
H1042  C1252   1.086   .     S
H1060  C1108   1.111   .     S
O1062  Zn1076  1.941   .     S
O1062  Zn1078  1.927   .     S
O1062  Zn1077  1.931   .     S
O1062  Zn1075  1.959   .     S
O1063  Zn1076  1.917   .     S
O1064  Zn1078  1.928   .     S
O1065  Zn1077  1.922   .     S
O1066  Zn1075  1.912   .     S
O1067  Zn1075  1.925   .     S
O1068  Zn1078  1.928   .     S
O1069  Zn1076  1.935   .     S
O1070  Zn1077  1.947   .     S
O1071  Zn1078  1.942   .     S
O1072  Zn1075  1.933   .     S
O1073  Zn1076  1.933   .     S
O1074  Zn1077  1.926   .     S
Br1079 C1118   1.930   .     S
Br1080 C1091   1.924   .     S
Br1082 C941    1.933   1_655 S
Br1084 C1087   1.937   .     S
C1085  O1146   1.266   .     A
C1085  C1095   1.430   .     S
C1085  O1148   1.261   .     A
C1086  C1087   1.422   .     A
C1086  C1115   1.426   .     A
C1086  C1111   1.538   .     S
C1087  C396    1.425   1_556 S
C1088  O1149   1.270   .     A
C1088  C1094   1.458   .     S
C1088  O1147   1.286   .     A
C1089  C1090   1.424   .     A
C1089  C1091   1.430   .     A
C1090  C1093   1.408   .     A
C1090  C1116   1.414   .     A
C1091  C1092   1.399   .     A
C1092  C1104   1.391   .     A
C1092  H1132   1.084   .     S
C1093  C1104   1.384   .     A
C1093  H1130   1.081   .     S
C1094  Br927   1.932   1_655 S
C1094  C941    1.353   1_655 S
C1096  C1103   1.431   .     A
C1096  C1105   1.419   .     A
C1096  C1109   1.531   .     S
C1097  C1100   1.451   .     S
C1097  Br1314  1.931   .     S
C1097  C1329   1.334   .     S
C1098  C1099   1.433   .     S
C1099  O1144   1.276   .     A
C1099  O1150   1.276   .     A
C1100  O1145   1.272   .     A
C1100  O1151   1.266   .     A
C1101  C1104   1.456   .     S
C1101  O1140   1.274   .     A
C1101  O1142   1.279   .     A
C1102  C1103   1.487   .     S
C1102  O1143   1.298   .     A
C1102  O1141   1.277   .     A
C1103  C1107   1.399   .     A
C1105  C1114   1.414   .     A
C1105  C1106   1.528   .     S
C1106  C1108   1.531   .     S
C1106  H1120   1.110   .     S
C1106  H445    1.109   1_556 S
C1107  H1133   1.078   .     S
C1107  C1113   1.402   .     A
C1108  H1135   1.108   .     S
C1108  H1136   1.111   .     S
C1109  C1110   1.531   .     S
C1109  H1124   1.108   .     S
C1109  H1125   1.105   .     S
C1110  H1123   1.111   .     S
C1110  H1121   1.110   .     S
C1110  H1122   1.108   .     S
C1111  H1131   1.105   .     S
C1111  C1112   1.532   .     S
C1111  H1129   1.104   .     S
C1112  H1128   1.111   .     S
C1112  H1127   1.108   .     S
C1112  H433    1.111   1_556 S
C1113  C1115   1.426   .     A
C1113  C1114   1.416   .     A
C1114  C425    1.411   1_556 S
C1115  C423    1.413   1_556 S
C1116  C1117   1.410   .     A
C1117  C1118   1.387   .     A
C1117  H1134   1.079   .     S
H1119  C1329   1.086   .     S
H1137  C954    1.111   1_655 S
O1139  Zn1153  1.941   .     S
O1139  Zn1155  1.927   .     S
O1139  Zn1154  1.931   .     S
O1139  Zn1152  1.959   .     S
O1140  Zn1153  1.917   .     S
O1141  Zn1155  1.928   .     S
O1142  Zn1154  1.922   .     S
O1143  Zn1152  1.912   .     S
O1144  Zn1152  1.925   .     S
O1145  Zn1155  1.928   .     S
O1146  Zn1153  1.935   .     S
O1147  Zn1154  1.947   .     S
O1148  Zn1155  1.942   .     S
O1149  Zn1152  1.933   .     S
O1150  Zn1153  1.933   .     S
O1151  Zn1154  1.926   .     S
Br1156 C1195   1.930   .     S
Br1157 C1168   1.924   .     S
Br1158 C1325   1.932   1_455 S
Br1159 C1249   1.933   .     S
Br1161 C1164   1.937   .     S
C1162  O1223   1.266   .     A
C1162  C1172   1.430   .     S
C1162  O1225   1.261   .     A
C1163  C1164   1.422   .     A
C1163  C1192   1.426   .     A
C1163  C1188   1.538   .     S
C1164  C473    1.425   1_556 S
C1165  O1226   1.270   .     A
C1165  C1171   1.458   .     S
C1165  O1224   1.286   .     A
C1166  C1167   1.424   .     A
C1166  C1168   1.430   .     A
C1167  C1170   1.408   .     A
C1167  C1193   1.414   .     A
C1168  C1169   1.399   .     A
C1169  C1181   1.391   .     A
C1169  H1209   1.084   .     S
C1170  C1181   1.384   .     A
C1170  H1207   1.081   .     S
C1171  Br1235  1.932   .     S
C1171  C1249   1.353   .     S
C1172  Br1313  1.933   1_455 S
C1172  C1325   1.353   1_455 S
C1173  C1180   1.431   .     A
C1173  C1182   1.419   .     A
C1173  C1186   1.531   .     S
C1174  C1177   1.451   .     S
C1174  Br698   1.931   1_565 S
C1174  C713    1.334   1_565 S
C1175  C1176   1.433   .     S
C1176  O1221   1.276   .     A
C1176  O1227   1.276   .     A
C1177  O1222   1.272   .     A
C1177  O1228   1.266   .     A
C1178  C1181   1.456   .     S
C1178  O1217   1.274   .     A
C1178  O1219   1.279   .     A
C1179  C1180   1.487   .     S
C1179  O1220   1.298   .     A
C1179  O1218   1.277   .     A
C1180  C1184   1.399   .     A
C1182  C1191   1.414   .     A
C1182  C1183   1.528   .     S
C1183  C1185   1.531   .     S
C1183  H1197   1.110   .     S
C1183  H522    1.109   1_556 S
C1184  H1210   1.078   .     S
C1184  C1190   1.402   .     A
C1185  H1212   1.108   .     S
C1185  H1213   1.111   .     S
C1185  H1368   1.111   1_455 S
C1186  C1187   1.531   .     S
C1186  H1201   1.108   .     S
C1186  H1202   1.105   .     S
C1187  H1200   1.111   .     S
C1187  H1198   1.110   .     S
C1187  H1199   1.108   .     S
C1188  H1208   1.105   .     S
C1188  C1189   1.532   .     S
C1188  H1206   1.104   .     S
C1189  H1205   1.111   .     S
C1189  H1204   1.108   .     S
C1189  H510    1.111   1_556 S
C1190  C1192   1.426   .     A
C1190  C1191   1.416   .     A
C1191  C502    1.411   1_556 S
C1192  C500    1.413   1_556 S
C1193  C1194   1.410   .     A
C1194  C1195   1.387   .     A
C1194  H1211   1.079   .     S
H1196  C713    1.086   1_565 S
H1214  C1262   1.111   .     S
O1216  Zn1230  1.941   .     S
O1216  Zn1232  1.927   .     S
O1216  Zn1231  1.931   .     S
O1216  Zn1229  1.959   .     S
O1217  Zn1230  1.917   .     S
O1218  Zn1232  1.928   .     S
O1219  Zn1231  1.922   .     S
O1220  Zn1229  1.912   .     S
O1221  Zn1229  1.925   .     S
O1222  Zn1232  1.928   .     S
O1223  Zn1230  1.935   .     S
O1224  Zn1231  1.947   .     S
O1225  Zn1232  1.942   .     S
O1226  Zn1229  1.933   .     S
O1227  Zn1230  1.933   .     S
O1228  Zn1231  1.926   .     S
Br1233 C1272   1.930   .     S
Br1234 C1245   1.924   .     S
Br1236 C1326   1.933   .     S
Br1238 C1241   1.937   .     S
C1239  O1300   1.266   .     A
C1239  C1249   1.430   .     S
C1239  O1302   1.261   .     A
C1240  C1241   1.422   .     A
C1240  C1269   1.426   .     A
C1240  C1265   1.538   .     S
C1241  C550    1.425   1_556 S
C1242  O1303   1.270   .     A
C1242  C1248   1.458   .     S
C1242  O1301   1.286   .     A
C1243  C1244   1.424   .     A
C1243  C1245   1.430   .     A
C1244  C1247   1.408   .     A
C1244  C1270   1.414   .     A
C1245  C1246   1.399   .     A
C1246  C1258   1.391   .     A
C1246  H1286   1.084   .     S
C1247  C1258   1.384   .     A
C1247  H1284   1.081   .     S
C1248  Br1312  1.932   .     S
C1248  C1326   1.353   .     S
C1250  C1257   1.431   .     A
C1250  C1259   1.419   .     A
C1250  C1263   1.531   .     S
C1251  C1254   1.451   .     S
C1251  Br775   1.931   1_565 S
C1251  C790    1.334   1_565 S
C1252  C1253   1.433   .     S
C1253  O1298   1.276   .     A
C1253  O1304   1.276   .     A
C1254  O1299   1.272   .     A
C1254  O1305   1.266   .     A
C1255  C1258   1.456   .     S
C1255  O1294   1.274   .     A
C1255  O1296   1.279   .     A
C1256  C1257   1.487   .     S
C1256  O1297   1.298   .     A
C1256  O1295   1.277   .     A
C1257  C1261   1.399   .     A
C1259  C1268   1.414   .     A
C1259  C1260   1.528   .     S
C1260  C1262   1.531   .     S
C1260  H1274   1.110   .     S
C1260  H599    1.109   1_556 S
C1261  H1287   1.078   .     S
C1261  C1267   1.402   .     A
C1262  H1289   1.108   .     S
C1262  H1290   1.111   .     S
C1263  C1264   1.531   .     S
C1263  H1278   1.108   .     S
C1263  H1279   1.105   .     S
C1264  H1277   1.111   .     S
C1264  H1275   1.110   .     S
C1264  H1276   1.108   .     S
C1265  H1285   1.105   .     S
C1265  C1266   1.532   .     S
C1265  H1283   1.104   .     S
C1266  H1282   1.111   .     S
C1266  H1281   1.108   .     S
C1266  H587    1.111   1_556 S
C1267  C1269   1.426   .     A
C1267  C1268   1.416   .     A
C1268  C579    1.411   1_556 S
C1269  C577    1.413   1_556 S
C1270  C1271   1.410   .     A
C1271  C1272   1.387   .     A
C1271  H1288   1.079   .     S
H1273  C790    1.086   1_565 S
H1291  C1339   1.111   .     S
O1293  Zn1307  1.941   .     S
O1293  Zn1309  1.927   .     S
O1293  Zn1308  1.931   .     S
O1293  Zn1306  1.959   .     S
O1294  Zn1307  1.917   .     S
O1295  Zn1309  1.928   .     S
O1296  Zn1308  1.922   .     S
O1297  Zn1306  1.912   .     S
O1298  Zn1306  1.925   .     S
O1299  Zn1309  1.928   .     S
O1300  Zn1307  1.935   .     S
O1301  Zn1308  1.947   .     S
O1302  Zn1309  1.942   .     S
O1303  Zn1306  1.933   .     S
O1304  Zn1307  1.933   .     S
O1305  Zn1308  1.926   .     S
Br1310 C1349   1.930   .     S
Br1311 C1322   1.924   .     S
Br1313 C1172   1.933   1_655 S
Br1315 C1318   1.937   .     S
C1316  O1377   1.266   .     A
C1316  C1326   1.430   .     S
C1316  O1379   1.261   .     A
C1317  C1318   1.422   .     A
C1317  C1346   1.426   .     A
C1317  C1342   1.538   .     S
C1318  C627    1.425   1_556 S
C1319  O1380   1.270   .     A
C1319  C1325   1.458   .     S
C1319  O1378   1.286   .     A
C1320  C1321   1.424   .     A
C1320  C1322   1.430   .     A
C1321  C1324   1.408   .     A
C1321  C1347   1.414   .     A
C1322  C1323   1.399   .     A
C1323  C1335   1.391   .     A
C1323  H1363   1.084   .     S
C1324  C1335   1.384   .     A
C1324  H1361   1.081   .     S
C1325  Br1158  1.932   1_655 S
C1325  C1172   1.353   1_655 S
C1327  C1334   1.431   .     A
C1327  C1336   1.419   .     A
C1327  C1340   1.531   .     S
C1328  C1331   1.451   .     S
C1328  Br852   1.931   1_565 S
C1328  C867    1.334   1_565 S
C1329  C1330   1.433   .     S
C1330  O1375   1.276   .     A
C1330  O1381   1.276   .     A
C1331  O1376   1.272   .     A
C1331  O1382   1.266   .     A
C1332  C1335   1.456   .     S
C1332  O1371   1.274   .     A
C1332  O1373   1.279   .     A
C1333  C1334   1.487   .     S
C1333  O1374   1.298   .     A
C1333  O1372   1.277   .     A
C1334  C1338   1.399   .     A
C1336  C1345   1.414   .     A
C1336  C1337   1.528   .     S
C1337  C1339   1.531   .     S
C1337  H1351   1.110   .     S
C1337  H676    1.109   1_556 S
C1338  H1364   1.078   .     S
C1338  C1344   1.402   .     A
C1339  H1366   1.108   .     S
C1339  H1367   1.111   .     S
C1340  C1341   1.531   .     S
C1340  H1355   1.108   .     S
C1340  H1356   1.105   .     S
C1341  H1354   1.111   .     S
C1341  H1352   1.110   .     S
C1341  H1353   1.108   .     S
C1342  H1362   1.105   .     S
C1342  C1343   1.532   .     S
C1342  H1360   1.104   .     S
C1343  H1359   1.111   .     S
C1343  H1358   1.108   .     S
C1343  H664    1.111   1_556 S
C1344  C1346   1.426   .     A
C1344  C1345   1.416   .     A
C1345  C656    1.411   1_556 S
C1346  C654    1.413   1_556 S
C1347  C1348   1.410   .     A
C1348  C1349   1.387   .     A
C1348  H1365   1.079   .     S
H1350  C867    1.086   1_565 S
H1368  C1185   1.111   1_655 S
O1370  Zn1384  1.941   .     S
O1370  Zn1386  1.927   .     S
O1370  Zn1385  1.931   .     S
O1370  Zn1383  1.959   .     S
O1371  Zn1384  1.917   .     S
O1372  Zn1386  1.928   .     S
O1373  Zn1385  1.922   .     S
O1374  Zn1383  1.912   .     S
O1375  Zn1383  1.925   .     S
O1376  Zn1386  1.928   .     S
O1377  Zn1384  1.935   .     S
O1378  Zn1385  1.947   .     S
O1379  Zn1386  1.942   .     S
O1380  Zn1383  1.933   .     S
O1381  Zn1384  1.933   .     S
O1382  Zn1385  1.926   .     S
