data_str_m1_o10_o16_pcu_sym.168
_audit_creation_date              2020-01-03
_audit_creation_method            'Materials Studio'
_symmetry_space_group_name_H-M    'P1'
_symmetry_Int_Tables_number       1
_symmetry_cell_setting            triclinic
loop_
_symmetry_equiv_pos_as_xyz
  x,y,z
_cell_length_a                    32.6910
_cell_length_b                    32.5562
_cell_length_c                    30.9335
_cell_angle_alpha                 96.4679
_cell_angle_beta                  75.3815
_cell_angle_gamma                 98.1328
loop_
_atom_site_label
_atom_site_type_symbol
_atom_site_fract_x
_atom_site_fract_y
_atom_site_fract_z
_atom_site_U_iso_or_equiv
_atom_site_adp_type
_atom_site_occupancy
C1     C     0.05318   0.15991   0.25919   0.00000  Uiso   1.00
C2     C     0.08993   0.20404   0.48965   0.00000  Uiso   1.00
C3     C     0.11028   0.17822   0.00908   0.00000  Uiso   1.00
C4     C     0.15322   0.17144   0.48894   0.00000  Uiso   1.00
C5     C     0.16962   0.17825   0.44319   0.00000  Uiso   1.00
C6     C     0.17929   0.15583   0.01228   0.00000  Uiso   1.00
C7     C     0.21775   0.14026   0.48833   0.00000  Uiso   1.00
C8     C     0.23356   0.14755   0.44323   0.00000  Uiso   1.00
C9     C     0.21103   0.16841   0.42182   0.00000  Uiso   1.00
C10    C     0.16992   0.15845   0.05916   0.00000  Uiso   1.00
C11    C     0.22769   0.11863   0.05740   0.00000  Uiso   1.00
C12    C     0.28052   0.17352   0.24057   0.00000  Uiso   1.00
C13    C     0.14441   0.19540   0.42024   0.00000  Uiso   1.00
C14    C     0.32553   0.17713   0.23981   0.00000  Uiso   1.00
C15    C     0.00817   0.15443   0.26429   0.00000  Uiso   1.00
C16    C     0.17877   0.32231   0.23725   0.00000  Uiso   1.00
C17    C     0.15085   0.01207   0.26545   0.00000  Uiso   1.00
C18    C     0.15665   0.05598   0.25982   0.00000  Uiso   1.00
C19    C     0.17639   0.27783   0.24053   0.00000  Uiso   1.00
C20    C     0.18532   0.14788   0.12958   0.00000  Uiso   1.00
C21    C     0.15057   0.18654   0.37081   0.00000  Uiso   1.00
C22    C     0.24053   0.11934   0.01061   0.00000  Uiso   1.00
C23    C     0.19362   0.14012   0.08134   0.00000  Uiso   1.00
C24    C     0.10963   0.21612   0.44595   0.00000  Uiso   1.00
H25    H     0.20329   0.00312   0.21052   0.00000  Uiso   1.00
H26    H     0.26442   0.13895   0.42496   0.00000  Uiso   1.00
H27    H     0.14578   0.17684   0.07921   0.00000  Uiso   1.00
H28    H     0.22696   0.17740   0.38863   0.00000  Uiso   1.00
H29    H     0.01341   0.19986   0.21886   0.00000  Uiso   1.00
O30    O     0.16667   0.16667   0.25000   0.00000  Uiso   1.00
O31    O     0.17930   0.08019   0.28213   0.00000  Uiso   1.00
O32    O     0.14632   0.26085   0.27013   0.00000  Uiso   1.00
O33    O     0.07412   0.13291   0.23413   0.00000  Uiso   1.00
O34    O     0.26693   0.19272   0.21360   0.00000  Uiso   1.00
O35    O     0.07071   0.18878   0.28213   0.00000  Uiso   1.00
O36    O     0.25491   0.15226   0.27013   0.00000  Uiso   1.00
O37    O     0.13760   0.06944   0.23413   0.00000  Uiso   1.00
O38    O     0.20345   0.25620   0.21360   0.00000  Uiso   1.00
O39    O     0.15451   0.12637   0.15458   0.00000  Uiso   1.00
O40    O     0.12940   0.20391   0.34968   0.00000  Uiso   1.00
O41    O     0.20824   0.17759   0.14606   0.00000  Uiso   1.00
O42    O     0.17451   0.15880   0.34968   0.00000  Uiso   1.00
Zn43   Zn    0.19338   0.13994   0.28734   0.00000  Uiso   1.00
Zn44   Zn    0.13379   0.12458   0.21875   0.00000  Uiso   1.00
Zn45   Zn    0.21056   0.19775   0.20657   0.00000  Uiso   1.00
Zn46   Zn    0.12893   0.20439   0.28733   0.00000  Uiso   1.00
O47    O     0.24592   0.09408   0.07931   0.00000  Uiso   1.00
C48    C     0.28014   0.11755   0.09434   0.00000  Uiso   1.00
H49    H     0.27818   0.15174   0.09910   0.00000  Uiso   1.00
H50    H     0.31027   0.11184   0.06959   0.00000  Uiso   1.00
C51    C     0.28115   0.10309   0.13914   0.00000  Uiso   1.00
H52    H     0.28710   0.06996   0.13494   0.00000  Uiso   1.00
H53    H     0.30679   0.12232   0.15243   0.00000  Uiso   1.00
H54    H     0.25028   0.10640   0.16374   0.00000  Uiso   1.00
S55    S     0.31413   0.11137   0.29479   0.00000  Uiso   1.00
O56    O     0.28226   0.12637   0.33555   0.00000  Uiso   1.00
O57    O     0.29172   0.08093   0.26560   0.00000  Uiso   1.00
O58    O     0.01578   0.08726   0.31139   0.00000  Uiso   1.00
H59    H     0.33136   0.06602   0.33083   0.00000  Uiso   1.00
O60    O     0.12130   0.32883   0.30215   0.00000  Uiso   1.00
C61    C     0.08292   0.01375   0.31174   0.00000  Uiso   1.00
H62    H     0.07114   0.01370   0.28091   0.00000  Uiso   1.00
H63    H     0.08743   0.04616   0.32707   0.00000  Uiso   1.00
C64    C     0.04910   0.32196   0.34502   0.00000  Uiso   1.00
H65    H     0.05851   0.32375   0.37727   0.00000  Uiso   1.00
H66    H     0.01819   0.00130   0.35112   0.00000  Uiso   1.00
H67    H     0.04520   0.28891   0.33158   0.00000  Uiso   1.00
O68    O     0.27741   0.10287   0.48758   0.00000  Uiso   1.00
C69    C     0.26660   0.06121   0.47235   0.00000  Uiso   1.00
H70    H     0.24554   0.05947   0.44878   0.00000  Uiso   1.00
H71    H     0.25040   0.04219   0.00097   0.00000  Uiso   1.00
C72    C     0.30710   0.04265   0.44758   0.00000  Uiso   1.00
H73    H     0.32857   0.04343   0.47042   0.00000  Uiso   1.00
H74    H     0.29909   0.00985   0.43530   0.00000  Uiso   1.00
H75    H     0.32382   0.06071   0.41849   0.00000  Uiso   1.00
S76    S     0.09456   0.25929   0.42521   0.00000  Uiso   1.00
O77    O     0.13196   0.27968   0.39239   0.00000  Uiso   1.00
O78    O     0.05926   0.24409   0.40215   0.00000  Uiso   1.00
O79    O     0.07803   0.29534   0.46702   0.00000  Uiso   1.00
H80    H     0.06632   0.31560   0.45325   0.00000  Uiso   1.00
O81    O     0.08811   0.15985   0.04774   0.00000  Uiso   1.00
C82    C     0.07677   0.11704   0.03687   0.00000  Uiso   1.00
H83    H     0.10310   0.10189   0.01309   0.00000  Uiso   1.00
H84    H     0.04894   0.11312   0.02163   0.00000  Uiso   1.00
C85    C     0.06499   0.09434   0.07944   0.00000  Uiso   1.00
H86    H     0.04068   0.10987   0.10525   0.00000  Uiso   1.00
H87    H     0.05211   0.06156   0.07220   0.00000  Uiso   1.00
H88    H     0.09360   0.09464   0.09271   0.00000  Uiso   1.00
S89    S     0.03980   0.21965   0.02028   0.00000  Uiso   1.00
O90    O     0.01258   0.22477   0.48913   0.00000  Uiso   1.00
O91    O     0.01605   0.18819   0.05233   0.00000  Uiso   1.00
O92    O     0.04846   0.26513   0.05007   0.00000  Uiso   1.00
H93    H     0.01974   0.27335   0.06420   0.00000  Uiso   1.00
C94    C     0.38652   0.15991   0.25919   0.00000  Uiso   1.00
C95    C     0.42326   0.20404   0.48965   0.00000  Uiso   1.00
C96    C     0.44361   0.17822   0.00908   0.00000  Uiso   1.00
C97    C     0.48655   0.17144   0.48894   0.00000  Uiso   1.00
C98    C     0.50295   0.17825   0.44319   0.00000  Uiso   1.00
C99    C     0.51262   0.15583   0.01228   0.00000  Uiso   1.00
C100   C     0.55108   0.14026   0.48833   0.00000  Uiso   1.00
C101   C     0.56689   0.14755   0.44323   0.00000  Uiso   1.00
C102   C     0.54437   0.16841   0.42182   0.00000  Uiso   1.00
C103   C     0.50325   0.15845   0.05916   0.00000  Uiso   1.00
C104   C     0.56102   0.11863   0.05740   0.00000  Uiso   1.00
C105   C     0.61385   0.17352   0.24057   0.00000  Uiso   1.00
C106   C     0.47775   0.19540   0.42024   0.00000  Uiso   1.00
C107   C     0.65886   0.17713   0.23981   0.00000  Uiso   1.00
C108   C     0.34150   0.15443   0.26429   0.00000  Uiso   1.00
C109   C     0.51211   0.32231   0.23725   0.00000  Uiso   1.00
C110   C     0.48418   0.01207   0.26545   0.00000  Uiso   1.00
C111   C     0.48999   0.05598   0.25982   0.00000  Uiso   1.00
C112   C     0.50973   0.27783   0.24053   0.00000  Uiso   1.00
C113   C     0.51865   0.14788   0.12958   0.00000  Uiso   1.00
C114   C     0.48390   0.18654   0.37081   0.00000  Uiso   1.00
C115   C     0.57386   0.11934   0.01061   0.00000  Uiso   1.00
C116   C     0.52696   0.14012   0.08134   0.00000  Uiso   1.00
C117   C     0.44297   0.21612   0.44595   0.00000  Uiso   1.00
H118   H     0.53663   0.00312   0.21052   0.00000  Uiso   1.00
H119   H     0.59776   0.13895   0.42496   0.00000  Uiso   1.00
H120   H     0.47911   0.17684   0.07921   0.00000  Uiso   1.00
H121   H     0.56030   0.17740   0.38863   0.00000  Uiso   1.00
H122   H     0.34674   0.19986   0.21886   0.00000  Uiso   1.00
O123   O     0.50000   0.16667   0.25000   0.00000  Uiso   1.00
O124   O     0.51264   0.08019   0.28213   0.00000  Uiso   1.00
O125   O     0.47965   0.26085   0.27013   0.00000  Uiso   1.00
O126   O     0.40745   0.13291   0.23413   0.00000  Uiso   1.00
O127   O     0.60026   0.19272   0.21360   0.00000  Uiso   1.00
O128   O     0.40405   0.18878   0.28213   0.00000  Uiso   1.00
O129   O     0.58824   0.15226   0.27013   0.00000  Uiso   1.00
O130   O     0.47093   0.06944   0.23413   0.00000  Uiso   1.00
O131   O     0.53678   0.25620   0.21360   0.00000  Uiso   1.00
O132   O     0.48784   0.12637   0.15458   0.00000  Uiso   1.00
O133   O     0.46274   0.20391   0.34968   0.00000  Uiso   1.00
O134   O     0.54157   0.17759   0.14606   0.00000  Uiso   1.00
O135   O     0.50785   0.15880   0.34968   0.00000  Uiso   1.00
Zn136  Zn    0.52672   0.13994   0.28734   0.00000  Uiso   1.00
Zn137  Zn    0.46713   0.12458   0.21875   0.00000  Uiso   1.00
Zn138  Zn    0.54389   0.19775   0.20657   0.00000  Uiso   1.00
Zn139  Zn    0.46226   0.20439   0.28733   0.00000  Uiso   1.00
O140   O     0.57925   0.09408   0.07931   0.00000  Uiso   1.00
C141   C     0.61347   0.11755   0.09434   0.00000  Uiso   1.00
H142   H     0.61151   0.15174   0.09910   0.00000  Uiso   1.00
H143   H     0.64360   0.11184   0.06959   0.00000  Uiso   1.00
C144   C     0.61449   0.10309   0.13914   0.00000  Uiso   1.00
H145   H     0.62044   0.06996   0.13494   0.00000  Uiso   1.00
H146   H     0.64013   0.12232   0.15243   0.00000  Uiso   1.00
H147   H     0.58361   0.10640   0.16374   0.00000  Uiso   1.00
S148   S     0.64746   0.11137   0.29479   0.00000  Uiso   1.00
O149   O     0.61560   0.12637   0.33555   0.00000  Uiso   1.00
O150   O     0.62505   0.08093   0.26560   0.00000  Uiso   1.00
O151   O     0.34911   0.08726   0.31139   0.00000  Uiso   1.00
H152   H     0.66470   0.06602   0.33083   0.00000  Uiso   1.00
O153   O     0.45464   0.32883   0.30215   0.00000  Uiso   1.00
C154   C     0.41626   0.01375   0.31174   0.00000  Uiso   1.00
H155   H     0.40448   0.01370   0.28091   0.00000  Uiso   1.00
H156   H     0.42077   0.04616   0.32707   0.00000  Uiso   1.00
C157   C     0.38244   0.32196   0.34502   0.00000  Uiso   1.00
H158   H     0.39184   0.32375   0.37727   0.00000  Uiso   1.00
H159   H     0.35152   0.00130   0.35112   0.00000  Uiso   1.00
H160   H     0.37854   0.28891   0.33158   0.00000  Uiso   1.00
O161   O     0.61074   0.10287   0.48758   0.00000  Uiso   1.00
C162   C     0.59994   0.06121   0.47235   0.00000  Uiso   1.00
H163   H     0.57887   0.05947   0.44878   0.00000  Uiso   1.00
H164   H     0.58373   0.04219   0.00097   0.00000  Uiso   1.00
C165   C     0.64043   0.04265   0.44758   0.00000  Uiso   1.00
H166   H     0.66191   0.04343   0.47042   0.00000  Uiso   1.00
H167   H     0.63243   0.00985   0.43530   0.00000  Uiso   1.00
H168   H     0.65715   0.06071   0.41849   0.00000  Uiso   1.00
S169   S     0.42789   0.25929   0.42521   0.00000  Uiso   1.00
O170   O     0.46529   0.27968   0.39239   0.00000  Uiso   1.00
O171   O     0.39259   0.24409   0.40215   0.00000  Uiso   1.00
O172   O     0.41137   0.29534   0.46702   0.00000  Uiso   1.00
H173   H     0.39966   0.31560   0.45325   0.00000  Uiso   1.00
O174   O     0.42145   0.15985   0.04774   0.00000  Uiso   1.00
C175   C     0.41011   0.11704   0.03687   0.00000  Uiso   1.00
H176   H     0.43643   0.10189   0.01309   0.00000  Uiso   1.00
H177   H     0.38227   0.11312   0.02163   0.00000  Uiso   1.00
C178   C     0.39832   0.09434   0.07944   0.00000  Uiso   1.00
H179   H     0.37401   0.10987   0.10525   0.00000  Uiso   1.00
H180   H     0.38544   0.06156   0.07220   0.00000  Uiso   1.00
H181   H     0.42693   0.09464   0.09271   0.00000  Uiso   1.00
S182   S     0.37313   0.21965   0.02028   0.00000  Uiso   1.00
O183   O     0.34592   0.22477   0.48913   0.00000  Uiso   1.00
O184   O     0.34938   0.18819   0.05233   0.00000  Uiso   1.00
O185   O     0.38179   0.26513   0.05007   0.00000  Uiso   1.00
H186   H     0.35308   0.27335   0.06420   0.00000  Uiso   1.00
C187   C     0.71985   0.15991   0.25919   0.00000  Uiso   1.00
C188   C     0.75660   0.20404   0.48965   0.00000  Uiso   1.00
C189   C     0.77695   0.17822   0.00908   0.00000  Uiso   1.00
C190   C     0.81989   0.17144   0.48894   0.00000  Uiso   1.00
C191   C     0.83628   0.17825   0.44319   0.00000  Uiso   1.00
C192   C     0.84595   0.15583   0.01228   0.00000  Uiso   1.00
C193   C     0.88441   0.14026   0.48833   0.00000  Uiso   1.00
C194   C     0.90023   0.14755   0.44323   0.00000  Uiso   1.00
C195   C     0.87770   0.16841   0.42182   0.00000  Uiso   1.00
C196   C     0.83658   0.15845   0.05916   0.00000  Uiso   1.00
C197   C     0.89435   0.11863   0.05740   0.00000  Uiso   1.00
C198   C     0.94719   0.17352   0.24057   0.00000  Uiso   1.00
C199   C     0.81108   0.19540   0.42024   0.00000  Uiso   1.00
C200   C     0.99220   0.17713   0.23981   0.00000  Uiso   1.00
C201   C     0.67484   0.15443   0.26429   0.00000  Uiso   1.00
C202   C     0.84544   0.32231   0.23725   0.00000  Uiso   1.00
C203   C     0.81751   0.01207   0.26545   0.00000  Uiso   1.00
C204   C     0.82332   0.05598   0.25982   0.00000  Uiso   1.00
C205   C     0.84306   0.27783   0.24053   0.00000  Uiso   1.00
C206   C     0.85199   0.14788   0.12958   0.00000  Uiso   1.00
C207   C     0.81723   0.18654   0.37081   0.00000  Uiso   1.00
C208   C     0.90719   0.11934   0.01061   0.00000  Uiso   1.00
C209   C     0.86029   0.14012   0.08134   0.00000  Uiso   1.00
C210   C     0.77630   0.21612   0.44595   0.00000  Uiso   1.00
H211   H     0.86996   0.00312   0.21052   0.00000  Uiso   1.00
H212   H     0.93109   0.13895   0.42496   0.00000  Uiso   1.00
H213   H     0.81244   0.17684   0.07921   0.00000  Uiso   1.00
H214   H     0.89363   0.17740   0.38863   0.00000  Uiso   1.00
H215   H     0.68007   0.19986   0.21886   0.00000  Uiso   1.00
O216   O     0.83333   0.16667   0.25000   0.00000  Uiso   1.00
O217   O     0.84597   0.08019   0.28213   0.00000  Uiso   1.00
O218   O     0.81298   0.26085   0.27013   0.00000  Uiso   1.00
O219   O     0.74078   0.13291   0.23413   0.00000  Uiso   1.00
O220   O     0.93360   0.19272   0.21360   0.00000  Uiso   1.00
O221   O     0.73738   0.18878   0.28213   0.00000  Uiso   1.00
O222   O     0.92158   0.15226   0.27013   0.00000  Uiso   1.00
O223   O     0.80426   0.06944   0.23413   0.00000  Uiso   1.00
O224   O     0.87012   0.25620   0.21360   0.00000  Uiso   1.00
O225   O     0.82118   0.12637   0.15458   0.00000  Uiso   1.00
O226   O     0.79607   0.20391   0.34968   0.00000  Uiso   1.00
O227   O     0.87491   0.17759   0.14606   0.00000  Uiso   1.00
O228   O     0.84118   0.15880   0.34968   0.00000  Uiso   1.00
Zn229  Zn    0.86005   0.13994   0.28734   0.00000  Uiso   1.00
Zn230  Zn    0.80046   0.12458   0.21875   0.00000  Uiso   1.00
Zn231  Zn    0.87723   0.19775   0.20657   0.00000  Uiso   1.00
Zn232  Zn    0.79560   0.20439   0.28733   0.00000  Uiso   1.00
O233   O     0.91258   0.09408   0.07931   0.00000  Uiso   1.00
C234   C     0.94680   0.11755   0.09434   0.00000  Uiso   1.00
H235   H     0.94485   0.15174   0.09910   0.00000  Uiso   1.00
H236   H     0.97693   0.11184   0.06959   0.00000  Uiso   1.00
C237   C     0.94782   0.10309   0.13914   0.00000  Uiso   1.00
H238   H     0.95377   0.06996   0.13494   0.00000  Uiso   1.00
H239   H     0.97346   0.12232   0.15243   0.00000  Uiso   1.00
H240   H     0.91695   0.10640   0.16374   0.00000  Uiso   1.00
S241   S     0.98080   0.11137   0.29479   0.00000  Uiso   1.00
O242   O     0.94893   0.12637   0.33555   0.00000  Uiso   1.00
O243   O     0.95838   0.08093   0.26560   0.00000  Uiso   1.00
O244   O     0.68245   0.08726   0.31139   0.00000  Uiso   1.00
H245   H     0.99803   0.06602   0.33083   0.00000  Uiso   1.00
O246   O     0.78797   0.32883   0.30215   0.00000  Uiso   1.00
C247   C     0.74959   0.01375   0.31174   0.00000  Uiso   1.00
H248   H     0.73781   0.01370   0.28091   0.00000  Uiso   1.00
H249   H     0.75410   0.04616   0.32707   0.00000  Uiso   1.00
C250   C     0.71577   0.32196   0.34502   0.00000  Uiso   1.00
H251   H     0.72517   0.32375   0.37727   0.00000  Uiso   1.00
H252   H     0.68486   0.00130   0.35112   0.00000  Uiso   1.00
H253   H     0.71187   0.28891   0.33158   0.00000  Uiso   1.00
O254   O     0.94408   0.10287   0.48758   0.00000  Uiso   1.00
C255   C     0.93327   0.06121   0.47235   0.00000  Uiso   1.00
H256   H     0.91220   0.05947   0.44878   0.00000  Uiso   1.00
H257   H     0.91706   0.04219   0.00097   0.00000  Uiso   1.00
C258   C     0.97376   0.04265   0.44758   0.00000  Uiso   1.00
H259   H     0.99524   0.04343   0.47042   0.00000  Uiso   1.00
H260   H     0.96576   0.00985   0.43530   0.00000  Uiso   1.00
H261   H     0.99049   0.06071   0.41849   0.00000  Uiso   1.00
S262   S     0.76123   0.25929   0.42521   0.00000  Uiso   1.00
O263   O     0.79862   0.27968   0.39239   0.00000  Uiso   1.00
O264   O     0.72593   0.24409   0.40215   0.00000  Uiso   1.00
O265   O     0.74470   0.29534   0.46702   0.00000  Uiso   1.00
H266   H     0.73299   0.31560   0.45325   0.00000  Uiso   1.00
O267   O     0.75478   0.15985   0.04774   0.00000  Uiso   1.00
C268   C     0.74344   0.11704   0.03687   0.00000  Uiso   1.00
H269   H     0.76976   0.10189   0.01309   0.00000  Uiso   1.00
H270   H     0.71560   0.11312   0.02163   0.00000  Uiso   1.00
C271   C     0.73166   0.09434   0.07944   0.00000  Uiso   1.00
H272   H     0.70735   0.10987   0.10525   0.00000  Uiso   1.00
H273   H     0.71878   0.06156   0.07220   0.00000  Uiso   1.00
H274   H     0.76026   0.09464   0.09271   0.00000  Uiso   1.00
S275   S     0.70646   0.21965   0.02028   0.00000  Uiso   1.00
O276   O     0.67925   0.22477   0.48913   0.00000  Uiso   1.00
O277   O     0.68272   0.18819   0.05233   0.00000  Uiso   1.00
O278   O     0.71512   0.26513   0.05007   0.00000  Uiso   1.00
H279   H     0.68641   0.27335   0.06420   0.00000  Uiso   1.00
C280   C     0.05318   0.49324   0.25919   0.00000  Uiso   1.00
C281   C     0.08993   0.53738   0.48965   0.00000  Uiso   1.00
C282   C     0.11028   0.51155   0.00908   0.00000  Uiso   1.00
C283   C     0.15322   0.50478   0.48894   0.00000  Uiso   1.00
C284   C     0.16962   0.51158   0.44319   0.00000  Uiso   1.00
C285   C     0.17929   0.48916   0.01228   0.00000  Uiso   1.00
C286   C     0.21775   0.47359   0.48833   0.00000  Uiso   1.00
C287   C     0.23356   0.48088   0.44323   0.00000  Uiso   1.00
C288   C     0.21103   0.50175   0.42182   0.00000  Uiso   1.00
C289   C     0.16992   0.49178   0.05916   0.00000  Uiso   1.00
C290   C     0.22769   0.45196   0.05740   0.00000  Uiso   1.00
C291   C     0.28052   0.50685   0.24057   0.00000  Uiso   1.00
C292   C     0.14441   0.52873   0.42024   0.00000  Uiso   1.00
C293   C     0.32553   0.51047   0.23981   0.00000  Uiso   1.00
C294   C     0.00817   0.48777   0.26429   0.00000  Uiso   1.00
C295   C     0.17877   0.65564   0.23725   0.00000  Uiso   1.00
C296   C     0.15085   0.34540   0.26545   0.00000  Uiso   1.00
C297   C     0.15665   0.38932   0.25982   0.00000  Uiso   1.00
C298   C     0.17639   0.61116   0.24053   0.00000  Uiso   1.00
C299   C     0.18532   0.48122   0.12958   0.00000  Uiso   1.00
C300   C     0.15057   0.51987   0.37081   0.00000  Uiso   1.00
C301   C     0.24053   0.45268   0.01061   0.00000  Uiso   1.00
C302   C     0.19362   0.47345   0.08134   0.00000  Uiso   1.00
C303   C     0.10963   0.54945   0.44595   0.00000  Uiso   1.00
H304   H     0.20329   0.33645   0.21052   0.00000  Uiso   1.00
H305   H     0.26442   0.47228   0.42496   0.00000  Uiso   1.00
H306   H     0.14578   0.51017   0.07921   0.00000  Uiso   1.00
H307   H     0.22696   0.51073   0.38863   0.00000  Uiso   1.00
H308   H     0.01341   0.53319   0.21886   0.00000  Uiso   1.00
O309   O     0.16667   0.50000   0.25000   0.00000  Uiso   1.00
O310   O     0.17930   0.41352   0.28213   0.00000  Uiso   1.00
O311   O     0.14632   0.59418   0.27013   0.00000  Uiso   1.00
O312   O     0.07412   0.46625   0.23413   0.00000  Uiso   1.00
O313   O     0.26693   0.52605   0.21360   0.00000  Uiso   1.00
O314   O     0.07071   0.52211   0.28213   0.00000  Uiso   1.00
O315   O     0.25491   0.48559   0.27013   0.00000  Uiso   1.00
O316   O     0.13760   0.40277   0.23413   0.00000  Uiso   1.00
O317   O     0.20345   0.58953   0.21360   0.00000  Uiso   1.00
O318   O     0.15451   0.45970   0.15458   0.00000  Uiso   1.00
O319   O     0.12940   0.53724   0.34968   0.00000  Uiso   1.00
O320   O     0.20824   0.51092   0.14606   0.00000  Uiso   1.00
O321   O     0.17451   0.49213   0.34968   0.00000  Uiso   1.00
Zn322  Zn    0.19338   0.47327   0.28734   0.00000  Uiso   1.00
Zn323  Zn    0.13379   0.45791   0.21875   0.00000  Uiso   1.00
Zn324  Zn    0.21056   0.53109   0.20657   0.00000  Uiso   1.00
Zn325  Zn    0.12893   0.53773   0.28733   0.00000  Uiso   1.00
O326   O     0.24592   0.42741   0.07931   0.00000  Uiso   1.00
C327   C     0.28014   0.45088   0.09434   0.00000  Uiso   1.00
H328   H     0.27818   0.48508   0.09910   0.00000  Uiso   1.00
H329   H     0.31027   0.44517   0.06959   0.00000  Uiso   1.00
C330   C     0.28115   0.43643   0.13914   0.00000  Uiso   1.00
H331   H     0.28710   0.40329   0.13494   0.00000  Uiso   1.00
H332   H     0.30679   0.45565   0.15243   0.00000  Uiso   1.00
H333   H     0.25028   0.43973   0.16374   0.00000  Uiso   1.00
S334   S     0.31413   0.44471   0.29479   0.00000  Uiso   1.00
O335   O     0.28226   0.45971   0.33555   0.00000  Uiso   1.00
O336   O     0.29172   0.41426   0.26560   0.00000  Uiso   1.00
O337   O     0.01578   0.42059   0.31139   0.00000  Uiso   1.00
H338   H     0.33136   0.39936   0.33083   0.00000  Uiso   1.00
O339   O     0.12130   0.66216   0.30215   0.00000  Uiso   1.00
C340   C     0.08292   0.34708   0.31174   0.00000  Uiso   1.00
H341   H     0.07114   0.34703   0.28091   0.00000  Uiso   1.00
H342   H     0.08743   0.37949   0.32707   0.00000  Uiso   1.00
C343   C     0.04910   0.65529   0.34502   0.00000  Uiso   1.00
H344   H     0.05851   0.65708   0.37727   0.00000  Uiso   1.00
H345   H     0.01819   0.33463   0.35112   0.00000  Uiso   1.00
H346   H     0.04520   0.62224   0.33158   0.00000  Uiso   1.00
O347   O     0.27741   0.43620   0.48758   0.00000  Uiso   1.00
C348   C     0.26660   0.39455   0.47235   0.00000  Uiso   1.00
H349   H     0.24554   0.39280   0.44878   0.00000  Uiso   1.00
H350   H     0.25040   0.37553   0.00097   0.00000  Uiso   1.00
C351   C     0.30710   0.37599   0.44758   0.00000  Uiso   1.00
H352   H     0.32857   0.37676   0.47042   0.00000  Uiso   1.00
H353   H     0.29909   0.34318   0.43530   0.00000  Uiso   1.00
H354   H     0.32382   0.39404   0.41849   0.00000  Uiso   1.00
S355   S     0.09456   0.59262   0.42521   0.00000  Uiso   1.00
O356   O     0.13196   0.61302   0.39239   0.00000  Uiso   1.00
O357   O     0.05926   0.57742   0.40215   0.00000  Uiso   1.00
O358   O     0.07803   0.62867   0.46702   0.00000  Uiso   1.00
H359   H     0.06632   0.64894   0.45325   0.00000  Uiso   1.00
O360   O     0.08811   0.49318   0.04774   0.00000  Uiso   1.00
C361   C     0.07677   0.45037   0.03687   0.00000  Uiso   1.00
H362   H     0.10310   0.43522   0.01309   0.00000  Uiso   1.00
H363   H     0.04894   0.44645   0.02163   0.00000  Uiso   1.00
C364   C     0.06499   0.42768   0.07944   0.00000  Uiso   1.00
H365   H     0.04068   0.44320   0.10525   0.00000  Uiso   1.00
H366   H     0.05211   0.39490   0.07220   0.00000  Uiso   1.00
H367   H     0.09360   0.42798   0.09271   0.00000  Uiso   1.00
S368   S     0.03980   0.55299   0.02028   0.00000  Uiso   1.00
O369   O     0.01258   0.55811   0.48913   0.00000  Uiso   1.00
O370   O     0.01605   0.52152   0.05233   0.00000  Uiso   1.00
O371   O     0.04846   0.59846   0.05007   0.00000  Uiso   1.00
H372   H     0.01974   0.60668   0.06420   0.00000  Uiso   1.00
C373   C     0.38652   0.49324   0.25919   0.00000  Uiso   1.00
C374   C     0.42326   0.53738   0.48965   0.00000  Uiso   1.00
C375   C     0.44361   0.51155   0.00908   0.00000  Uiso   1.00
C376   C     0.48655   0.50478   0.48894   0.00000  Uiso   1.00
C377   C     0.50295   0.51158   0.44319   0.00000  Uiso   1.00
C378   C     0.51262   0.48916   0.01228   0.00000  Uiso   1.00
C379   C     0.55108   0.47359   0.48833   0.00000  Uiso   1.00
C380   C     0.56689   0.48088   0.44323   0.00000  Uiso   1.00
C381   C     0.54437   0.50175   0.42182   0.00000  Uiso   1.00
C382   C     0.50325   0.49178   0.05916   0.00000  Uiso   1.00
C383   C     0.56102   0.45196   0.05740   0.00000  Uiso   1.00
C384   C     0.61385   0.50685   0.24057   0.00000  Uiso   1.00
C385   C     0.47775   0.52873   0.42024   0.00000  Uiso   1.00
C386   C     0.65886   0.51047   0.23981   0.00000  Uiso   1.00
C387   C     0.34150   0.48777   0.26429   0.00000  Uiso   1.00
C388   C     0.51211   0.65564   0.23725   0.00000  Uiso   1.00
C389   C     0.48418   0.34540   0.26545   0.00000  Uiso   1.00
C390   C     0.48999   0.38932   0.25982   0.00000  Uiso   1.00
C391   C     0.50973   0.61116   0.24053   0.00000  Uiso   1.00
C392   C     0.51865   0.48122   0.12958   0.00000  Uiso   1.00
C393   C     0.48390   0.51987   0.37081   0.00000  Uiso   1.00
C394   C     0.57386   0.45268   0.01061   0.00000  Uiso   1.00
C395   C     0.52696   0.47345   0.08134   0.00000  Uiso   1.00
C396   C     0.44297   0.54945   0.44595   0.00000  Uiso   1.00
H397   H     0.53663   0.33645   0.21052   0.00000  Uiso   1.00
H398   H     0.59776   0.47228   0.42496   0.00000  Uiso   1.00
H399   H     0.47911   0.51017   0.07921   0.00000  Uiso   1.00
H400   H     0.56030   0.51073   0.38863   0.00000  Uiso   1.00
H401   H     0.34674   0.53319   0.21886   0.00000  Uiso   1.00
O402   O     0.50000   0.50000   0.25000   0.00000  Uiso   1.00
O403   O     0.51264   0.41352   0.28213   0.00000  Uiso   1.00
O404   O     0.47965   0.59418   0.27013   0.00000  Uiso   1.00
O405   O     0.40745   0.46625   0.23413   0.00000  Uiso   1.00
O406   O     0.60026   0.52605   0.21360   0.00000  Uiso   1.00
O407   O     0.40405   0.52211   0.28213   0.00000  Uiso   1.00
O408   O     0.58824   0.48559   0.27013   0.00000  Uiso   1.00
O409   O     0.47093   0.40277   0.23413   0.00000  Uiso   1.00
O410   O     0.53678   0.58953   0.21360   0.00000  Uiso   1.00
O411   O     0.48784   0.45970   0.15458   0.00000  Uiso   1.00
O412   O     0.46274   0.53724   0.34968   0.00000  Uiso   1.00
O413   O     0.54157   0.51092   0.14606   0.00000  Uiso   1.00
O414   O     0.50785   0.49213   0.34968   0.00000  Uiso   1.00
Zn415  Zn    0.52672   0.47327   0.28734   0.00000  Uiso   1.00
Zn416  Zn    0.46713   0.45791   0.21875   0.00000  Uiso   1.00
Zn417  Zn    0.54389   0.53109   0.20657   0.00000  Uiso   1.00
Zn418  Zn    0.46226   0.53773   0.28733   0.00000  Uiso   1.00
O419   O     0.57925   0.42741   0.07931   0.00000  Uiso   1.00
C420   C     0.61347   0.45088   0.09434   0.00000  Uiso   1.00
H421   H     0.61151   0.48508   0.09910   0.00000  Uiso   1.00
H422   H     0.64360   0.44517   0.06959   0.00000  Uiso   1.00
C423   C     0.61449   0.43643   0.13914   0.00000  Uiso   1.00
H424   H     0.62044   0.40329   0.13494   0.00000  Uiso   1.00
H425   H     0.64013   0.45565   0.15243   0.00000  Uiso   1.00
H426   H     0.58361   0.43973   0.16374   0.00000  Uiso   1.00
S427   S     0.64746   0.44471   0.29479   0.00000  Uiso   1.00
O428   O     0.61560   0.45971   0.33555   0.00000  Uiso   1.00
O429   O     0.62505   0.41426   0.26560   0.00000  Uiso   1.00
O430   O     0.34911   0.42059   0.31139   0.00000  Uiso   1.00
H431   H     0.66470   0.39936   0.33083   0.00000  Uiso   1.00
O432   O     0.45464   0.66216   0.30215   0.00000  Uiso   1.00
C433   C     0.41626   0.34708   0.31174   0.00000  Uiso   1.00
H434   H     0.40448   0.34703   0.28091   0.00000  Uiso   1.00
H435   H     0.42077   0.37949   0.32707   0.00000  Uiso   1.00
C436   C     0.38244   0.65529   0.34502   0.00000  Uiso   1.00
H437   H     0.39184   0.65708   0.37727   0.00000  Uiso   1.00
H438   H     0.35152   0.33463   0.35112   0.00000  Uiso   1.00
H439   H     0.37854   0.62224   0.33158   0.00000  Uiso   1.00
O440   O     0.61074   0.43620   0.48758   0.00000  Uiso   1.00
C441   C     0.59994   0.39455   0.47235   0.00000  Uiso   1.00
H442   H     0.57887   0.39280   0.44878   0.00000  Uiso   1.00
H443   H     0.58373   0.37553   0.00097   0.00000  Uiso   1.00
C444   C     0.64043   0.37599   0.44758   0.00000  Uiso   1.00
H445   H     0.66191   0.37676   0.47042   0.00000  Uiso   1.00
H446   H     0.63243   0.34318   0.43530   0.00000  Uiso   1.00
H447   H     0.65715   0.39404   0.41849   0.00000  Uiso   1.00
S448   S     0.42789   0.59262   0.42521   0.00000  Uiso   1.00
O449   O     0.46529   0.61302   0.39239   0.00000  Uiso   1.00
O450   O     0.39259   0.57742   0.40215   0.00000  Uiso   1.00
O451   O     0.41137   0.62867   0.46702   0.00000  Uiso   1.00
H452   H     0.39966   0.64894   0.45325   0.00000  Uiso   1.00
O453   O     0.42145   0.49318   0.04774   0.00000  Uiso   1.00
C454   C     0.41011   0.45037   0.03687   0.00000  Uiso   1.00
H455   H     0.43643   0.43522   0.01309   0.00000  Uiso   1.00
H456   H     0.38227   0.44645   0.02163   0.00000  Uiso   1.00
C457   C     0.39832   0.42768   0.07944   0.00000  Uiso   1.00
H458   H     0.37401   0.44320   0.10525   0.00000  Uiso   1.00
H459   H     0.38544   0.39490   0.07220   0.00000  Uiso   1.00
H460   H     0.42693   0.42798   0.09271   0.00000  Uiso   1.00
S461   S     0.37313   0.55299   0.02028   0.00000  Uiso   1.00
O462   O     0.34592   0.55811   0.48913   0.00000  Uiso   1.00
O463   O     0.34938   0.52152   0.05233   0.00000  Uiso   1.00
O464   O     0.38179   0.59846   0.05007   0.00000  Uiso   1.00
H465   H     0.35308   0.60668   0.06420   0.00000  Uiso   1.00
C466   C     0.71985   0.49324   0.25919   0.00000  Uiso   1.00
C467   C     0.75660   0.53738   0.48965   0.00000  Uiso   1.00
C468   C     0.77695   0.51155   0.00908   0.00000  Uiso   1.00
C469   C     0.81989   0.50478   0.48894   0.00000  Uiso   1.00
C470   C     0.83628   0.51158   0.44319   0.00000  Uiso   1.00
C471   C     0.84595   0.48916   0.01228   0.00000  Uiso   1.00
C472   C     0.88441   0.47359   0.48833   0.00000  Uiso   1.00
C473   C     0.90023   0.48088   0.44323   0.00000  Uiso   1.00
C474   C     0.87770   0.50175   0.42182   0.00000  Uiso   1.00
C475   C     0.83658   0.49178   0.05916   0.00000  Uiso   1.00
C476   C     0.89435   0.45196   0.05740   0.00000  Uiso   1.00
C477   C     0.94719   0.50685   0.24057   0.00000  Uiso   1.00
C478   C     0.81108   0.52873   0.42024   0.00000  Uiso   1.00
C479   C     0.99220   0.51047   0.23981   0.00000  Uiso   1.00
C480   C     0.67484   0.48777   0.26429   0.00000  Uiso   1.00
C481   C     0.84544   0.65564   0.23725   0.00000  Uiso   1.00
C482   C     0.81751   0.34540   0.26545   0.00000  Uiso   1.00
C483   C     0.82332   0.38932   0.25982   0.00000  Uiso   1.00
C484   C     0.84306   0.61116   0.24053   0.00000  Uiso   1.00
C485   C     0.85199   0.48122   0.12958   0.00000  Uiso   1.00
C486   C     0.81723   0.51987   0.37081   0.00000  Uiso   1.00
C487   C     0.90719   0.45268   0.01061   0.00000  Uiso   1.00
C488   C     0.86029   0.47345   0.08134   0.00000  Uiso   1.00
C489   C     0.77630   0.54945   0.44595   0.00000  Uiso   1.00
H490   H     0.86996   0.33645   0.21052   0.00000  Uiso   1.00
H491   H     0.93109   0.47228   0.42496   0.00000  Uiso   1.00
H492   H     0.81244   0.51017   0.07921   0.00000  Uiso   1.00
H493   H     0.89363   0.51073   0.38863   0.00000  Uiso   1.00
H494   H     0.68007   0.53319   0.21886   0.00000  Uiso   1.00
O495   O     0.83333   0.50000   0.25000   0.00000  Uiso   1.00
O496   O     0.84597   0.41352   0.28213   0.00000  Uiso   1.00
O497   O     0.81298   0.59418   0.27013   0.00000  Uiso   1.00
O498   O     0.74078   0.46625   0.23413   0.00000  Uiso   1.00
O499   O     0.93360   0.52605   0.21360   0.00000  Uiso   1.00
O500   O     0.73738   0.52211   0.28213   0.00000  Uiso   1.00
O501   O     0.92158   0.48559   0.27013   0.00000  Uiso   1.00
O502   O     0.80426   0.40277   0.23413   0.00000  Uiso   1.00
O503   O     0.87012   0.58953   0.21360   0.00000  Uiso   1.00
O504   O     0.82118   0.45970   0.15458   0.00000  Uiso   1.00
O505   O     0.79607   0.53724   0.34968   0.00000  Uiso   1.00
O506   O     0.87491   0.51092   0.14606   0.00000  Uiso   1.00
O507   O     0.84118   0.49213   0.34968   0.00000  Uiso   1.00
Zn508  Zn    0.86005   0.47327   0.28734   0.00000  Uiso   1.00
Zn509  Zn    0.80046   0.45791   0.21875   0.00000  Uiso   1.00
Zn510  Zn    0.87723   0.53109   0.20657   0.00000  Uiso   1.00
Zn511  Zn    0.79560   0.53773   0.28733   0.00000  Uiso   1.00
O512   O     0.91258   0.42741   0.07931   0.00000  Uiso   1.00
C513   C     0.94680   0.45088   0.09434   0.00000  Uiso   1.00
H514   H     0.94485   0.48508   0.09910   0.00000  Uiso   1.00
H515   H     0.97693   0.44517   0.06959   0.00000  Uiso   1.00
C516   C     0.94782   0.43643   0.13914   0.00000  Uiso   1.00
H517   H     0.95377   0.40329   0.13494   0.00000  Uiso   1.00
H518   H     0.97346   0.45565   0.15243   0.00000  Uiso   1.00
H519   H     0.91695   0.43973   0.16374   0.00000  Uiso   1.00
S520   S     0.98080   0.44471   0.29479   0.00000  Uiso   1.00
O521   O     0.94893   0.45971   0.33555   0.00000  Uiso   1.00
O522   O     0.95838   0.41426   0.26560   0.00000  Uiso   1.00
O523   O     0.68245   0.42059   0.31139   0.00000  Uiso   1.00
H524   H     0.99803   0.39936   0.33083   0.00000  Uiso   1.00
O525   O     0.78797   0.66216   0.30215   0.00000  Uiso   1.00
C526   C     0.74959   0.34708   0.31174   0.00000  Uiso   1.00
H527   H     0.73781   0.34703   0.28091   0.00000  Uiso   1.00
H528   H     0.75410   0.37949   0.32707   0.00000  Uiso   1.00
C529   C     0.71577   0.65529   0.34502   0.00000  Uiso   1.00
H530   H     0.72517   0.65708   0.37727   0.00000  Uiso   1.00
H531   H     0.68486   0.33463   0.35112   0.00000  Uiso   1.00
H532   H     0.71187   0.62224   0.33158   0.00000  Uiso   1.00
O533   O     0.94408   0.43620   0.48758   0.00000  Uiso   1.00
C534   C     0.93327   0.39455   0.47235   0.00000  Uiso   1.00
H535   H     0.91220   0.39280   0.44878   0.00000  Uiso   1.00
H536   H     0.91706   0.37553   0.00097   0.00000  Uiso   1.00
C537   C     0.97376   0.37599   0.44758   0.00000  Uiso   1.00
H538   H     0.99524   0.37676   0.47042   0.00000  Uiso   1.00
H539   H     0.96576   0.34318   0.43530   0.00000  Uiso   1.00
H540   H     0.99049   0.39404   0.41849   0.00000  Uiso   1.00
S541   S     0.76123   0.59262   0.42521   0.00000  Uiso   1.00
O542   O     0.79862   0.61302   0.39239   0.00000  Uiso   1.00
O543   O     0.72593   0.57742   0.40215   0.00000  Uiso   1.00
O544   O     0.74470   0.62867   0.46702   0.00000  Uiso   1.00
H545   H     0.73299   0.64894   0.45325   0.00000  Uiso   1.00
O546   O     0.75478   0.49318   0.04774   0.00000  Uiso   1.00
C547   C     0.74344   0.45037   0.03687   0.00000  Uiso   1.00
H548   H     0.76976   0.43522   0.01309   0.00000  Uiso   1.00
H549   H     0.71560   0.44645   0.02163   0.00000  Uiso   1.00
C550   C     0.73166   0.42768   0.07944   0.00000  Uiso   1.00
H551   H     0.70735   0.44320   0.10525   0.00000  Uiso   1.00
H552   H     0.71878   0.39490   0.07220   0.00000  Uiso   1.00
H553   H     0.76026   0.42798   0.09271   0.00000  Uiso   1.00
S554   S     0.70646   0.55299   0.02028   0.00000  Uiso   1.00
O555   O     0.67925   0.55811   0.48913   0.00000  Uiso   1.00
O556   O     0.68272   0.52152   0.05233   0.00000  Uiso   1.00
O557   O     0.71512   0.59846   0.05007   0.00000  Uiso   1.00
H558   H     0.68641   0.60668   0.06420   0.00000  Uiso   1.00
C559   C     0.05318   0.82657   0.25919   0.00000  Uiso   1.00
C560   C     0.08993   0.87071   0.48965   0.00000  Uiso   1.00
C561   C     0.11028   0.84489   0.00908   0.00000  Uiso   1.00
C562   C     0.15322   0.83811   0.48894   0.00000  Uiso   1.00
C563   C     0.16962   0.84492   0.44319   0.00000  Uiso   1.00
C564   C     0.17929   0.82249   0.01228   0.00000  Uiso   1.00
C565   C     0.21775   0.80693   0.48833   0.00000  Uiso   1.00
C566   C     0.23356   0.81421   0.44323   0.00000  Uiso   1.00
C567   C     0.21103   0.83508   0.42182   0.00000  Uiso   1.00
C568   C     0.16992   0.82511   0.05916   0.00000  Uiso   1.00
C569   C     0.22769   0.78530   0.05740   0.00000  Uiso   1.00
C570   C     0.28052   0.84019   0.24057   0.00000  Uiso   1.00
C571   C     0.14441   0.86207   0.42024   0.00000  Uiso   1.00
C572   C     0.32553   0.84380   0.23981   0.00000  Uiso   1.00
C573   C     0.00817   0.82110   0.26429   0.00000  Uiso   1.00
C574   C     0.17877   0.98897   0.23725   0.00000  Uiso   1.00
C575   C     0.15085   0.67873   0.26545   0.00000  Uiso   1.00
C576   C     0.15665   0.72265   0.25982   0.00000  Uiso   1.00
C577   C     0.17639   0.94450   0.24053   0.00000  Uiso   1.00
C578   C     0.18532   0.81455   0.12958   0.00000  Uiso   1.00
C579   C     0.15057   0.85320   0.37081   0.00000  Uiso   1.00
C580   C     0.24053   0.78601   0.01061   0.00000  Uiso   1.00
C581   C     0.19362   0.80679   0.08134   0.00000  Uiso   1.00
C582   C     0.10963   0.88279   0.44595   0.00000  Uiso   1.00
H583   H     0.20329   0.66978   0.21052   0.00000  Uiso   1.00
H584   H     0.26442   0.80561   0.42496   0.00000  Uiso   1.00
H585   H     0.14578   0.84351   0.07921   0.00000  Uiso   1.00
H586   H     0.22696   0.84407   0.38863   0.00000  Uiso   1.00
H587   H     0.01341   0.86652   0.21886   0.00000  Uiso   1.00
O588   O     0.16667   0.83333   0.25000   0.00000  Uiso   1.00
O589   O     0.17930   0.74686   0.28213   0.00000  Uiso   1.00
O590   O     0.14632   0.92751   0.27013   0.00000  Uiso   1.00
O591   O     0.07412   0.79958   0.23413   0.00000  Uiso   1.00
O592   O     0.26693   0.85939   0.21360   0.00000  Uiso   1.00
O593   O     0.07071   0.85544   0.28213   0.00000  Uiso   1.00
O594   O     0.25491   0.81892   0.27013   0.00000  Uiso   1.00
O595   O     0.13760   0.73610   0.23413   0.00000  Uiso   1.00
O596   O     0.20345   0.92286   0.21360   0.00000  Uiso   1.00
O597   O     0.15451   0.79304   0.15458   0.00000  Uiso   1.00
O598   O     0.12940   0.87058   0.34968   0.00000  Uiso   1.00
O599   O     0.20824   0.84425   0.14606   0.00000  Uiso   1.00
O600   O     0.17451   0.82546   0.34968   0.00000  Uiso   1.00
Zn601  Zn    0.19338   0.80661   0.28734   0.00000  Uiso   1.00
Zn602  Zn    0.13379   0.79124   0.21875   0.00000  Uiso   1.00
Zn603  Zn    0.21056   0.86442   0.20657   0.00000  Uiso   1.00
Zn604  Zn    0.12893   0.87106   0.28733   0.00000  Uiso   1.00
O605   O     0.24592   0.76075   0.07931   0.00000  Uiso   1.00
C606   C     0.28014   0.78421   0.09434   0.00000  Uiso   1.00
H607   H     0.27818   0.81841   0.09910   0.00000  Uiso   1.00
H608   H     0.31027   0.77850   0.06959   0.00000  Uiso   1.00
C609   C     0.28115   0.76976   0.13914   0.00000  Uiso   1.00
H610   H     0.28710   0.73663   0.13494   0.00000  Uiso   1.00
H611   H     0.30679   0.78898   0.15243   0.00000  Uiso   1.00
H612   H     0.25028   0.77307   0.16374   0.00000  Uiso   1.00
S613   S     0.31413   0.77804   0.29479   0.00000  Uiso   1.00
O614   O     0.28226   0.79304   0.33555   0.00000  Uiso   1.00
O615   O     0.29172   0.74760   0.26560   0.00000  Uiso   1.00
O616   O     0.01578   0.75393   0.31139   0.00000  Uiso   1.00
H617   H     0.33136   0.73269   0.33083   0.00000  Uiso   1.00
O618   O     0.12130   0.99550   0.30215   0.00000  Uiso   1.00
C619   C     0.08292   0.68041   0.31174   0.00000  Uiso   1.00
H620   H     0.07114   0.68037   0.28091   0.00000  Uiso   1.00
H621   H     0.08743   0.71283   0.32707   0.00000  Uiso   1.00
C622   C     0.04910   0.98862   0.34502   0.00000  Uiso   1.00
H623   H     0.05851   0.99041   0.37727   0.00000  Uiso   1.00
H624   H     0.01819   0.66796   0.35112   0.00000  Uiso   1.00
H625   H     0.04520   0.95558   0.33158   0.00000  Uiso   1.00
O626   O     0.27741   0.76953   0.48758   0.00000  Uiso   1.00
C627   C     0.26660   0.72788   0.47235   0.00000  Uiso   1.00
H628   H     0.24554   0.72614   0.44878   0.00000  Uiso   1.00
H629   H     0.25040   0.70886   0.00097   0.00000  Uiso   1.00
C630   C     0.30710   0.70932   0.44758   0.00000  Uiso   1.00
H631   H     0.32857   0.71009   0.47042   0.00000  Uiso   1.00
H632   H     0.29909   0.67652   0.43530   0.00000  Uiso   1.00
H633   H     0.32382   0.72738   0.41849   0.00000  Uiso   1.00
S634   S     0.09456   0.92596   0.42521   0.00000  Uiso   1.00
O635   O     0.13196   0.94635   0.39239   0.00000  Uiso   1.00
O636   O     0.05926   0.91076   0.40215   0.00000  Uiso   1.00
O637   O     0.07803   0.96200   0.46702   0.00000  Uiso   1.00
H638   H     0.06632   0.98227   0.45325   0.00000  Uiso   1.00
O639   O     0.08811   0.82651   0.04774   0.00000  Uiso   1.00
C640   C     0.07677   0.78371   0.03687   0.00000  Uiso   1.00
H641   H     0.10310   0.76855   0.01309   0.00000  Uiso   1.00
H642   H     0.04894   0.77978   0.02163   0.00000  Uiso   1.00
C643   C     0.06499   0.76101   0.07944   0.00000  Uiso   1.00
H644   H     0.04068   0.77653   0.10525   0.00000  Uiso   1.00
H645   H     0.05211   0.72823   0.07220   0.00000  Uiso   1.00
H646   H     0.09360   0.76131   0.09271   0.00000  Uiso   1.00
S647   S     0.03980   0.88632   0.02028   0.00000  Uiso   1.00
O648   O     0.01258   0.89144   0.48913   0.00000  Uiso   1.00
O649   O     0.01605   0.85486   0.05233   0.00000  Uiso   1.00
O650   O     0.04846   0.93180   0.05007   0.00000  Uiso   1.00
H651   H     0.01974   0.94002   0.06420   0.00000  Uiso   1.00
C652   C     0.38652   0.82657   0.25919   0.00000  Uiso   1.00
C653   C     0.42326   0.87071   0.48965   0.00000  Uiso   1.00
C654   C     0.44361   0.84489   0.00908   0.00000  Uiso   1.00
C655   C     0.48655   0.83811   0.48894   0.00000  Uiso   1.00
C656   C     0.50295   0.84492   0.44319   0.00000  Uiso   1.00
C657   C     0.51262   0.82249   0.01228   0.00000  Uiso   1.00
C658   C     0.55108   0.80693   0.48833   0.00000  Uiso   1.00
C659   C     0.56689   0.81421   0.44323   0.00000  Uiso   1.00
C660   C     0.54437   0.83508   0.42182   0.00000  Uiso   1.00
C661   C     0.50325   0.82511   0.05916   0.00000  Uiso   1.00
C662   C     0.56102   0.78530   0.05740   0.00000  Uiso   1.00
C663   C     0.61385   0.84019   0.24057   0.00000  Uiso   1.00
C664   C     0.47775   0.86207   0.42024   0.00000  Uiso   1.00
C665   C     0.65886   0.84380   0.23981   0.00000  Uiso   1.00
C666   C     0.34150   0.82110   0.26429   0.00000  Uiso   1.00
C667   C     0.51211   0.98897   0.23725   0.00000  Uiso   1.00
C668   C     0.48418   0.67873   0.26545   0.00000  Uiso   1.00
C669   C     0.48999   0.72265   0.25982   0.00000  Uiso   1.00
C670   C     0.50973   0.94450   0.24053   0.00000  Uiso   1.00
C671   C     0.51865   0.81455   0.12958   0.00000  Uiso   1.00
C672   C     0.48390   0.85320   0.37081   0.00000  Uiso   1.00
C673   C     0.57386   0.78601   0.01061   0.00000  Uiso   1.00
C674   C     0.52696   0.80679   0.08134   0.00000  Uiso   1.00
C675   C     0.44297   0.88279   0.44595   0.00000  Uiso   1.00
H676   H     0.53663   0.66978   0.21052   0.00000  Uiso   1.00
H677   H     0.59776   0.80561   0.42496   0.00000  Uiso   1.00
H678   H     0.47911   0.84351   0.07921   0.00000  Uiso   1.00
H679   H     0.56030   0.84407   0.38863   0.00000  Uiso   1.00
H680   H     0.34674   0.86652   0.21886   0.00000  Uiso   1.00
O681   O     0.50000   0.83333   0.25000   0.00000  Uiso   1.00
O682   O     0.51264   0.74686   0.28213   0.00000  Uiso   1.00
O683   O     0.47965   0.92751   0.27013   0.00000  Uiso   1.00
O684   O     0.40745   0.79958   0.23413   0.00000  Uiso   1.00
O685   O     0.60026   0.85939   0.21360   0.00000  Uiso   1.00
O686   O     0.40405   0.85544   0.28213   0.00000  Uiso   1.00
O687   O     0.58824   0.81892   0.27013   0.00000  Uiso   1.00
O688   O     0.47093   0.73610   0.23413   0.00000  Uiso   1.00
O689   O     0.53678   0.92286   0.21360   0.00000  Uiso   1.00
O690   O     0.48784   0.79304   0.15458   0.00000  Uiso   1.00
O691   O     0.46274   0.87058   0.34968   0.00000  Uiso   1.00
O692   O     0.54157   0.84425   0.14606   0.00000  Uiso   1.00
O693   O     0.50785   0.82546   0.34968   0.00000  Uiso   1.00
Zn694  Zn    0.52672   0.80661   0.28734   0.00000  Uiso   1.00
Zn695  Zn    0.46713   0.79124   0.21875   0.00000  Uiso   1.00
Zn696  Zn    0.54389   0.86442   0.20657   0.00000  Uiso   1.00
Zn697  Zn    0.46226   0.87106   0.28733   0.00000  Uiso   1.00
O698   O     0.57925   0.76075   0.07931   0.00000  Uiso   1.00
C699   C     0.61347   0.78421   0.09434   0.00000  Uiso   1.00
H700   H     0.61151   0.81841   0.09910   0.00000  Uiso   1.00
H701   H     0.64360   0.77850   0.06959   0.00000  Uiso   1.00
C702   C     0.61449   0.76976   0.13914   0.00000  Uiso   1.00
H703   H     0.62044   0.73663   0.13494   0.00000  Uiso   1.00
H704   H     0.64013   0.78898   0.15243   0.00000  Uiso   1.00
H705   H     0.58361   0.77307   0.16374   0.00000  Uiso   1.00
S706   S     0.64746   0.77804   0.29479   0.00000  Uiso   1.00
O707   O     0.61560   0.79304   0.33555   0.00000  Uiso   1.00
O708   O     0.62505   0.74760   0.26560   0.00000  Uiso   1.00
O709   O     0.34911   0.75393   0.31139   0.00000  Uiso   1.00
H710   H     0.66470   0.73269   0.33083   0.00000  Uiso   1.00
O711   O     0.45464   0.99550   0.30215   0.00000  Uiso   1.00
C712   C     0.41626   0.68041   0.31174   0.00000  Uiso   1.00
H713   H     0.40448   0.68037   0.28091   0.00000  Uiso   1.00
H714   H     0.42077   0.71283   0.32707   0.00000  Uiso   1.00
C715   C     0.38244   0.98862   0.34502   0.00000  Uiso   1.00
H716   H     0.39184   0.99041   0.37727   0.00000  Uiso   1.00
H717   H     0.35152   0.66796   0.35112   0.00000  Uiso   1.00
H718   H     0.37854   0.95558   0.33158   0.00000  Uiso   1.00
O719   O     0.61074   0.76953   0.48758   0.00000  Uiso   1.00
C720   C     0.59994   0.72788   0.47235   0.00000  Uiso   1.00
H721   H     0.57887   0.72614   0.44878   0.00000  Uiso   1.00
H722   H     0.58373   0.70886   0.00097   0.00000  Uiso   1.00
C723   C     0.64043   0.70932   0.44758   0.00000  Uiso   1.00
H724   H     0.66191   0.71009   0.47042   0.00000  Uiso   1.00
H725   H     0.63243   0.67652   0.43530   0.00000  Uiso   1.00
H726   H     0.65715   0.72738   0.41849   0.00000  Uiso   1.00
S727   S     0.42789   0.92596   0.42521   0.00000  Uiso   1.00
O728   O     0.46529   0.94635   0.39239   0.00000  Uiso   1.00
O729   O     0.39259   0.91076   0.40215   0.00000  Uiso   1.00
O730   O     0.41137   0.96200   0.46702   0.00000  Uiso   1.00
H731   H     0.39966   0.98227   0.45325   0.00000  Uiso   1.00
O732   O     0.42145   0.82651   0.04774   0.00000  Uiso   1.00
C733   C     0.41011   0.78371   0.03687   0.00000  Uiso   1.00
H734   H     0.43643   0.76855   0.01309   0.00000  Uiso   1.00
H735   H     0.38227   0.77978   0.02163   0.00000  Uiso   1.00
C736   C     0.39832   0.76101   0.07944   0.00000  Uiso   1.00
H737   H     0.37401   0.77653   0.10525   0.00000  Uiso   1.00
H738   H     0.38544   0.72823   0.07220   0.00000  Uiso   1.00
H739   H     0.42693   0.76131   0.09271   0.00000  Uiso   1.00
S740   S     0.37313   0.88632   0.02028   0.00000  Uiso   1.00
O741   O     0.34592   0.89144   0.48913   0.00000  Uiso   1.00
O742   O     0.34938   0.85486   0.05233   0.00000  Uiso   1.00
O743   O     0.38179   0.93180   0.05007   0.00000  Uiso   1.00
H744   H     0.35308   0.94002   0.06420   0.00000  Uiso   1.00
C745   C     0.71985   0.82657   0.25919   0.00000  Uiso   1.00
C746   C     0.75660   0.87071   0.48965   0.00000  Uiso   1.00
C747   C     0.77695   0.84489   0.00908   0.00000  Uiso   1.00
C748   C     0.81989   0.83811   0.48894   0.00000  Uiso   1.00
C749   C     0.83628   0.84492   0.44319   0.00000  Uiso   1.00
C750   C     0.84595   0.82249   0.01228   0.00000  Uiso   1.00
C751   C     0.88441   0.80693   0.48833   0.00000  Uiso   1.00
C752   C     0.90023   0.81421   0.44323   0.00000  Uiso   1.00
C753   C     0.87770   0.83508   0.42182   0.00000  Uiso   1.00
C754   C     0.83658   0.82511   0.05916   0.00000  Uiso   1.00
C755   C     0.89435   0.78530   0.05740   0.00000  Uiso   1.00
C756   C     0.94719   0.84019   0.24057   0.00000  Uiso   1.00
C757   C     0.81108   0.86207   0.42024   0.00000  Uiso   1.00
C758   C     0.99220   0.84380   0.23981   0.00000  Uiso   1.00
C759   C     0.67484   0.82110   0.26429   0.00000  Uiso   1.00
C760   C     0.84544   0.98897   0.23725   0.00000  Uiso   1.00
C761   C     0.81751   0.67873   0.26545   0.00000  Uiso   1.00
C762   C     0.82332   0.72265   0.25982   0.00000  Uiso   1.00
C763   C     0.84306   0.94450   0.24053   0.00000  Uiso   1.00
C764   C     0.85199   0.81455   0.12958   0.00000  Uiso   1.00
C765   C     0.81723   0.85320   0.37081   0.00000  Uiso   1.00
C766   C     0.90719   0.78601   0.01061   0.00000  Uiso   1.00
C767   C     0.86029   0.80679   0.08134   0.00000  Uiso   1.00
C768   C     0.77630   0.88279   0.44595   0.00000  Uiso   1.00
H769   H     0.86996   0.66978   0.21052   0.00000  Uiso   1.00
H770   H     0.93109   0.80561   0.42496   0.00000  Uiso   1.00
H771   H     0.81244   0.84351   0.07921   0.00000  Uiso   1.00
H772   H     0.89363   0.84407   0.38863   0.00000  Uiso   1.00
H773   H     0.68007   0.86652   0.21886   0.00000  Uiso   1.00
O774   O     0.83333   0.83333   0.25000   0.00000  Uiso   1.00
O775   O     0.84597   0.74686   0.28213   0.00000  Uiso   1.00
O776   O     0.81298   0.92751   0.27013   0.00000  Uiso   1.00
O777   O     0.74078   0.79958   0.23413   0.00000  Uiso   1.00
O778   O     0.93360   0.85939   0.21360   0.00000  Uiso   1.00
O779   O     0.73738   0.85544   0.28213   0.00000  Uiso   1.00
O780   O     0.92158   0.81892   0.27013   0.00000  Uiso   1.00
O781   O     0.80426   0.73610   0.23413   0.00000  Uiso   1.00
O782   O     0.87012   0.92286   0.21360   0.00000  Uiso   1.00
O783   O     0.82118   0.79304   0.15458   0.00000  Uiso   1.00
O784   O     0.79607   0.87058   0.34968   0.00000  Uiso   1.00
O785   O     0.87491   0.84425   0.14606   0.00000  Uiso   1.00
O786   O     0.84118   0.82546   0.34968   0.00000  Uiso   1.00
Zn787  Zn    0.86005   0.80661   0.28734   0.00000  Uiso   1.00
Zn788  Zn    0.80046   0.79124   0.21875   0.00000  Uiso   1.00
Zn789  Zn    0.87723   0.86442   0.20657   0.00000  Uiso   1.00
Zn790  Zn    0.79560   0.87106   0.28733   0.00000  Uiso   1.00
O791   O     0.91258   0.76075   0.07931   0.00000  Uiso   1.00
C792   C     0.94680   0.78421   0.09434   0.00000  Uiso   1.00
H793   H     0.94485   0.81841   0.09910   0.00000  Uiso   1.00
H794   H     0.97693   0.77850   0.06959   0.00000  Uiso   1.00
C795   C     0.94782   0.76976   0.13914   0.00000  Uiso   1.00
H796   H     0.95377   0.73663   0.13494   0.00000  Uiso   1.00
H797   H     0.97346   0.78898   0.15243   0.00000  Uiso   1.00
H798   H     0.91695   0.77307   0.16374   0.00000  Uiso   1.00
S799   S     0.98080   0.77804   0.29479   0.00000  Uiso   1.00
O800   O     0.94893   0.79304   0.33555   0.00000  Uiso   1.00
O801   O     0.95838   0.74760   0.26560   0.00000  Uiso   1.00
O802   O     0.68245   0.75393   0.31139   0.00000  Uiso   1.00
H803   H     0.99803   0.73269   0.33083   0.00000  Uiso   1.00
O804   O     0.78797   0.99550   0.30215   0.00000  Uiso   1.00
C805   C     0.74959   0.68041   0.31174   0.00000  Uiso   1.00
H806   H     0.73781   0.68037   0.28091   0.00000  Uiso   1.00
H807   H     0.75410   0.71283   0.32707   0.00000  Uiso   1.00
C808   C     0.71577   0.98862   0.34502   0.00000  Uiso   1.00
H809   H     0.72517   0.99041   0.37727   0.00000  Uiso   1.00
H810   H     0.68486   0.66796   0.35112   0.00000  Uiso   1.00
H811   H     0.71187   0.95558   0.33158   0.00000  Uiso   1.00
O812   O     0.94408   0.76953   0.48758   0.00000  Uiso   1.00
C813   C     0.93327   0.72788   0.47235   0.00000  Uiso   1.00
H814   H     0.91220   0.72614   0.44878   0.00000  Uiso   1.00
H815   H     0.91706   0.70886   0.00097   0.00000  Uiso   1.00
C816   C     0.97376   0.70932   0.44758   0.00000  Uiso   1.00
H817   H     0.99524   0.71009   0.47042   0.00000  Uiso   1.00
H818   H     0.96576   0.67652   0.43530   0.00000  Uiso   1.00
H819   H     0.99049   0.72738   0.41849   0.00000  Uiso   1.00
S820   S     0.76123   0.92596   0.42521   0.00000  Uiso   1.00
O821   O     0.79862   0.94635   0.39239   0.00000  Uiso   1.00
O822   O     0.72593   0.91076   0.40215   0.00000  Uiso   1.00
O823   O     0.74470   0.96200   0.46702   0.00000  Uiso   1.00
H824   H     0.73299   0.98227   0.45325   0.00000  Uiso   1.00
O825   O     0.75478   0.82651   0.04774   0.00000  Uiso   1.00
C826   C     0.74344   0.78371   0.03687   0.00000  Uiso   1.00
H827   H     0.76976   0.76855   0.01309   0.00000  Uiso   1.00
H828   H     0.71560   0.77978   0.02163   0.00000  Uiso   1.00
C829   C     0.73166   0.76101   0.07944   0.00000  Uiso   1.00
H830   H     0.70735   0.77653   0.10525   0.00000  Uiso   1.00
H831   H     0.71878   0.72823   0.07220   0.00000  Uiso   1.00
H832   H     0.76026   0.76131   0.09271   0.00000  Uiso   1.00
S833   S     0.70646   0.88632   0.02028   0.00000  Uiso   1.00
O834   O     0.67925   0.89144   0.48913   0.00000  Uiso   1.00
O835   O     0.68272   0.85486   0.05233   0.00000  Uiso   1.00
O836   O     0.71512   0.93180   0.05007   0.00000  Uiso   1.00
H837   H     0.68641   0.94002   0.06420   0.00000  Uiso   1.00
C838   C     0.05318   0.15991   0.75919   0.00000  Uiso   1.00
C839   C     0.08993   0.20404   0.98965   0.00000  Uiso   1.00
C840   C     0.11028   0.17822   0.50908   0.00000  Uiso   1.00
C841   C     0.15322   0.17144   0.98894   0.00000  Uiso   1.00
C842   C     0.16962   0.17825   0.94319   0.00000  Uiso   1.00
C843   C     0.17929   0.15583   0.51228   0.00000  Uiso   1.00
C844   C     0.21775   0.14026   0.98833   0.00000  Uiso   1.00
C845   C     0.23356   0.14755   0.94323   0.00000  Uiso   1.00
C846   C     0.21103   0.16841   0.92182   0.00000  Uiso   1.00
C847   C     0.16992   0.15845   0.55916   0.00000  Uiso   1.00
C848   C     0.22769   0.11863   0.55740   0.00000  Uiso   1.00
C849   C     0.28052   0.17352   0.74057   0.00000  Uiso   1.00
C850   C     0.14441   0.19540   0.92024   0.00000  Uiso   1.00
C851   C     0.32553   0.17713   0.73981   0.00000  Uiso   1.00
C852   C     0.00817   0.15443   0.76429   0.00000  Uiso   1.00
C853   C     0.17877   0.32231   0.73725   0.00000  Uiso   1.00
C854   C     0.15085   0.01207   0.76545   0.00000  Uiso   1.00
C855   C     0.15665   0.05598   0.75982   0.00000  Uiso   1.00
C856   C     0.17639   0.27783   0.74053   0.00000  Uiso   1.00
C857   C     0.18532   0.14788   0.62958   0.00000  Uiso   1.00
C858   C     0.15057   0.18654   0.87081   0.00000  Uiso   1.00
C859   C     0.24053   0.11934   0.51061   0.00000  Uiso   1.00
C860   C     0.19362   0.14012   0.58134   0.00000  Uiso   1.00
C861   C     0.10963   0.21612   0.94595   0.00000  Uiso   1.00
H862   H     0.20329   0.00312   0.71052   0.00000  Uiso   1.00
H863   H     0.26442   0.13895   0.92496   0.00000  Uiso   1.00
H864   H     0.14578   0.17684   0.57921   0.00000  Uiso   1.00
H865   H     0.22696   0.17740   0.88863   0.00000  Uiso   1.00
H866   H     0.01341   0.19986   0.71886   0.00000  Uiso   1.00
O867   O     0.16667   0.16667   0.75000   0.00000  Uiso   1.00
O868   O     0.17930   0.08019   0.78213   0.00000  Uiso   1.00
O869   O     0.14632   0.26085   0.77013   0.00000  Uiso   1.00
O870   O     0.07412   0.13291   0.73413   0.00000  Uiso   1.00
O871   O     0.26693   0.19272   0.71360   0.00000  Uiso   1.00
O872   O     0.07071   0.18878   0.78213   0.00000  Uiso   1.00
O873   O     0.25491   0.15226   0.77013   0.00000  Uiso   1.00
O874   O     0.13760   0.06944   0.73413   0.00000  Uiso   1.00
O875   O     0.20345   0.25620   0.71360   0.00000  Uiso   1.00
O876   O     0.15451   0.12637   0.65458   0.00000  Uiso   1.00
O877   O     0.12940   0.20391   0.84968   0.00000  Uiso   1.00
O878   O     0.20824   0.17759   0.64606   0.00000  Uiso   1.00
O879   O     0.17451   0.15880   0.84968   0.00000  Uiso   1.00
Zn880  Zn    0.19338   0.13994   0.78734   0.00000  Uiso   1.00
Zn881  Zn    0.13379   0.12458   0.71875   0.00000  Uiso   1.00
Zn882  Zn    0.21056   0.19775   0.70657   0.00000  Uiso   1.00
Zn883  Zn    0.12893   0.20439   0.78733   0.00000  Uiso   1.00
O884   O     0.24592   0.09408   0.57931   0.00000  Uiso   1.00
C885   C     0.28014   0.11755   0.59434   0.00000  Uiso   1.00
H886   H     0.27818   0.15174   0.59910   0.00000  Uiso   1.00
H887   H     0.31027   0.11184   0.56959   0.00000  Uiso   1.00
C888   C     0.28115   0.10309   0.63914   0.00000  Uiso   1.00
H889   H     0.28710   0.06996   0.63494   0.00000  Uiso   1.00
H890   H     0.30679   0.12232   0.65243   0.00000  Uiso   1.00
H891   H     0.25028   0.10640   0.66374   0.00000  Uiso   1.00
S892   S     0.31413   0.11137   0.79479   0.00000  Uiso   1.00
O893   O     0.28226   0.12637   0.83555   0.00000  Uiso   1.00
O894   O     0.29172   0.08093   0.76560   0.00000  Uiso   1.00
O895   O     0.01578   0.08726   0.81139   0.00000  Uiso   1.00
H896   H     0.33136   0.06602   0.83083   0.00000  Uiso   1.00
O897   O     0.12130   0.32883   0.80215   0.00000  Uiso   1.00
C898   C     0.08292   0.01375   0.81174   0.00000  Uiso   1.00
H899   H     0.07114   0.01370   0.78091   0.00000  Uiso   1.00
H900   H     0.08743   0.04616   0.82707   0.00000  Uiso   1.00
C901   C     0.04910   0.32196   0.84502   0.00000  Uiso   1.00
H902   H     0.05851   0.32375   0.87727   0.00000  Uiso   1.00
H903   H     0.01819   0.00130   0.85112   0.00000  Uiso   1.00
H904   H     0.04520   0.28891   0.83158   0.00000  Uiso   1.00
O905   O     0.27741   0.10287   0.98758   0.00000  Uiso   1.00
C906   C     0.26660   0.06121   0.97235   0.00000  Uiso   1.00
H907   H     0.24554   0.05947   0.94878   0.00000  Uiso   1.00
H908   H     0.25040   0.04219   0.50097   0.00000  Uiso   1.00
C909   C     0.30710   0.04265   0.94758   0.00000  Uiso   1.00
H910   H     0.32857   0.04343   0.97042   0.00000  Uiso   1.00
H911   H     0.29909   0.00985   0.93530   0.00000  Uiso   1.00
H912   H     0.32382   0.06071   0.91849   0.00000  Uiso   1.00
S913   S     0.09456   0.25929   0.92521   0.00000  Uiso   1.00
O914   O     0.13196   0.27968   0.89239   0.00000  Uiso   1.00
O915   O     0.05926   0.24409   0.90215   0.00000  Uiso   1.00
O916   O     0.07803   0.29534   0.96702   0.00000  Uiso   1.00
H917   H     0.06632   0.31560   0.95325   0.00000  Uiso   1.00
O918   O     0.08811   0.15985   0.54774   0.00000  Uiso   1.00
C919   C     0.07677   0.11704   0.53687   0.00000  Uiso   1.00
H920   H     0.10310   0.10189   0.51309   0.00000  Uiso   1.00
H921   H     0.04894   0.11312   0.52163   0.00000  Uiso   1.00
C922   C     0.06499   0.09434   0.57944   0.00000  Uiso   1.00
H923   H     0.04068   0.10987   0.60525   0.00000  Uiso   1.00
H924   H     0.05211   0.06156   0.57220   0.00000  Uiso   1.00
H925   H     0.09360   0.09464   0.59271   0.00000  Uiso   1.00
S926   S     0.03980   0.21965   0.52028   0.00000  Uiso   1.00
O927   O     0.01258   0.22477   0.98913   0.00000  Uiso   1.00
O928   O     0.01605   0.18819   0.55233   0.00000  Uiso   1.00
O929   O     0.04846   0.26513   0.55007   0.00000  Uiso   1.00
H930   H     0.01974   0.27335   0.56420   0.00000  Uiso   1.00
C931   C     0.38652   0.15991   0.75919   0.00000  Uiso   1.00
C932   C     0.42326   0.20404   0.98965   0.00000  Uiso   1.00
C933   C     0.44361   0.17822   0.50908   0.00000  Uiso   1.00
C934   C     0.48655   0.17144   0.98894   0.00000  Uiso   1.00
C935   C     0.50295   0.17825   0.94319   0.00000  Uiso   1.00
C936   C     0.51262   0.15583   0.51228   0.00000  Uiso   1.00
C937   C     0.55108   0.14026   0.98833   0.00000  Uiso   1.00
C938   C     0.56689   0.14755   0.94323   0.00000  Uiso   1.00
C939   C     0.54437   0.16841   0.92182   0.00000  Uiso   1.00
C940   C     0.50325   0.15845   0.55916   0.00000  Uiso   1.00
C941   C     0.56102   0.11863   0.55740   0.00000  Uiso   1.00
C942   C     0.61385   0.17352   0.74057   0.00000  Uiso   1.00
C943   C     0.47775   0.19540   0.92024   0.00000  Uiso   1.00
C944   C     0.65886   0.17713   0.73981   0.00000  Uiso   1.00
C945   C     0.34150   0.15443   0.76429   0.00000  Uiso   1.00
C946   C     0.51211   0.32231   0.73725   0.00000  Uiso   1.00
C947   C     0.48418   0.01207   0.76545   0.00000  Uiso   1.00
C948   C     0.48999   0.05598   0.75982   0.00000  Uiso   1.00
C949   C     0.50973   0.27783   0.74053   0.00000  Uiso   1.00
C950   C     0.51865   0.14788   0.62958   0.00000  Uiso   1.00
C951   C     0.48390   0.18654   0.87081   0.00000  Uiso   1.00
C952   C     0.57386   0.11934   0.51061   0.00000  Uiso   1.00
C953   C     0.52696   0.14012   0.58134   0.00000  Uiso   1.00
C954   C     0.44297   0.21612   0.94595   0.00000  Uiso   1.00
H955   H     0.53663   0.00312   0.71052   0.00000  Uiso   1.00
H956   H     0.59776   0.13895   0.92496   0.00000  Uiso   1.00
H957   H     0.47911   0.17684   0.57921   0.00000  Uiso   1.00
H958   H     0.56030   0.17740   0.88863   0.00000  Uiso   1.00
H959   H     0.34674   0.19986   0.71886   0.00000  Uiso   1.00
O960   O     0.50000   0.16667   0.75000   0.00000  Uiso   1.00
O961   O     0.51264   0.08019   0.78213   0.00000  Uiso   1.00
O962   O     0.47965   0.26085   0.77013   0.00000  Uiso   1.00
O963   O     0.40745   0.13291   0.73413   0.00000  Uiso   1.00
O964   O     0.60026   0.19272   0.71360   0.00000  Uiso   1.00
O965   O     0.40405   0.18878   0.78213   0.00000  Uiso   1.00
O966   O     0.58824   0.15226   0.77013   0.00000  Uiso   1.00
O967   O     0.47093   0.06944   0.73413   0.00000  Uiso   1.00
O968   O     0.53678   0.25620   0.71360   0.00000  Uiso   1.00
O969   O     0.48784   0.12637   0.65458   0.00000  Uiso   1.00
O970   O     0.46274   0.20391   0.84968   0.00000  Uiso   1.00
O971   O     0.54157   0.17759   0.64606   0.00000  Uiso   1.00
O972   O     0.50785   0.15880   0.84968   0.00000  Uiso   1.00
Zn973  Zn    0.52672   0.13994   0.78734   0.00000  Uiso   1.00
Zn974  Zn    0.46713   0.12458   0.71875   0.00000  Uiso   1.00
Zn975  Zn    0.54389   0.19775   0.70657   0.00000  Uiso   1.00
Zn976  Zn    0.46226   0.20439   0.78733   0.00000  Uiso   1.00
O977   O     0.57925   0.09408   0.57931   0.00000  Uiso   1.00
C978   C     0.61347   0.11755   0.59434   0.00000  Uiso   1.00
H979   H     0.61151   0.15174   0.59910   0.00000  Uiso   1.00
H980   H     0.64360   0.11184   0.56959   0.00000  Uiso   1.00
C981   C     0.61449   0.10309   0.63914   0.00000  Uiso   1.00
H982   H     0.62044   0.06996   0.63494   0.00000  Uiso   1.00
H983   H     0.64013   0.12232   0.65243   0.00000  Uiso   1.00
H984   H     0.58361   0.10640   0.66374   0.00000  Uiso   1.00
S985   S     0.64746   0.11137   0.79479   0.00000  Uiso   1.00
O986   O     0.61560   0.12637   0.83555   0.00000  Uiso   1.00
O987   O     0.62505   0.08093   0.76560   0.00000  Uiso   1.00
O988   O     0.34911   0.08726   0.81139   0.00000  Uiso   1.00
H989   H     0.66470   0.06602   0.83083   0.00000  Uiso   1.00
O990   O     0.45464   0.32883   0.80215   0.00000  Uiso   1.00
C991   C     0.41626   0.01375   0.81174   0.00000  Uiso   1.00
H992   H     0.40448   0.01370   0.78091   0.00000  Uiso   1.00
H993   H     0.42077   0.04616   0.82707   0.00000  Uiso   1.00
C994   C     0.38244   0.32196   0.84502   0.00000  Uiso   1.00
H995   H     0.39184   0.32375   0.87727   0.00000  Uiso   1.00
H996   H     0.35152   0.00130   0.85112   0.00000  Uiso   1.00
H997   H     0.37854   0.28891   0.83158   0.00000  Uiso   1.00
O998   O     0.61074   0.10287   0.98758   0.00000  Uiso   1.00
C999   C     0.59994   0.06121   0.97235   0.00000  Uiso   1.00
H1000  H     0.57887   0.05947   0.94878   0.00000  Uiso   1.00
H1001  H     0.58373   0.04219   0.50097   0.00000  Uiso   1.00
C1002  C     0.64043   0.04265   0.94758   0.00000  Uiso   1.00
H1003  H     0.66191   0.04343   0.97042   0.00000  Uiso   1.00
H1004  H     0.63243   0.00985   0.93530   0.00000  Uiso   1.00
H1005  H     0.65715   0.06071   0.91849   0.00000  Uiso   1.00
S1006  S     0.42789   0.25929   0.92521   0.00000  Uiso   1.00
O1007  O     0.46529   0.27968   0.89239   0.00000  Uiso   1.00
O1008  O     0.39259   0.24409   0.90215   0.00000  Uiso   1.00
O1009  O     0.41137   0.29534   0.96702   0.00000  Uiso   1.00
H1010  H     0.39966   0.31560   0.95325   0.00000  Uiso   1.00
O1011  O     0.42145   0.15985   0.54774   0.00000  Uiso   1.00
C1012  C     0.41011   0.11704   0.53687   0.00000  Uiso   1.00
H1013  H     0.43643   0.10189   0.51309   0.00000  Uiso   1.00
H1014  H     0.38227   0.11312   0.52163   0.00000  Uiso   1.00
C1015  C     0.39832   0.09434   0.57944   0.00000  Uiso   1.00
H1016  H     0.37401   0.10987   0.60525   0.00000  Uiso   1.00
H1017  H     0.38544   0.06156   0.57220   0.00000  Uiso   1.00
H1018  H     0.42693   0.09464   0.59271   0.00000  Uiso   1.00
S1019  S     0.37313   0.21965   0.52028   0.00000  Uiso   1.00
O1020  O     0.34592   0.22477   0.98913   0.00000  Uiso   1.00
O1021  O     0.34938   0.18819   0.55233   0.00000  Uiso   1.00
O1022  O     0.38179   0.26513   0.55007   0.00000  Uiso   1.00
H1023  H     0.35308   0.27335   0.56420   0.00000  Uiso   1.00
C1024  C     0.71985   0.15991   0.75919   0.00000  Uiso   1.00
C1025  C     0.75660   0.20404   0.98965   0.00000  Uiso   1.00
C1026  C     0.77695   0.17822   0.50908   0.00000  Uiso   1.00
C1027  C     0.81989   0.17144   0.98894   0.00000  Uiso   1.00
C1028  C     0.83628   0.17825   0.94319   0.00000  Uiso   1.00
C1029  C     0.84595   0.15583   0.51228   0.00000  Uiso   1.00
C1030  C     0.88441   0.14026   0.98833   0.00000  Uiso   1.00
C1031  C     0.90023   0.14755   0.94323   0.00000  Uiso   1.00
C1032  C     0.87770   0.16841   0.92182   0.00000  Uiso   1.00
C1033  C     0.83658   0.15845   0.55916   0.00000  Uiso   1.00
C1034  C     0.89435   0.11863   0.55740   0.00000  Uiso   1.00
C1035  C     0.94719   0.17352   0.74057   0.00000  Uiso   1.00
C1036  C     0.81108   0.19540   0.92024   0.00000  Uiso   1.00
C1037  C     0.99220   0.17713   0.73981   0.00000  Uiso   1.00
C1038  C     0.67484   0.15443   0.76429   0.00000  Uiso   1.00
C1039  C     0.84544   0.32231   0.73725   0.00000  Uiso   1.00
C1040  C     0.81751   0.01207   0.76545   0.00000  Uiso   1.00
C1041  C     0.82332   0.05598   0.75982   0.00000  Uiso   1.00
C1042  C     0.84306   0.27783   0.74053   0.00000  Uiso   1.00
C1043  C     0.85199   0.14788   0.62958   0.00000  Uiso   1.00
C1044  C     0.81723   0.18654   0.87081   0.00000  Uiso   1.00
C1045  C     0.90719   0.11934   0.51061   0.00000  Uiso   1.00
C1046  C     0.86029   0.14012   0.58134   0.00000  Uiso   1.00
C1047  C     0.77630   0.21612   0.94595   0.00000  Uiso   1.00
H1048  H     0.86996   0.00312   0.71052   0.00000  Uiso   1.00
H1049  H     0.93109   0.13895   0.92496   0.00000  Uiso   1.00
H1050  H     0.81244   0.17684   0.57921   0.00000  Uiso   1.00
H1051  H     0.89363   0.17740   0.88863   0.00000  Uiso   1.00
H1052  H     0.68007   0.19986   0.71886   0.00000  Uiso   1.00
O1053  O     0.83333   0.16667   0.75000   0.00000  Uiso   1.00
O1054  O     0.84597   0.08019   0.78213   0.00000  Uiso   1.00
O1055  O     0.81298   0.26085   0.77013   0.00000  Uiso   1.00
O1056  O     0.74078   0.13291   0.73413   0.00000  Uiso   1.00
O1057  O     0.93360   0.19272   0.71360   0.00000  Uiso   1.00
O1058  O     0.73738   0.18878   0.78213   0.00000  Uiso   1.00
O1059  O     0.92158   0.15226   0.77013   0.00000  Uiso   1.00
O1060  O     0.80426   0.06944   0.73413   0.00000  Uiso   1.00
O1061  O     0.87012   0.25620   0.71360   0.00000  Uiso   1.00
O1062  O     0.82118   0.12637   0.65458   0.00000  Uiso   1.00
O1063  O     0.79607   0.20391   0.84968   0.00000  Uiso   1.00
O1064  O     0.87491   0.17759   0.64606   0.00000  Uiso   1.00
O1065  O     0.84118   0.15880   0.84968   0.00000  Uiso   1.00
Zn1066 Zn    0.86005   0.13994   0.78734   0.00000  Uiso   1.00
Zn1067 Zn    0.80046   0.12458   0.71875   0.00000  Uiso   1.00
Zn1068 Zn    0.87723   0.19775   0.70657   0.00000  Uiso   1.00
Zn1069 Zn    0.79560   0.20439   0.78733   0.00000  Uiso   1.00
O1070  O     0.91258   0.09408   0.57931   0.00000  Uiso   1.00
C1071  C     0.94680   0.11755   0.59434   0.00000  Uiso   1.00
H1072  H     0.94485   0.15174   0.59910   0.00000  Uiso   1.00
H1073  H     0.97693   0.11184   0.56959   0.00000  Uiso   1.00
C1074  C     0.94782   0.10309   0.63914   0.00000  Uiso   1.00
H1075  H     0.95377   0.06996   0.63494   0.00000  Uiso   1.00
H1076  H     0.97346   0.12232   0.65243   0.00000  Uiso   1.00
H1077  H     0.91695   0.10640   0.66374   0.00000  Uiso   1.00
S1078  S     0.98080   0.11137   0.79479   0.00000  Uiso   1.00
O1079  O     0.94893   0.12637   0.83555   0.00000  Uiso   1.00
O1080  O     0.95838   0.08093   0.76560   0.00000  Uiso   1.00
O1081  O     0.68245   0.08726   0.81139   0.00000  Uiso   1.00
H1082  H     0.99803   0.06602   0.83083   0.00000  Uiso   1.00
O1083  O     0.78797   0.32883   0.80215   0.00000  Uiso   1.00
C1084  C     0.74959   0.01375   0.81174   0.00000  Uiso   1.00
H1085  H     0.73781   0.01370   0.78091   0.00000  Uiso   1.00
H1086  H     0.75410   0.04616   0.82707   0.00000  Uiso   1.00
C1087  C     0.71577   0.32196   0.84502   0.00000  Uiso   1.00
H1088  H     0.72517   0.32375   0.87727   0.00000  Uiso   1.00
H1089  H     0.68486   0.00130   0.85112   0.00000  Uiso   1.00
H1090  H     0.71187   0.28891   0.83158   0.00000  Uiso   1.00
O1091  O     0.94408   0.10287   0.98758   0.00000  Uiso   1.00
C1092  C     0.93327   0.06121   0.97235   0.00000  Uiso   1.00
H1093  H     0.91220   0.05947   0.94878   0.00000  Uiso   1.00
H1094  H     0.91706   0.04219   0.50097   0.00000  Uiso   1.00
C1095  C     0.97376   0.04265   0.94758   0.00000  Uiso   1.00
H1096  H     0.99524   0.04343   0.97042   0.00000  Uiso   1.00
H1097  H     0.96576   0.00985   0.93530   0.00000  Uiso   1.00
H1098  H     0.99049   0.06071   0.91849   0.00000  Uiso   1.00
S1099  S     0.76123   0.25929   0.92521   0.00000  Uiso   1.00
O1100  O     0.79862   0.27968   0.89239   0.00000  Uiso   1.00
O1101  O     0.72593   0.24409   0.90215   0.00000  Uiso   1.00
O1102  O     0.74470   0.29534   0.96702   0.00000  Uiso   1.00
H1103  H     0.73299   0.31560   0.95325   0.00000  Uiso   1.00
O1104  O     0.75478   0.15985   0.54774   0.00000  Uiso   1.00
C1105  C     0.74344   0.11704   0.53687   0.00000  Uiso   1.00
H1106  H     0.76976   0.10189   0.51309   0.00000  Uiso   1.00
H1107  H     0.71560   0.11312   0.52163   0.00000  Uiso   1.00
C1108  C     0.73166   0.09434   0.57944   0.00000  Uiso   1.00
H1109  H     0.70735   0.10987   0.60525   0.00000  Uiso   1.00
H1110  H     0.71878   0.06156   0.57220   0.00000  Uiso   1.00
H1111  H     0.76026   0.09464   0.59271   0.00000  Uiso   1.00
S1112  S     0.70646   0.21965   0.52028   0.00000  Uiso   1.00
O1113  O     0.67925   0.22477   0.98913   0.00000  Uiso   1.00
O1114  O     0.68272   0.18819   0.55233   0.00000  Uiso   1.00
O1115  O     0.71512   0.26513   0.55007   0.00000  Uiso   1.00
H1116  H     0.68641   0.27335   0.56420   0.00000  Uiso   1.00
C1117  C     0.05318   0.49324   0.75919   0.00000  Uiso   1.00
C1118  C     0.08993   0.53738   0.98965   0.00000  Uiso   1.00
C1119  C     0.11028   0.51155   0.50908   0.00000  Uiso   1.00
C1120  C     0.15322   0.50478   0.98894   0.00000  Uiso   1.00
C1121  C     0.16962   0.51158   0.94319   0.00000  Uiso   1.00
C1122  C     0.17929   0.48916   0.51228   0.00000  Uiso   1.00
C1123  C     0.21775   0.47359   0.98833   0.00000  Uiso   1.00
C1124  C     0.23356   0.48088   0.94323   0.00000  Uiso   1.00
C1125  C     0.21103   0.50175   0.92182   0.00000  Uiso   1.00
C1126  C     0.16992   0.49178   0.55916   0.00000  Uiso   1.00
C1127  C     0.22769   0.45196   0.55740   0.00000  Uiso   1.00
C1128  C     0.28052   0.50685   0.74057   0.00000  Uiso   1.00
C1129  C     0.14441   0.52873   0.92024   0.00000  Uiso   1.00
C1130  C     0.32553   0.51047   0.73981   0.00000  Uiso   1.00
C1131  C     0.00817   0.48777   0.76429   0.00000  Uiso   1.00
C1132  C     0.17877   0.65564   0.73725   0.00000  Uiso   1.00
C1133  C     0.15085   0.34540   0.76545   0.00000  Uiso   1.00
C1134  C     0.15665   0.38932   0.75982   0.00000  Uiso   1.00
C1135  C     0.17639   0.61116   0.74053   0.00000  Uiso   1.00
C1136  C     0.18532   0.48122   0.62958   0.00000  Uiso   1.00
C1137  C     0.15057   0.51987   0.87081   0.00000  Uiso   1.00
C1138  C     0.24053   0.45268   0.51061   0.00000  Uiso   1.00
C1139  C     0.19362   0.47345   0.58134   0.00000  Uiso   1.00
C1140  C     0.10963   0.54945   0.94595   0.00000  Uiso   1.00
H1141  H     0.20329   0.33645   0.71052   0.00000  Uiso   1.00
H1142  H     0.26442   0.47228   0.92496   0.00000  Uiso   1.00
H1143  H     0.14578   0.51017   0.57921   0.00000  Uiso   1.00
H1144  H     0.22696   0.51073   0.88863   0.00000  Uiso   1.00
H1145  H     0.01341   0.53319   0.71886   0.00000  Uiso   1.00
O1146  O     0.16667   0.50000   0.75000   0.00000  Uiso   1.00
O1147  O     0.17930   0.41352   0.78213   0.00000  Uiso   1.00
O1148  O     0.14632   0.59418   0.77013   0.00000  Uiso   1.00
O1149  O     0.07412   0.46625   0.73413   0.00000  Uiso   1.00
O1150  O     0.26693   0.52605   0.71360   0.00000  Uiso   1.00
O1151  O     0.07071   0.52211   0.78213   0.00000  Uiso   1.00
O1152  O     0.25491   0.48559   0.77013   0.00000  Uiso   1.00
O1153  O     0.13760   0.40277   0.73413   0.00000  Uiso   1.00
O1154  O     0.20345   0.58953   0.71360   0.00000  Uiso   1.00
O1155  O     0.15451   0.45970   0.65458   0.00000  Uiso   1.00
O1156  O     0.12940   0.53724   0.84968   0.00000  Uiso   1.00
O1157  O     0.20824   0.51092   0.64606   0.00000  Uiso   1.00
O1158  O     0.17451   0.49213   0.84968   0.00000  Uiso   1.00
Zn1159 Zn    0.19338   0.47327   0.78734   0.00000  Uiso   1.00
Zn1160 Zn    0.13379   0.45791   0.71875   0.00000  Uiso   1.00
Zn1161 Zn    0.21056   0.53109   0.70657   0.00000  Uiso   1.00
Zn1162 Zn    0.12893   0.53773   0.78733   0.00000  Uiso   1.00
O1163  O     0.24592   0.42741   0.57931   0.00000  Uiso   1.00
C1164  C     0.28014   0.45088   0.59434   0.00000  Uiso   1.00
H1165  H     0.27818   0.48508   0.59910   0.00000  Uiso   1.00
H1166  H     0.31027   0.44517   0.56959   0.00000  Uiso   1.00
C1167  C     0.28115   0.43643   0.63914   0.00000  Uiso   1.00
H1168  H     0.28710   0.40329   0.63494   0.00000  Uiso   1.00
H1169  H     0.30679   0.45565   0.65243   0.00000  Uiso   1.00
H1170  H     0.25028   0.43973   0.66374   0.00000  Uiso   1.00
S1171  S     0.31413   0.44471   0.79479   0.00000  Uiso   1.00
O1172  O     0.28226   0.45971   0.83555   0.00000  Uiso   1.00
O1173  O     0.29172   0.41426   0.76560   0.00000  Uiso   1.00
O1174  O     0.01578   0.42059   0.81139   0.00000  Uiso   1.00
H1175  H     0.33136   0.39936   0.83083   0.00000  Uiso   1.00
O1176  O     0.12130   0.66216   0.80215   0.00000  Uiso   1.00
C1177  C     0.08292   0.34708   0.81174   0.00000  Uiso   1.00
H1178  H     0.07114   0.34703   0.78091   0.00000  Uiso   1.00
H1179  H     0.08743   0.37949   0.82707   0.00000  Uiso   1.00
C1180  C     0.04910   0.65529   0.84502   0.00000  Uiso   1.00
H1181  H     0.05851   0.65708   0.87727   0.00000  Uiso   1.00
H1182  H     0.01819   0.33463   0.85112   0.00000  Uiso   1.00
H1183  H     0.04520   0.62224   0.83158   0.00000  Uiso   1.00
O1184  O     0.27741   0.43620   0.98758   0.00000  Uiso   1.00
C1185  C     0.26660   0.39455   0.97235   0.00000  Uiso   1.00
H1186  H     0.24554   0.39280   0.94878   0.00000  Uiso   1.00
H1187  H     0.25040   0.37553   0.50097   0.00000  Uiso   1.00
C1188  C     0.30710   0.37599   0.94758   0.00000  Uiso   1.00
H1189  H     0.32857   0.37676   0.97042   0.00000  Uiso   1.00
H1190  H     0.29909   0.34318   0.93530   0.00000  Uiso   1.00
H1191  H     0.32382   0.39404   0.91849   0.00000  Uiso   1.00
S1192  S     0.09456   0.59262   0.92521   0.00000  Uiso   1.00
O1193  O     0.13196   0.61302   0.89239   0.00000  Uiso   1.00
O1194  O     0.05926   0.57742   0.90215   0.00000  Uiso   1.00
O1195  O     0.07803   0.62867   0.96702   0.00000  Uiso   1.00
H1196  H     0.06632   0.64894   0.95325   0.00000  Uiso   1.00
O1197  O     0.08811   0.49318   0.54774   0.00000  Uiso   1.00
C1198  C     0.07677   0.45037   0.53687   0.00000  Uiso   1.00
H1199  H     0.10310   0.43522   0.51309   0.00000  Uiso   1.00
H1200  H     0.04894   0.44645   0.52163   0.00000  Uiso   1.00
C1201  C     0.06499   0.42768   0.57944   0.00000  Uiso   1.00
H1202  H     0.04068   0.44320   0.60525   0.00000  Uiso   1.00
H1203  H     0.05211   0.39490   0.57220   0.00000  Uiso   1.00
H1204  H     0.09360   0.42798   0.59271   0.00000  Uiso   1.00
S1205  S     0.03980   0.55299   0.52028   0.00000  Uiso   1.00
O1206  O     0.01258   0.55811   0.98913   0.00000  Uiso   1.00
O1207  O     0.01605   0.52152   0.55233   0.00000  Uiso   1.00
O1208  O     0.04846   0.59846   0.55007   0.00000  Uiso   1.00
H1209  H     0.01974   0.60668   0.56420   0.00000  Uiso   1.00
C1210  C     0.38652   0.49324   0.75919   0.00000  Uiso   1.00
C1211  C     0.42326   0.53738   0.98965   0.00000  Uiso   1.00
C1212  C     0.44361   0.51155   0.50908   0.00000  Uiso   1.00
C1213  C     0.48655   0.50478   0.98894   0.00000  Uiso   1.00
C1214  C     0.50295   0.51158   0.94319   0.00000  Uiso   1.00
C1215  C     0.51262   0.48916   0.51228   0.00000  Uiso   1.00
C1216  C     0.55108   0.47359   0.98833   0.00000  Uiso   1.00
C1217  C     0.56689   0.48088   0.94323   0.00000  Uiso   1.00
C1218  C     0.54437   0.50175   0.92182   0.00000  Uiso   1.00
C1219  C     0.50325   0.49178   0.55916   0.00000  Uiso   1.00
C1220  C     0.56102   0.45196   0.55740   0.00000  Uiso   1.00
C1221  C     0.61385   0.50685   0.74057   0.00000  Uiso   1.00
C1222  C     0.47775   0.52873   0.92024   0.00000  Uiso   1.00
C1223  C     0.65886   0.51047   0.73981   0.00000  Uiso   1.00
C1224  C     0.34150   0.48777   0.76429   0.00000  Uiso   1.00
C1225  C     0.51211   0.65564   0.73725   0.00000  Uiso   1.00
C1226  C     0.48418   0.34540   0.76545   0.00000  Uiso   1.00
C1227  C     0.48999   0.38932   0.75982   0.00000  Uiso   1.00
C1228  C     0.50973   0.61116   0.74053   0.00000  Uiso   1.00
C1229  C     0.51865   0.48122   0.62958   0.00000  Uiso   1.00
C1230  C     0.48390   0.51987   0.87081   0.00000  Uiso   1.00
C1231  C     0.57386   0.45268   0.51061   0.00000  Uiso   1.00
C1232  C     0.52696   0.47345   0.58134   0.00000  Uiso   1.00
C1233  C     0.44297   0.54945   0.94595   0.00000  Uiso   1.00
H1234  H     0.53663   0.33645   0.71052   0.00000  Uiso   1.00
H1235  H     0.59776   0.47228   0.92496   0.00000  Uiso   1.00
H1236  H     0.47911   0.51017   0.57921   0.00000  Uiso   1.00
H1237  H     0.56030   0.51073   0.88863   0.00000  Uiso   1.00
H1238  H     0.34674   0.53319   0.71886   0.00000  Uiso   1.00
O1239  O     0.50000   0.50000   0.75000   0.00000  Uiso   1.00
O1240  O     0.51264   0.41352   0.78213   0.00000  Uiso   1.00
O1241  O     0.47965   0.59418   0.77013   0.00000  Uiso   1.00
O1242  O     0.40745   0.46625   0.73413   0.00000  Uiso   1.00
O1243  O     0.60026   0.52605   0.71360   0.00000  Uiso   1.00
O1244  O     0.40405   0.52211   0.78213   0.00000  Uiso   1.00
O1245  O     0.58824   0.48559   0.77013   0.00000  Uiso   1.00
O1246  O     0.47093   0.40277   0.73413   0.00000  Uiso   1.00
O1247  O     0.53678   0.58953   0.71360   0.00000  Uiso   1.00
O1248  O     0.48784   0.45970   0.65458   0.00000  Uiso   1.00
O1249  O     0.46274   0.53724   0.84968   0.00000  Uiso   1.00
O1250  O     0.54157   0.51092   0.64606   0.00000  Uiso   1.00
O1251  O     0.50785   0.49213   0.84968   0.00000  Uiso   1.00
Zn1252 Zn    0.52672   0.47327   0.78734   0.00000  Uiso   1.00
Zn1253 Zn    0.46713   0.45791   0.71875   0.00000  Uiso   1.00
Zn1254 Zn    0.54389   0.53109   0.70657   0.00000  Uiso   1.00
Zn1255 Zn    0.46226   0.53773   0.78733   0.00000  Uiso   1.00
O1256  O     0.57925   0.42741   0.57931   0.00000  Uiso   1.00
C1257  C     0.61347   0.45088   0.59434   0.00000  Uiso   1.00
H1258  H     0.61151   0.48508   0.59910   0.00000  Uiso   1.00
H1259  H     0.64360   0.44517   0.56959   0.00000  Uiso   1.00
C1260  C     0.61449   0.43643   0.63914   0.00000  Uiso   1.00
H1261  H     0.62044   0.40329   0.63494   0.00000  Uiso   1.00
H1262  H     0.64013   0.45565   0.65243   0.00000  Uiso   1.00
H1263  H     0.58361   0.43973   0.66374   0.00000  Uiso   1.00
S1264  S     0.64746   0.44471   0.79479   0.00000  Uiso   1.00
O1265  O     0.61560   0.45971   0.83555   0.00000  Uiso   1.00
O1266  O     0.62505   0.41426   0.76560   0.00000  Uiso   1.00
O1267  O     0.34911   0.42059   0.81139   0.00000  Uiso   1.00
H1268  H     0.66470   0.39936   0.83083   0.00000  Uiso   1.00
O1269  O     0.45464   0.66216   0.80215   0.00000  Uiso   1.00
C1270  C     0.41626   0.34708   0.81174   0.00000  Uiso   1.00
H1271  H     0.40448   0.34703   0.78091   0.00000  Uiso   1.00
H1272  H     0.42077   0.37949   0.82707   0.00000  Uiso   1.00
C1273  C     0.38244   0.65529   0.84502   0.00000  Uiso   1.00
H1274  H     0.39184   0.65708   0.87727   0.00000  Uiso   1.00
H1275  H     0.35152   0.33463   0.85112   0.00000  Uiso   1.00
H1276  H     0.37854   0.62224   0.83158   0.00000  Uiso   1.00
O1277  O     0.61074   0.43620   0.98758   0.00000  Uiso   1.00
C1278  C     0.59994   0.39455   0.97235   0.00000  Uiso   1.00
H1279  H     0.57887   0.39280   0.94878   0.00000  Uiso   1.00
H1280  H     0.58373   0.37553   0.50097   0.00000  Uiso   1.00
C1281  C     0.64043   0.37599   0.94758   0.00000  Uiso   1.00
H1282  H     0.66191   0.37676   0.97042   0.00000  Uiso   1.00
H1283  H     0.63243   0.34318   0.93530   0.00000  Uiso   1.00
H1284  H     0.65715   0.39404   0.91849   0.00000  Uiso   1.00
S1285  S     0.42789   0.59262   0.92521   0.00000  Uiso   1.00
O1286  O     0.46529   0.61302   0.89239   0.00000  Uiso   1.00
O1287  O     0.39259   0.57742   0.90215   0.00000  Uiso   1.00
O1288  O     0.41137   0.62867   0.96702   0.00000  Uiso   1.00
H1289  H     0.39966   0.64894   0.95325   0.00000  Uiso   1.00
O1290  O     0.42145   0.49318   0.54774   0.00000  Uiso   1.00
C1291  C     0.41011   0.45037   0.53687   0.00000  Uiso   1.00
H1292  H     0.43643   0.43522   0.51309   0.00000  Uiso   1.00
H1293  H     0.38227   0.44645   0.52163   0.00000  Uiso   1.00
C1294  C     0.39832   0.42768   0.57944   0.00000  Uiso   1.00
H1295  H     0.37401   0.44320   0.60525   0.00000  Uiso   1.00
H1296  H     0.38544   0.39490   0.57220   0.00000  Uiso   1.00
H1297  H     0.42693   0.42798   0.59271   0.00000  Uiso   1.00
S1298  S     0.37313   0.55299   0.52028   0.00000  Uiso   1.00
O1299  O     0.34592   0.55811   0.98913   0.00000  Uiso   1.00
O1300  O     0.34938   0.52152   0.55233   0.00000  Uiso   1.00
O1301  O     0.38179   0.59846   0.55007   0.00000  Uiso   1.00
H1302  H     0.35308   0.60668   0.56420   0.00000  Uiso   1.00
C1303  C     0.71985   0.49324   0.75919   0.00000  Uiso   1.00
C1304  C     0.75660   0.53738   0.98965   0.00000  Uiso   1.00
C1305  C     0.77695   0.51155   0.50908   0.00000  Uiso   1.00
C1306  C     0.81989   0.50478   0.98894   0.00000  Uiso   1.00
C1307  C     0.83628   0.51158   0.94319   0.00000  Uiso   1.00
C1308  C     0.84595   0.48916   0.51228   0.00000  Uiso   1.00
C1309  C     0.88441   0.47359   0.98833   0.00000  Uiso   1.00
C1310  C     0.90023   0.48088   0.94323   0.00000  Uiso   1.00
C1311  C     0.87770   0.50175   0.92182   0.00000  Uiso   1.00
C1312  C     0.83658   0.49178   0.55916   0.00000  Uiso   1.00
C1313  C     0.89435   0.45196   0.55740   0.00000  Uiso   1.00
C1314  C     0.94719   0.50685   0.74057   0.00000  Uiso   1.00
C1315  C     0.81108   0.52873   0.92024   0.00000  Uiso   1.00
C1316  C     0.99220   0.51047   0.73981   0.00000  Uiso   1.00
C1317  C     0.67484   0.48777   0.76429   0.00000  Uiso   1.00
C1318  C     0.84544   0.65564   0.73725   0.00000  Uiso   1.00
C1319  C     0.81751   0.34540   0.76545   0.00000  Uiso   1.00
C1320  C     0.82332   0.38932   0.75982   0.00000  Uiso   1.00
C1321  C     0.84306   0.61116   0.74053   0.00000  Uiso   1.00
C1322  C     0.85199   0.48122   0.62958   0.00000  Uiso   1.00
C1323  C     0.81723   0.51987   0.87081   0.00000  Uiso   1.00
C1324  C     0.90719   0.45268   0.51061   0.00000  Uiso   1.00
C1325  C     0.86029   0.47345   0.58134   0.00000  Uiso   1.00
C1326  C     0.77630   0.54945   0.94595   0.00000  Uiso   1.00
H1327  H     0.86996   0.33645   0.71052   0.00000  Uiso   1.00
H1328  H     0.93109   0.47228   0.92496   0.00000  Uiso   1.00
H1329  H     0.81244   0.51017   0.57921   0.00000  Uiso   1.00
H1330  H     0.89363   0.51073   0.88863   0.00000  Uiso   1.00
H1331  H     0.68007   0.53319   0.71886   0.00000  Uiso   1.00
O1332  O     0.83333   0.50000   0.75000   0.00000  Uiso   1.00
O1333  O     0.84597   0.41352   0.78213   0.00000  Uiso   1.00
O1334  O     0.81298   0.59418   0.77013   0.00000  Uiso   1.00
O1335  O     0.74078   0.46625   0.73413   0.00000  Uiso   1.00
O1336  O     0.93360   0.52605   0.71360   0.00000  Uiso   1.00
O1337  O     0.73738   0.52211   0.78213   0.00000  Uiso   1.00
O1338  O     0.92158   0.48559   0.77013   0.00000  Uiso   1.00
O1339  O     0.80426   0.40277   0.73413   0.00000  Uiso   1.00
O1340  O     0.87012   0.58953   0.71360   0.00000  Uiso   1.00
O1341  O     0.82118   0.45970   0.65458   0.00000  Uiso   1.00
O1342  O     0.79607   0.53724   0.84968   0.00000  Uiso   1.00
O1343  O     0.87491   0.51092   0.64606   0.00000  Uiso   1.00
O1344  O     0.84118   0.49213   0.84968   0.00000  Uiso   1.00
Zn1345 Zn    0.86005   0.47327   0.78734   0.00000  Uiso   1.00
Zn1346 Zn    0.80046   0.45791   0.71875   0.00000  Uiso   1.00
Zn1347 Zn    0.87723   0.53109   0.70657   0.00000  Uiso   1.00
Zn1348 Zn    0.79560   0.53773   0.78733   0.00000  Uiso   1.00
O1349  O     0.91258   0.42741   0.57931   0.00000  Uiso   1.00
C1350  C     0.94680   0.45088   0.59434   0.00000  Uiso   1.00
H1351  H     0.94485   0.48508   0.59910   0.00000  Uiso   1.00
H1352  H     0.97693   0.44517   0.56959   0.00000  Uiso   1.00
C1353  C     0.94782   0.43643   0.63914   0.00000  Uiso   1.00
H1354  H     0.95377   0.40329   0.63494   0.00000  Uiso   1.00
H1355  H     0.97346   0.45565   0.65243   0.00000  Uiso   1.00
H1356  H     0.91695   0.43973   0.66374   0.00000  Uiso   1.00
S1357  S     0.98080   0.44471   0.79479   0.00000  Uiso   1.00
O1358  O     0.94893   0.45971   0.83555   0.00000  Uiso   1.00
O1359  O     0.95838   0.41426   0.76560   0.00000  Uiso   1.00
O1360  O     0.68245   0.42059   0.81139   0.00000  Uiso   1.00
H1361  H     0.99803   0.39936   0.83083   0.00000  Uiso   1.00
O1362  O     0.78797   0.66216   0.80215   0.00000  Uiso   1.00
C1363  C     0.74959   0.34708   0.81174   0.00000  Uiso   1.00
H1364  H     0.73781   0.34703   0.78091   0.00000  Uiso   1.00
H1365  H     0.75410   0.37949   0.82707   0.00000  Uiso   1.00
C1366  C     0.71577   0.65529   0.84502   0.00000  Uiso   1.00
H1367  H     0.72517   0.65708   0.87727   0.00000  Uiso   1.00
H1368  H     0.68486   0.33463   0.85112   0.00000  Uiso   1.00
H1369  H     0.71187   0.62224   0.83158   0.00000  Uiso   1.00
O1370  O     0.94408   0.43620   0.98758   0.00000  Uiso   1.00
C1371  C     0.93327   0.39455   0.97235   0.00000  Uiso   1.00
H1372  H     0.91220   0.39280   0.94878   0.00000  Uiso   1.00
H1373  H     0.91706   0.37553   0.50097   0.00000  Uiso   1.00
C1374  C     0.97376   0.37599   0.94758   0.00000  Uiso   1.00
H1375  H     0.99524   0.37676   0.97042   0.00000  Uiso   1.00
H1376  H     0.96576   0.34318   0.93530   0.00000  Uiso   1.00
H1377  H     0.99049   0.39404   0.91849   0.00000  Uiso   1.00
S1378  S     0.76123   0.59262   0.92521   0.00000  Uiso   1.00
O1379  O     0.79862   0.61302   0.89239   0.00000  Uiso   1.00
O1380  O     0.72593   0.57742   0.90215   0.00000  Uiso   1.00
O1381  O     0.74470   0.62867   0.96702   0.00000  Uiso   1.00
H1382  H     0.73299   0.64894   0.95325   0.00000  Uiso   1.00
O1383  O     0.75478   0.49318   0.54774   0.00000  Uiso   1.00
C1384  C     0.74344   0.45037   0.53687   0.00000  Uiso   1.00
H1385  H     0.76976   0.43522   0.51309   0.00000  Uiso   1.00
H1386  H     0.71560   0.44645   0.52163   0.00000  Uiso   1.00
C1387  C     0.73166   0.42768   0.57944   0.00000  Uiso   1.00
H1388  H     0.70735   0.44320   0.60525   0.00000  Uiso   1.00
H1389  H     0.71878   0.39490   0.57220   0.00000  Uiso   1.00
H1390  H     0.76026   0.42798   0.59271   0.00000  Uiso   1.00
S1391  S     0.70646   0.55299   0.52028   0.00000  Uiso   1.00
O1392  O     0.67925   0.55811   0.98913   0.00000  Uiso   1.00
O1393  O     0.68272   0.52152   0.55233   0.00000  Uiso   1.00
O1394  O     0.71512   0.59846   0.55007   0.00000  Uiso   1.00
H1395  H     0.68641   0.60668   0.56420   0.00000  Uiso   1.00
C1396  C     0.05318   0.82657   0.75919   0.00000  Uiso   1.00
C1397  C     0.08993   0.87071   0.98965   0.00000  Uiso   1.00
C1398  C     0.11028   0.84489   0.50908   0.00000  Uiso   1.00
C1399  C     0.15322   0.83811   0.98894   0.00000  Uiso   1.00
C1400  C     0.16962   0.84492   0.94319   0.00000  Uiso   1.00
C1401  C     0.17929   0.82249   0.51228   0.00000  Uiso   1.00
C1402  C     0.21775   0.80693   0.98833   0.00000  Uiso   1.00
C1403  C     0.23356   0.81421   0.94323   0.00000  Uiso   1.00
C1404  C     0.21103   0.83508   0.92182   0.00000  Uiso   1.00
C1405  C     0.16992   0.82511   0.55916   0.00000  Uiso   1.00
C1406  C     0.22769   0.78530   0.55740   0.00000  Uiso   1.00
C1407  C     0.28052   0.84019   0.74057   0.00000  Uiso   1.00
C1408  C     0.14441   0.86207   0.92024   0.00000  Uiso   1.00
C1409  C     0.32553   0.84380   0.73981   0.00000  Uiso   1.00
C1410  C     0.00817   0.82110   0.76429   0.00000  Uiso   1.00
C1411  C     0.17877   0.98897   0.73725   0.00000  Uiso   1.00
C1412  C     0.15085   0.67873   0.76545   0.00000  Uiso   1.00
C1413  C     0.15665   0.72265   0.75982   0.00000  Uiso   1.00
C1414  C     0.17639   0.94450   0.74053   0.00000  Uiso   1.00
C1415  C     0.18532   0.81455   0.62958   0.00000  Uiso   1.00
C1416  C     0.15057   0.85320   0.87081   0.00000  Uiso   1.00
C1417  C     0.24053   0.78601   0.51061   0.00000  Uiso   1.00
C1418  C     0.19362   0.80679   0.58134   0.00000  Uiso   1.00
C1419  C     0.10963   0.88279   0.94595   0.00000  Uiso   1.00
H1420  H     0.20329   0.66978   0.71052   0.00000  Uiso   1.00
H1421  H     0.26442   0.80561   0.92496   0.00000  Uiso   1.00
H1422  H     0.14578   0.84351   0.57921   0.00000  Uiso   1.00
H1423  H     0.22696   0.84407   0.88863   0.00000  Uiso   1.00
H1424  H     0.01341   0.86652   0.71886   0.00000  Uiso   1.00
O1425  O     0.16667   0.83333   0.75000   0.00000  Uiso   1.00
O1426  O     0.17930   0.74686   0.78213   0.00000  Uiso   1.00
O1427  O     0.14632   0.92751   0.77013   0.00000  Uiso   1.00
O1428  O     0.07412   0.79958   0.73413   0.00000  Uiso   1.00
O1429  O     0.26693   0.85939   0.71360   0.00000  Uiso   1.00
O1430  O     0.07071   0.85544   0.78213   0.00000  Uiso   1.00
O1431  O     0.25491   0.81892   0.77013   0.00000  Uiso   1.00
O1432  O     0.13760   0.73610   0.73413   0.00000  Uiso   1.00
O1433  O     0.20345   0.92286   0.71360   0.00000  Uiso   1.00
O1434  O     0.15451   0.79304   0.65458   0.00000  Uiso   1.00
O1435  O     0.12940   0.87058   0.84968   0.00000  Uiso   1.00
O1436  O     0.20824   0.84425   0.64606   0.00000  Uiso   1.00
O1437  O     0.17451   0.82546   0.84968   0.00000  Uiso   1.00
Zn1438 Zn    0.19338   0.80661   0.78734   0.00000  Uiso   1.00
Zn1439 Zn    0.13379   0.79124   0.71875   0.00000  Uiso   1.00
Zn1440 Zn    0.21056   0.86442   0.70657   0.00000  Uiso   1.00
Zn1441 Zn    0.12893   0.87106   0.78733   0.00000  Uiso   1.00
O1442  O     0.24592   0.76075   0.57931   0.00000  Uiso   1.00
C1443  C     0.28014   0.78421   0.59434   0.00000  Uiso   1.00
H1444  H     0.27818   0.81841   0.59910   0.00000  Uiso   1.00
H1445  H     0.31027   0.77850   0.56959   0.00000  Uiso   1.00
C1446  C     0.28115   0.76976   0.63914   0.00000  Uiso   1.00
H1447  H     0.28710   0.73663   0.63494   0.00000  Uiso   1.00
H1448  H     0.30679   0.78898   0.65243   0.00000  Uiso   1.00
H1449  H     0.25028   0.77307   0.66374   0.00000  Uiso   1.00
S1450  S     0.31413   0.77804   0.79479   0.00000  Uiso   1.00
O1451  O     0.28226   0.79304   0.83555   0.00000  Uiso   1.00
O1452  O     0.29172   0.74760   0.76560   0.00000  Uiso   1.00
O1453  O     0.01578   0.75393   0.81139   0.00000  Uiso   1.00
H1454  H     0.33136   0.73269   0.83083   0.00000  Uiso   1.00
O1455  O     0.12130   0.99550   0.80215   0.00000  Uiso   1.00
C1456  C     0.08292   0.68041   0.81174   0.00000  Uiso   1.00
H1457  H     0.07114   0.68037   0.78091   0.00000  Uiso   1.00
H1458  H     0.08743   0.71283   0.82707   0.00000  Uiso   1.00
C1459  C     0.04910   0.98862   0.84502   0.00000  Uiso   1.00
H1460  H     0.05851   0.99041   0.87727   0.00000  Uiso   1.00
H1461  H     0.01819   0.66796   0.85112   0.00000  Uiso   1.00
H1462  H     0.04520   0.95558   0.83158   0.00000  Uiso   1.00
O1463  O     0.27741   0.76953   0.98758   0.00000  Uiso   1.00
C1464  C     0.26660   0.72788   0.97235   0.00000  Uiso   1.00
H1465  H     0.24554   0.72614   0.94878   0.00000  Uiso   1.00
H1466  H     0.25040   0.70886   0.50097   0.00000  Uiso   1.00
C1467  C     0.30710   0.70932   0.94758   0.00000  Uiso   1.00
H1468  H     0.32857   0.71009   0.97042   0.00000  Uiso   1.00
H1469  H     0.29909   0.67652   0.93530   0.00000  Uiso   1.00
H1470  H     0.32382   0.72738   0.91849   0.00000  Uiso   1.00
S1471  S     0.09456   0.92596   0.92521   0.00000  Uiso   1.00
O1472  O     0.13196   0.94635   0.89239   0.00000  Uiso   1.00
O1473  O     0.05926   0.91076   0.90215   0.00000  Uiso   1.00
O1474  O     0.07803   0.96200   0.96702   0.00000  Uiso   1.00
H1475  H     0.06632   0.98227   0.95325   0.00000  Uiso   1.00
O1476  O     0.08811   0.82651   0.54774   0.00000  Uiso   1.00
C1477  C     0.07677   0.78371   0.53687   0.00000  Uiso   1.00
H1478  H     0.10310   0.76855   0.51309   0.00000  Uiso   1.00
H1479  H     0.04894   0.77978   0.52163   0.00000  Uiso   1.00
C1480  C     0.06499   0.76101   0.57944   0.00000  Uiso   1.00
H1481  H     0.04068   0.77653   0.60525   0.00000  Uiso   1.00
H1482  H     0.05211   0.72823   0.57220   0.00000  Uiso   1.00
H1483  H     0.09360   0.76131   0.59271   0.00000  Uiso   1.00
S1484  S     0.03980   0.88632   0.52028   0.00000  Uiso   1.00
O1485  O     0.01258   0.89144   0.98913   0.00000  Uiso   1.00
O1486  O     0.01605   0.85486   0.55233   0.00000  Uiso   1.00
O1487  O     0.04846   0.93180   0.55007   0.00000  Uiso   1.00
H1488  H     0.01974   0.94002   0.56420   0.00000  Uiso   1.00
C1489  C     0.38652   0.82657   0.75919   0.00000  Uiso   1.00
C1490  C     0.42326   0.87071   0.98965   0.00000  Uiso   1.00
C1491  C     0.44361   0.84489   0.50908   0.00000  Uiso   1.00
C1492  C     0.48655   0.83811   0.98894   0.00000  Uiso   1.00
C1493  C     0.50295   0.84492   0.94319   0.00000  Uiso   1.00
C1494  C     0.51262   0.82249   0.51228   0.00000  Uiso   1.00
C1495  C     0.55108   0.80693   0.98833   0.00000  Uiso   1.00
C1496  C     0.56689   0.81421   0.94323   0.00000  Uiso   1.00
C1497  C     0.54437   0.83508   0.92182   0.00000  Uiso   1.00
C1498  C     0.50325   0.82511   0.55916   0.00000  Uiso   1.00
C1499  C     0.56102   0.78530   0.55740   0.00000  Uiso   1.00
C1500  C     0.61385   0.84019   0.74057   0.00000  Uiso   1.00
C1501  C     0.47775   0.86207   0.92024   0.00000  Uiso   1.00
C1502  C     0.65886   0.84380   0.73981   0.00000  Uiso   1.00
C1503  C     0.34150   0.82110   0.76429   0.00000  Uiso   1.00
C1504  C     0.51211   0.98897   0.73725   0.00000  Uiso   1.00
C1505  C     0.48418   0.67873   0.76545   0.00000  Uiso   1.00
C1506  C     0.48999   0.72265   0.75982   0.00000  Uiso   1.00
C1507  C     0.50973   0.94450   0.74053   0.00000  Uiso   1.00
C1508  C     0.51865   0.81455   0.62958   0.00000  Uiso   1.00
C1509  C     0.48390   0.85320   0.87081   0.00000  Uiso   1.00
C1510  C     0.57386   0.78601   0.51061   0.00000  Uiso   1.00
C1511  C     0.52696   0.80679   0.58134   0.00000  Uiso   1.00
C1512  C     0.44297   0.88279   0.94595   0.00000  Uiso   1.00
H1513  H     0.53663   0.66978   0.71052   0.00000  Uiso   1.00
H1514  H     0.59776   0.80561   0.92496   0.00000  Uiso   1.00
H1515  H     0.47911   0.84351   0.57921   0.00000  Uiso   1.00
H1516  H     0.56030   0.84407   0.88863   0.00000  Uiso   1.00
H1517  H     0.34674   0.86652   0.71886   0.00000  Uiso   1.00
O1518  O     0.50000   0.83333   0.75000   0.00000  Uiso   1.00
O1519  O     0.51264   0.74686   0.78213   0.00000  Uiso   1.00
O1520  O     0.47965   0.92751   0.77013   0.00000  Uiso   1.00
O1521  O     0.40745   0.79958   0.73413   0.00000  Uiso   1.00
O1522  O     0.60026   0.85939   0.71360   0.00000  Uiso   1.00
O1523  O     0.40405   0.85544   0.78213   0.00000  Uiso   1.00
O1524  O     0.58824   0.81892   0.77013   0.00000  Uiso   1.00
O1525  O     0.47093   0.73610   0.73413   0.00000  Uiso   1.00
O1526  O     0.53678   0.92286   0.71360   0.00000  Uiso   1.00
O1527  O     0.48784   0.79304   0.65458   0.00000  Uiso   1.00
O1528  O     0.46274   0.87058   0.84968   0.00000  Uiso   1.00
O1529  O     0.54157   0.84425   0.64606   0.00000  Uiso   1.00
O1530  O     0.50785   0.82546   0.84968   0.00000  Uiso   1.00
Zn1531 Zn    0.52672   0.80661   0.78734   0.00000  Uiso   1.00
Zn1532 Zn    0.46713   0.79124   0.71875   0.00000  Uiso   1.00
Zn1533 Zn    0.54389   0.86442   0.70657   0.00000  Uiso   1.00
Zn1534 Zn    0.46226   0.87106   0.78733   0.00000  Uiso   1.00
O1535  O     0.57925   0.76075   0.57931   0.00000  Uiso   1.00
C1536  C     0.61347   0.78421   0.59434   0.00000  Uiso   1.00
H1537  H     0.61151   0.81841   0.59910   0.00000  Uiso   1.00
H1538  H     0.64360   0.77850   0.56959   0.00000  Uiso   1.00
C1539  C     0.61449   0.76976   0.63914   0.00000  Uiso   1.00
H1540  H     0.62044   0.73663   0.63494   0.00000  Uiso   1.00
H1541  H     0.64013   0.78898   0.65243   0.00000  Uiso   1.00
H1542  H     0.58361   0.77307   0.66374   0.00000  Uiso   1.00
S1543  S     0.64746   0.77804   0.79479   0.00000  Uiso   1.00
O1544  O     0.61560   0.79304   0.83555   0.00000  Uiso   1.00
O1545  O     0.62505   0.74760   0.76560   0.00000  Uiso   1.00
O1546  O     0.34911   0.75393   0.81139   0.00000  Uiso   1.00
H1547  H     0.66470   0.73269   0.83083   0.00000  Uiso   1.00
O1548  O     0.45464   0.99550   0.80215   0.00000  Uiso   1.00
C1549  C     0.41626   0.68041   0.81174   0.00000  Uiso   1.00
H1550  H     0.40448   0.68037   0.78091   0.00000  Uiso   1.00
H1551  H     0.42077   0.71283   0.82707   0.00000  Uiso   1.00
C1552  C     0.38244   0.98862   0.84502   0.00000  Uiso   1.00
H1553  H     0.39184   0.99041   0.87727   0.00000  Uiso   1.00
H1554  H     0.35152   0.66796   0.85112   0.00000  Uiso   1.00
H1555  H     0.37854   0.95558   0.83158   0.00000  Uiso   1.00
O1556  O     0.61074   0.76953   0.98758   0.00000  Uiso   1.00
C1557  C     0.59994   0.72788   0.97235   0.00000  Uiso   1.00
H1558  H     0.57887   0.72614   0.94878   0.00000  Uiso   1.00
H1559  H     0.58373   0.70886   0.50097   0.00000  Uiso   1.00
C1560  C     0.64043   0.70932   0.94758   0.00000  Uiso   1.00
H1561  H     0.66191   0.71009   0.97042   0.00000  Uiso   1.00
H1562  H     0.63243   0.67652   0.93530   0.00000  Uiso   1.00
H1563  H     0.65715   0.72738   0.91849   0.00000  Uiso   1.00
S1564  S     0.42789   0.92596   0.92521   0.00000  Uiso   1.00
O1565  O     0.46529   0.94635   0.89239   0.00000  Uiso   1.00
O1566  O     0.39259   0.91076   0.90215   0.00000  Uiso   1.00
O1567  O     0.41137   0.96200   0.96702   0.00000  Uiso   1.00
H1568  H     0.39966   0.98227   0.95325   0.00000  Uiso   1.00
O1569  O     0.42145   0.82651   0.54774   0.00000  Uiso   1.00
C1570  C     0.41011   0.78371   0.53687   0.00000  Uiso   1.00
H1571  H     0.43643   0.76855   0.51309   0.00000  Uiso   1.00
H1572  H     0.38227   0.77978   0.52163   0.00000  Uiso   1.00
C1573  C     0.39832   0.76101   0.57944   0.00000  Uiso   1.00
H1574  H     0.37401   0.77653   0.60525   0.00000  Uiso   1.00
H1575  H     0.38544   0.72823   0.57220   0.00000  Uiso   1.00
H1576  H     0.42693   0.76131   0.59271   0.00000  Uiso   1.00
S1577  S     0.37313   0.88632   0.52028   0.00000  Uiso   1.00
O1578  O     0.34592   0.89144   0.98913   0.00000  Uiso   1.00
O1579  O     0.34938   0.85486   0.55233   0.00000  Uiso   1.00
O1580  O     0.38179   0.93180   0.55007   0.00000  Uiso   1.00
H1581  H     0.35308   0.94002   0.56420   0.00000  Uiso   1.00
C1582  C     0.71985   0.82657   0.75919   0.00000  Uiso   1.00
C1583  C     0.75660   0.87071   0.98965   0.00000  Uiso   1.00
C1584  C     0.77695   0.84489   0.50908   0.00000  Uiso   1.00
C1585  C     0.81989   0.83811   0.98894   0.00000  Uiso   1.00
C1586  C     0.83628   0.84492   0.94319   0.00000  Uiso   1.00
C1587  C     0.84595   0.82249   0.51228   0.00000  Uiso   1.00
C1588  C     0.88441   0.80693   0.98833   0.00000  Uiso   1.00
C1589  C     0.90023   0.81421   0.94323   0.00000  Uiso   1.00
C1590  C     0.87770   0.83508   0.92182   0.00000  Uiso   1.00
C1591  C     0.83658   0.82511   0.55916   0.00000  Uiso   1.00
C1592  C     0.89435   0.78530   0.55740   0.00000  Uiso   1.00
C1593  C     0.94719   0.84019   0.74057   0.00000  Uiso   1.00
C1594  C     0.81108   0.86207   0.92024   0.00000  Uiso   1.00
C1595  C     0.99220   0.84380   0.73981   0.00000  Uiso   1.00
C1596  C     0.67484   0.82110   0.76429   0.00000  Uiso   1.00
C1597  C     0.84544   0.98897   0.73725   0.00000  Uiso   1.00
C1598  C     0.81751   0.67873   0.76545   0.00000  Uiso   1.00
C1599  C     0.82332   0.72265   0.75982   0.00000  Uiso   1.00
C1600  C     0.84306   0.94450   0.74053   0.00000  Uiso   1.00
C1601  C     0.85199   0.81455   0.62958   0.00000  Uiso   1.00
C1602  C     0.81723   0.85320   0.87081   0.00000  Uiso   1.00
C1603  C     0.90719   0.78601   0.51061   0.00000  Uiso   1.00
C1604  C     0.86029   0.80679   0.58134   0.00000  Uiso   1.00
C1605  C     0.77630   0.88279   0.94595   0.00000  Uiso   1.00
H1606  H     0.86996   0.66978   0.71052   0.00000  Uiso   1.00
H1607  H     0.93109   0.80561   0.92496   0.00000  Uiso   1.00
H1608  H     0.81244   0.84351   0.57921   0.00000  Uiso   1.00
H1609  H     0.89363   0.84407   0.88863   0.00000  Uiso   1.00
H1610  H     0.68007   0.86652   0.71886   0.00000  Uiso   1.00
O1611  O     0.83333   0.83333   0.75000   0.00000  Uiso   1.00
O1612  O     0.84597   0.74686   0.78213   0.00000  Uiso   1.00
O1613  O     0.81298   0.92751   0.77013   0.00000  Uiso   1.00
O1614  O     0.74078   0.79958   0.73413   0.00000  Uiso   1.00
O1615  O     0.93360   0.85939   0.71360   0.00000  Uiso   1.00
O1616  O     0.73738   0.85544   0.78213   0.00000  Uiso   1.00
O1617  O     0.92158   0.81892   0.77013   0.00000  Uiso   1.00
O1618  O     0.80426   0.73610   0.73413   0.00000  Uiso   1.00
O1619  O     0.87012   0.92286   0.71360   0.00000  Uiso   1.00
O1620  O     0.82118   0.79304   0.65458   0.00000  Uiso   1.00
O1621  O     0.79607   0.87058   0.84968   0.00000  Uiso   1.00
O1622  O     0.87491   0.84425   0.64606   0.00000  Uiso   1.00
O1623  O     0.84118   0.82546   0.84968   0.00000  Uiso   1.00
Zn1624 Zn    0.86005   0.80661   0.78734   0.00000  Uiso   1.00
Zn1625 Zn    0.80046   0.79124   0.71875   0.00000  Uiso   1.00
Zn1626 Zn    0.87723   0.86442   0.70657   0.00000  Uiso   1.00
Zn1627 Zn    0.79560   0.87106   0.78733   0.00000  Uiso   1.00
O1628  O     0.91258   0.76075   0.57931   0.00000  Uiso   1.00
C1629  C     0.94680   0.78421   0.59434   0.00000  Uiso   1.00
H1630  H     0.94485   0.81841   0.59910   0.00000  Uiso   1.00
H1631  H     0.97693   0.77850   0.56959   0.00000  Uiso   1.00
C1632  C     0.94782   0.76976   0.63914   0.00000  Uiso   1.00
H1633  H     0.95377   0.73663   0.63494   0.00000  Uiso   1.00
H1634  H     0.97346   0.78898   0.65243   0.00000  Uiso   1.00
H1635  H     0.91695   0.77307   0.66374   0.00000  Uiso   1.00
S1636  S     0.98080   0.77804   0.79479   0.00000  Uiso   1.00
O1637  O     0.94893   0.79304   0.83555   0.00000  Uiso   1.00
O1638  O     0.95838   0.74760   0.76560   0.00000  Uiso   1.00
O1639  O     0.68245   0.75393   0.81139   0.00000  Uiso   1.00
H1640  H     0.99803   0.73269   0.83083   0.00000  Uiso   1.00
O1641  O     0.78797   0.99550   0.80215   0.00000  Uiso   1.00
C1642  C     0.74959   0.68041   0.81174   0.00000  Uiso   1.00
H1643  H     0.73781   0.68037   0.78091   0.00000  Uiso   1.00
H1644  H     0.75410   0.71283   0.82707   0.00000  Uiso   1.00
C1645  C     0.71577   0.98862   0.84502   0.00000  Uiso   1.00
H1646  H     0.72517   0.99041   0.87727   0.00000  Uiso   1.00
H1647  H     0.68486   0.66796   0.85112   0.00000  Uiso   1.00
H1648  H     0.71187   0.95558   0.83158   0.00000  Uiso   1.00
O1649  O     0.94408   0.76953   0.98758   0.00000  Uiso   1.00
C1650  C     0.93327   0.72788   0.97235   0.00000  Uiso   1.00
H1651  H     0.91220   0.72614   0.94878   0.00000  Uiso   1.00
H1652  H     0.91706   0.70886   0.50097   0.00000  Uiso   1.00
C1653  C     0.97376   0.70932   0.94758   0.00000  Uiso   1.00
H1654  H     0.99524   0.71009   0.97042   0.00000  Uiso   1.00
H1655  H     0.96576   0.67652   0.93530   0.00000  Uiso   1.00
H1656  H     0.99049   0.72738   0.91849   0.00000  Uiso   1.00
S1657  S     0.76123   0.92596   0.92521   0.00000  Uiso   1.00
O1658  O     0.79862   0.94635   0.89239   0.00000  Uiso   1.00
O1659  O     0.72593   0.91076   0.90215   0.00000  Uiso   1.00
O1660  O     0.74470   0.96200   0.96702   0.00000  Uiso   1.00
H1661  H     0.73299   0.98227   0.95325   0.00000  Uiso   1.00
O1662  O     0.75478   0.82651   0.54774   0.00000  Uiso   1.00
C1663  C     0.74344   0.78371   0.53687   0.00000  Uiso   1.00
H1664  H     0.76976   0.76855   0.51309   0.00000  Uiso   1.00
H1665  H     0.71560   0.77978   0.52163   0.00000  Uiso   1.00
C1666  C     0.73166   0.76101   0.57944   0.00000  Uiso   1.00
H1667  H     0.70735   0.77653   0.60525   0.00000  Uiso   1.00
H1668  H     0.71878   0.72823   0.57220   0.00000  Uiso   1.00
H1669  H     0.76026   0.76131   0.59271   0.00000  Uiso   1.00
S1670  S     0.70646   0.88632   0.52028   0.00000  Uiso   1.00
O1671  O     0.67925   0.89144   0.98913   0.00000  Uiso   1.00
O1672  O     0.68272   0.85486   0.55233   0.00000  Uiso   1.00
O1673  O     0.71512   0.93180   0.55007   0.00000  Uiso   1.00
H1674  H     0.68641   0.94002   0.56420   0.00000  Uiso   1.00
loop_
_geom_bond_atom_site_label_1
_geom_bond_atom_site_label_2
_geom_bond_distance
_geom_bond_site_symmetry_2
_ccdc_geom_bond_type
C1     O33     1.261   .     A
C1     C15     1.427   .     S
C1     O35     1.272   .     A
C2     C24     1.416   .     A
C2     C840    1.409   .     S
C2     S926    1.785   .     S
C3     O81     1.383   .     S
C3     C839    1.409   1_554 S
C3     C841    1.422   1_554 S
C4     C5      1.412   .     A
C4     C840    1.422   .     S
C4     C843    1.422   .     S
C5     C13     1.418   .     A
C5     C9      1.413   .     A
C6     C10     1.400   .     A
C6     C841    1.422   1_554 S
C6     C844    1.418   1_554 S
C7     C8      1.395   .     A
C7     C843    1.418   .     S
C7     C859    1.415   .     S
C8     H26     1.083   .     S
C8     C9      1.390   .     A
C9     H28     1.080   .     S
C10    H27     1.081   .     S
C10    C23     1.385   .     A
C11    O47     1.384   .     S
C11    C22     1.404   .     A
C11    C23     1.402   .     A
C12    C14     1.454   .     S
C12    O36     1.268   .     A
C12    O34     1.291   .     A
C13    C24     1.421   .     A
C13    C21     1.491   .     S
C14    C108    1.352   .     S
C14    H122    1.088   .     S
C15    C200    1.352   1_455 S
C15    S241    1.781   1_455 S
C16    C19     1.453   .     S
C16    C296    1.343   .     S
C16    H304    1.088   .     S
C17    C18     1.440   .     S
C17    C574    1.343   1_545 S
C17    O618    1.396   1_545 S
C18    O37     1.272   .     A
C18    O31     1.271   .     A
C19    O32     1.272   .     A
C19    O38     1.282   .     A
C20    O41     1.278   .     A
C20    O39     1.278   .     A
C20    C23     1.447   .     S
C21    O40     1.284   .     A
C21    O42     1.290   .     A
C22    C844    1.415   1_554 S
C22    O905    1.383   1_554 S
C24    S76     1.786   .     S
H25    C574    1.088   1_545 S
H29    C200    1.088   1_455 S
O30    Zn45    1.952   .     S
O30    Zn44    1.943   .     S
O30    Zn43    1.951   .     S
O30    Zn46    1.938   .     S
O31    Zn43    1.933   .     S
O32    Zn46    1.938   .     S
O33    Zn44    1.939   .     S
O34    Zn45    1.941   .     S
O35    Zn46    1.941   .     S
O36    Zn43    1.941   .     S
O37    Zn44    1.936   .     S
O38    Zn45    1.931   .     S
O39    Zn44    1.934   .     S
O40    Zn46    1.934   .     S
O41    Zn45    1.929   .     S
O42    Zn43    1.928   .     S
O47    C48     1.411   .     S
C48    C51     1.522   .     S
C48    H50     1.109   .     S
C48    H49     1.115   .     S
C51    H52     1.111   .     S
C51    H53     1.109   .     S
C51    H54     1.111   .     S
S55    O56     1.502   .     D
S55    O57     1.504   .     D
S55    C108    1.781   .     S
S55    O151    1.682   .     S
O58    S241    1.682   1_455 S
O58    H245    0.990   1_455 S
H59    O151    0.990   .     S
O60    C296    1.396   .     S
O60    C340    1.414   .     S
C61    H63     1.113   .     S
C61    H62     1.115   .     S
C61    O618    1.414   1_545 S
C61    C622    1.520   1_545 S
C64    H67     1.111   .     S
C64    H65     1.109   .     S
C64    C340    1.520   .     S
C64    H345    1.110   .     S
H66    C622    1.110   1_545 S
O68    C69     1.411   .     S
O68    C859    1.383   .     S
C69    C72     1.521   .     S
C69    H70     1.114   .     S
C69    H908    1.114   .     S
H71    C906    1.114   1_554 S
C72    H75     1.111   .     S
C72    H74     1.110   .     S
C72    H73     1.111   .     S
S76    O79     1.681   .     S
S76    O78     1.503   .     D
S76    O77     1.504   .     D
O79    H80     0.990   .     S
O81    C82     1.416   .     S
C82    H84     1.112   .     S
C82    C85     1.520   .     S
C82    H83     1.115   .     S
C85    H86     1.108   .     S
C85    H87     1.110   .     S
C85    H88     1.111   .     S
S89    O91     1.500   .     D
S89    O92     1.681   .     S
S89    C839    1.785   1_554 S
S89    O927    1.503   1_554 S
O90    S926    1.503   .     S
O92    H93     0.991   .     S
C94    O126    1.261   .     A
C94    C108    1.427   .     S
C94    O128    1.272   .     A
C95    C117    1.416   .     A
C95    C933    1.409   .     S
C95    S1019   1.785   .     S
C96    O174    1.383   .     S
C96    C932    1.409   1_554 S
C96    C934    1.422   1_554 S
C97    C98     1.412   .     A
C97    C933    1.422   .     S
C97    C936    1.422   .     S
C98    C106    1.418   .     A
C98    C102    1.413   .     A
C99    C103    1.400   .     A
C99    C934    1.422   1_554 S
C99    C937    1.418   1_554 S
C100   C101    1.395   .     A
C100   C936    1.418   .     S
C100   C952    1.415   .     S
C101   H119    1.083   .     S
C101   C102    1.390   .     A
C102   H121    1.080   .     S
C103   H120    1.081   .     S
C103   C116    1.385   .     A
C104   O140    1.384   .     S
C104   C115    1.404   .     A
C104   C116    1.402   .     A
C105   C107    1.454   .     S
C105   O129    1.268   .     A
C105   O127    1.291   .     A
C106   C117    1.421   .     A
C106   C114    1.491   .     S
C107   C201    1.352   .     S
C107   H215    1.088   .     S
C109   C112    1.453   .     S
C109   C389    1.343   .     S
C109   H397    1.088   .     S
C110   C111    1.440   .     S
C110   C667    1.343   1_545 S
C110   O711    1.396   1_545 S
C111   O130    1.272   .     A
C111   O124    1.271   .     A
C112   O125    1.272   .     A
C112   O131    1.282   .     A
C113   O134    1.278   .     A
C113   O132    1.278   .     A
C113   C116    1.447   .     S
C114   O133    1.284   .     A
C114   O135    1.290   .     A
C115   C937    1.415   1_554 S
C115   O998    1.383   1_554 S
C117   S169    1.786   .     S
H118   C667    1.088   1_545 S
O123   Zn138   1.952   .     S
O123   Zn137   1.943   .     S
O123   Zn136   1.951   .     S
O123   Zn139   1.938   .     S
O124   Zn136   1.933   .     S
O125   Zn139   1.938   .     S
O126   Zn137   1.939   .     S
O127   Zn138   1.941   .     S
O128   Zn139   1.941   .     S
O129   Zn136   1.941   .     S
O130   Zn137   1.936   .     S
O131   Zn138   1.931   .     S
O132   Zn137   1.934   .     S
O133   Zn139   1.934   .     S
O134   Zn138   1.929   .     S
O135   Zn136   1.928   .     S
O140   C141    1.411   .     S
C141   C144    1.522   .     S
C141   H143    1.109   .     S
C141   H142    1.115   .     S
C144   H145    1.111   .     S
C144   H146    1.109   .     S
C144   H147    1.111   .     S
S148   O149    1.502   .     D
S148   O150    1.504   .     D
S148   C201    1.781   .     S
S148   O244    1.682   .     S
H152   O244    0.990   .     S
O153   C389    1.396   .     S
O153   C433    1.414   .     S
C154   H156    1.113   .     S
C154   H155    1.115   .     S
C154   O711    1.414   1_545 S
C154   C715    1.520   1_545 S
C157   H160    1.111   .     S
C157   H158    1.109   .     S
C157   C433    1.520   .     S
C157   H438    1.110   .     S
H159   C715    1.110   1_545 S
O161   C162    1.411   .     S
O161   C952    1.383   .     S
C162   C165    1.521   .     S
C162   H163    1.114   .     S
C162   H1001   1.114   .     S
H164   C999    1.114   1_554 S
C165   H168    1.111   .     S
C165   H167    1.110   .     S
C165   H166    1.111   .     S
S169   O172    1.681   .     S
S169   O171    1.503   .     D
S169   O170    1.504   .     D
O172   H173    0.990   .     S
O174   C175    1.416   .     S
C175   H177    1.112   .     S
C175   C178    1.520   .     S
C175   H176    1.115   .     S
C178   H179    1.108   .     S
C178   H180    1.110   .     S
C178   H181    1.111   .     S
S182   O184    1.500   .     D
S182   O185    1.681   .     S
S182   C932    1.785   1_554 S
S182   O1020   1.503   1_554 S
O183   S1019   1.503   .     S
O185   H186    0.991   .     S
C187   O219    1.261   .     A
C187   C201    1.427   .     S
C187   O221    1.272   .     A
C188   C210    1.416   .     A
C188   C1026   1.409   .     S
C188   S1112   1.785   .     S
C189   O267    1.383   .     S
C189   C1025   1.409   1_554 S
C189   C1027   1.422   1_554 S
C190   C191    1.412   .     A
C190   C1026   1.422   .     S
C190   C1029   1.422   .     S
C191   C199    1.418   .     A
C191   C195    1.413   .     A
C192   C196    1.400   .     A
C192   C1027   1.422   1_554 S
C192   C1030   1.418   1_554 S
C193   C194    1.395   .     A
C193   C1029   1.418   .     S
C193   C1045   1.415   .     S
C194   H212    1.083   .     S
C194   C195    1.390   .     A
C195   H214    1.080   .     S
C196   H213    1.081   .     S
C196   C209    1.385   .     A
C197   O233    1.384   .     S
C197   C208    1.404   .     A
C197   C209    1.402   .     A
C198   C200    1.454   .     S
C198   O222    1.268   .     A
C198   O220    1.291   .     A
C199   C210    1.421   .     A
C199   C207    1.491   .     S
C200   C15     1.352   1_655 S
C200   H29     1.088   1_655 S
C202   C205    1.453   .     S
C202   C482    1.343   .     S
C202   H490    1.088   .     S
C203   C204    1.440   .     S
C203   C760    1.343   1_545 S
C203   O804    1.396   1_545 S
C204   O223    1.272   .     A
C204   O217    1.271   .     A
C205   O218    1.272   .     A
C205   O224    1.282   .     A
C206   O227    1.278   .     A
C206   O225    1.278   .     A
C206   C209    1.447   .     S
C207   O226    1.284   .     A
C207   O228    1.290   .     A
C208   C1030   1.415   1_554 S
C208   O1091   1.383   1_554 S
C210   S262    1.786   .     S
H211   C760    1.088   1_545 S
O216   Zn231   1.952   .     S
O216   Zn230   1.943   .     S
O216   Zn229   1.951   .     S
O216   Zn232   1.938   .     S
O217   Zn229   1.933   .     S
O218   Zn232   1.938   .     S
O219   Zn230   1.939   .     S
O220   Zn231   1.941   .     S
O221   Zn232   1.941   .     S
O222   Zn229   1.941   .     S
O223   Zn230   1.936   .     S
O224   Zn231   1.931   .     S
O225   Zn230   1.934   .     S
O226   Zn232   1.934   .     S
O227   Zn231   1.929   .     S
O228   Zn229   1.928   .     S
O233   C234    1.411   .     S
C234   C237    1.522   .     S
C234   H236    1.109   .     S
C234   H235    1.115   .     S
C237   H238    1.111   .     S
C237   H239    1.109   .     S
C237   H240    1.111   .     S
S241   O242    1.502   .     D
S241   O243    1.504   .     D
S241   C15     1.781   1_655 S
S241   O58     1.682   1_655 S
H245   O58     0.990   1_655 S
O246   C482    1.396   .     S
O246   C526    1.414   .     S
C247   H249    1.113   .     S
C247   H248    1.115   .     S
C247   O804    1.414   1_545 S
C247   C808    1.520   1_545 S
C250   H253    1.111   .     S
C250   H251    1.109   .     S
C250   C526    1.520   .     S
C250   H531    1.110   .     S
H252   C808    1.110   1_545 S
O254   C255    1.411   .     S
O254   C1045   1.383   .     S
C255   C258    1.521   .     S
C255   H256    1.114   .     S
C255   H1094   1.114   .     S
H257   C1092   1.114   1_554 S
C258   H261    1.111   .     S
C258   H260    1.110   .     S
C258   H259    1.111   .     S
S262   O265    1.681   .     S
S262   O264    1.503   .     D
S262   O263    1.504   .     D
O265   H266    0.990   .     S
O267   C268    1.416   .     S
C268   H270    1.112   .     S
C268   C271    1.520   .     S
C268   H269    1.115   .     S
C271   H272    1.108   .     S
C271   H273    1.110   .     S
C271   H274    1.111   .     S
S275   O277    1.500   .     D
S275   O278    1.681   .     S
S275   C1025   1.785   1_554 S
S275   O1113   1.503   1_554 S
O276   S1112   1.503   .     S
O278   H279    0.991   .     S
C280   O312    1.261   .     A
C280   C294    1.427   .     S
C280   O314    1.272   .     A
C281   C303    1.416   .     A
C281   C1119   1.409   .     S
C281   S1205   1.785   .     S
C282   O360    1.383   .     S
C282   C1118   1.409   1_554 S
C282   C1120   1.422   1_554 S
C283   C284    1.412   .     A
C283   C1119   1.422   .     S
C283   C1122   1.422   .     S
C284   C292    1.418   .     A
C284   C288    1.413   .     A
C285   C289    1.400   .     A
C285   C1120   1.422   1_554 S
C285   C1123   1.418   1_554 S
C286   C287    1.395   .     A
C286   C1122   1.418   .     S
C286   C1138   1.415   .     S
C287   H305    1.083   .     S
C287   C288    1.390   .     A
C288   H307    1.080   .     S
C289   H306    1.081   .     S
C289   C302    1.385   .     A
C290   O326    1.384   .     S
C290   C301    1.404   .     A
C290   C302    1.402   .     A
C291   C293    1.454   .     S
C291   O315    1.268   .     A
C291   O313    1.291   .     A
C292   C303    1.421   .     A
C292   C300    1.491   .     S
C293   C387    1.352   .     S
C293   H401    1.088   .     S
C294   C479    1.352   1_455 S
C294   S520    1.781   1_455 S
C295   C298    1.453   .     S
C295   C575    1.343   .     S
C295   H583    1.088   .     S
C296   C297    1.440   .     S
C297   O316    1.272   .     A
C297   O310    1.271   .     A
C298   O311    1.272   .     A
C298   O317    1.282   .     A
C299   O320    1.278   .     A
C299   O318    1.278   .     A
C299   C302    1.447   .     S
C300   O319    1.284   .     A
C300   O321    1.290   .     A
C301   C1123   1.415   1_554 S
C301   O1184   1.383   1_554 S
C303   S355    1.786   .     S
H308   C479    1.088   1_455 S
O309   Zn324   1.952   .     S
O309   Zn323   1.943   .     S
O309   Zn322   1.951   .     S
O309   Zn325   1.938   .     S
O310   Zn322   1.933   .     S
O311   Zn325   1.938   .     S
O312   Zn323   1.939   .     S
O313   Zn324   1.941   .     S
O314   Zn325   1.941   .     S
O315   Zn322   1.941   .     S
O316   Zn323   1.936   .     S
O317   Zn324   1.931   .     S
O318   Zn323   1.934   .     S
O319   Zn325   1.934   .     S
O320   Zn324   1.929   .     S
O321   Zn322   1.928   .     S
O326   C327    1.411   .     S
C327   C330    1.522   .     S
C327   H329    1.109   .     S
C327   H328    1.115   .     S
C330   H331    1.111   .     S
C330   H332    1.109   .     S
C330   H333    1.111   .     S
S334   O335    1.502   .     D
S334   O336    1.504   .     D
S334   C387    1.781   .     S
S334   O430    1.682   .     S
O337   S520    1.682   1_455 S
O337   H524    0.990   1_455 S
H338   O430    0.990   .     S
O339   C575    1.396   .     S
O339   C619    1.414   .     S
C340   H342    1.113   .     S
C340   H341    1.115   .     S
C343   H346    1.111   .     S
C343   H344    1.109   .     S
C343   C619    1.520   .     S
C343   H624    1.110   .     S
O347   C348    1.411   .     S
O347   C1138   1.383   .     S
C348   C351    1.521   .     S
C348   H349    1.114   .     S
C348   H1187   1.114   .     S
H350   C1185   1.114   1_554 S
C351   H354    1.111   .     S
C351   H353    1.110   .     S
C351   H352    1.111   .     S
S355   O358    1.681   .     S
S355   O357    1.503   .     D
S355   O356    1.504   .     D
O358   H359    0.990   .     S
O360   C361    1.416   .     S
C361   H363    1.112   .     S
C361   C364    1.520   .     S
C361   H362    1.115   .     S
C364   H365    1.108   .     S
C364   H366    1.110   .     S
C364   H367    1.111   .     S
S368   O370    1.500   .     D
S368   O371    1.681   .     S
S368   C1118   1.785   1_554 S
S368   O1206   1.503   1_554 S
O369   S1205   1.503   .     S
O371   H372    0.991   .     S
C373   O405    1.261   .     A
C373   C387    1.427   .     S
C373   O407    1.272   .     A
C374   C396    1.416   .     A
C374   C1212   1.409   .     S
C374   S1298   1.785   .     S
C375   O453    1.383   .     S
C375   C1211   1.409   1_554 S
C375   C1213   1.422   1_554 S
C376   C377    1.412   .     A
C376   C1212   1.422   .     S
C376   C1215   1.422   .     S
C377   C385    1.418   .     A
C377   C381    1.413   .     A
C378   C382    1.400   .     A
C378   C1213   1.422   1_554 S
C378   C1216   1.418   1_554 S
C379   C380    1.395   .     A
C379   C1215   1.418   .     S
C379   C1231   1.415   .     S
C380   H398    1.083   .     S
C380   C381    1.390   .     A
C381   H400    1.080   .     S
C382   H399    1.081   .     S
C382   C395    1.385   .     A
C383   O419    1.384   .     S
C383   C394    1.404   .     A
C383   C395    1.402   .     A
C384   C386    1.454   .     S
C384   O408    1.268   .     A
C384   O406    1.291   .     A
C385   C396    1.421   .     A
C385   C393    1.491   .     S
C386   C480    1.352   .     S
C386   H494    1.088   .     S
C388   C391    1.453   .     S
C388   C668    1.343   .     S
C388   H676    1.088   .     S
C389   C390    1.440   .     S
C390   O409    1.272   .     A
C390   O403    1.271   .     A
C391   O404    1.272   .     A
C391   O410    1.282   .     A
C392   O413    1.278   .     A
C392   O411    1.278   .     A
C392   C395    1.447   .     S
C393   O412    1.284   .     A
C393   O414    1.290   .     A
C394   C1216   1.415   1_554 S
C394   O1277   1.383   1_554 S
C396   S448    1.786   .     S
O402   Zn417   1.952   .     S
O402   Zn416   1.943   .     S
O402   Zn415   1.951   .     S
O402   Zn418   1.938   .     S
O403   Zn415   1.933   .     S
O404   Zn418   1.938   .     S
O405   Zn416   1.939   .     S
O406   Zn417   1.941   .     S
O407   Zn418   1.941   .     S
O408   Zn415   1.941   .     S
O409   Zn416   1.936   .     S
O410   Zn417   1.931   .     S
O411   Zn416   1.934   .     S
O412   Zn418   1.934   .     S
O413   Zn417   1.929   .     S
O414   Zn415   1.928   .     S
O419   C420    1.411   .     S
C420   C423    1.522   .     S
C420   H422    1.109   .     S
C420   H421    1.115   .     S
C423   H424    1.111   .     S
C423   H425    1.109   .     S
C423   H426    1.111   .     S
S427   O428    1.502   .     D
S427   O429    1.504   .     D
S427   C480    1.781   .     S
S427   O523    1.682   .     S
H431   O523    0.990   .     S
O432   C668    1.396   .     S
O432   C712    1.414   .     S
C433   H435    1.113   .     S
C433   H434    1.115   .     S
C436   H439    1.111   .     S
C436   H437    1.109   .     S
C436   C712    1.520   .     S
C436   H717    1.110   .     S
O440   C441    1.411   .     S
O440   C1231   1.383   .     S
C441   C444    1.521   .     S
C441   H442    1.114   .     S
C441   H1280   1.114   .     S
H443   C1278   1.114   1_554 S
C444   H447    1.111   .     S
C444   H446    1.110   .     S
C444   H445    1.111   .     S
S448   O451    1.681   .     S
S448   O450    1.503   .     D
S448   O449    1.504   .     D
O451   H452    0.990   .     S
O453   C454    1.416   .     S
C454   H456    1.112   .     S
C454   C457    1.520   .     S
C454   H455    1.115   .     S
C457   H458    1.108   .     S
C457   H459    1.110   .     S
C457   H460    1.111   .     S
S461   O463    1.500   .     D
S461   O464    1.681   .     S
S461   C1211   1.785   1_554 S
S461   O1299   1.503   1_554 S
O462   S1298   1.503   .     S
O464   H465    0.991   .     S
C466   O498    1.261   .     A
C466   C480    1.427   .     S
C466   O500    1.272   .     A
C467   C489    1.416   .     A
C467   C1305   1.409   .     S
C467   S1391   1.785   .     S
C468   O546    1.383   .     S
C468   C1304   1.409   1_554 S
C468   C1306   1.422   1_554 S
C469   C470    1.412   .     A
C469   C1305   1.422   .     S
C469   C1308   1.422   .     S
C470   C478    1.418   .     A
C470   C474    1.413   .     A
C471   C475    1.400   .     A
C471   C1306   1.422   1_554 S
C471   C1309   1.418   1_554 S
C472   C473    1.395   .     A
C472   C1308   1.418   .     S
C472   C1324   1.415   .     S
C473   H491    1.083   .     S
C473   C474    1.390   .     A
C474   H493    1.080   .     S
C475   H492    1.081   .     S
C475   C488    1.385   .     A
C476   O512    1.384   .     S
C476   C487    1.404   .     A
C476   C488    1.402   .     A
C477   C479    1.454   .     S
C477   O501    1.268   .     A
C477   O499    1.291   .     A
C478   C489    1.421   .     A
C478   C486    1.491   .     S
C479   C294    1.352   1_655 S
C479   H308    1.088   1_655 S
C481   C484    1.453   .     S
C481   C761    1.343   .     S
C481   H769    1.088   .     S
C482   C483    1.440   .     S
C483   O502    1.272   .     A
C483   O496    1.271   .     A
C484   O497    1.272   .     A
C484   O503    1.282   .     A
C485   O506    1.278   .     A
C485   O504    1.278   .     A
C485   C488    1.447   .     S
C486   O505    1.284   .     A
C486   O507    1.290   .     A
C487   C1309   1.415   1_554 S
C487   O1370   1.383   1_554 S
C489   S541    1.786   .     S
O495   Zn510   1.952   .     S
O495   Zn509   1.943   .     S
O495   Zn508   1.951   .     S
O495   Zn511   1.938   .     S
O496   Zn508   1.933   .     S
O497   Zn511   1.938   .     S
O498   Zn509   1.939   .     S
O499   Zn510   1.941   .     S
O500   Zn511   1.941   .     S
O501   Zn508   1.941   .     S
O502   Zn509   1.936   .     S
O503   Zn510   1.931   .     S
O504   Zn509   1.934   .     S
O505   Zn511   1.934   .     S
O506   Zn510   1.929   .     S
O507   Zn508   1.928   .     S
O512   C513    1.411   .     S
C513   C516    1.522   .     S
C513   H515    1.109   .     S
C513   H514    1.115   .     S
C516   H517    1.111   .     S
C516   H518    1.109   .     S
C516   H519    1.111   .     S
S520   O521    1.502   .     D
S520   O522    1.504   .     D
S520   C294    1.781   1_655 S
S520   O337    1.682   1_655 S
H524   O337    0.990   1_655 S
O525   C761    1.396   .     S
O525   C805    1.414   .     S
C526   H528    1.113   .     S
C526   H527    1.115   .     S
C529   H532    1.111   .     S
C529   H530    1.109   .     S
C529   C805    1.520   .     S
C529   H810    1.110   .     S
O533   C534    1.411   .     S
O533   C1324   1.383   .     S
C534   C537    1.521   .     S
C534   H535    1.114   .     S
C534   H1373   1.114   .     S
H536   C1371   1.114   1_554 S
C537   H540    1.111   .     S
C537   H539    1.110   .     S
C537   H538    1.111   .     S
S541   O544    1.681   .     S
S541   O543    1.503   .     D
S541   O542    1.504   .     D
O544   H545    0.990   .     S
O546   C547    1.416   .     S
C547   H549    1.112   .     S
C547   C550    1.520   .     S
C547   H548    1.115   .     S
C550   H551    1.108   .     S
C550   H552    1.110   .     S
C550   H553    1.111   .     S
S554   O556    1.500   .     D
S554   O557    1.681   .     S
S554   C1304   1.785   1_554 S
S554   O1392   1.503   1_554 S
O555   S1391   1.503   .     S
O557   H558    0.991   .     S
C559   O591    1.261   .     A
C559   C573    1.427   .     S
C559   O593    1.272   .     A
C560   C582    1.416   .     A
C560   C1398   1.409   .     S
C560   S1484   1.785   .     S
C561   O639    1.383   .     S
C561   C1397   1.409   1_554 S
C561   C1399   1.422   1_554 S
C562   C563    1.412   .     A
C562   C1398   1.422   .     S
C562   C1401   1.422   .     S
C563   C571    1.418   .     A
C563   C567    1.413   .     A
C564   C568    1.400   .     A
C564   C1399   1.422   1_554 S
C564   C1402   1.418   1_554 S
C565   C566    1.395   .     A
C565   C1401   1.418   .     S
C565   C1417   1.415   .     S
C566   H584    1.083   .     S
C566   C567    1.390   .     A
C567   H586    1.080   .     S
C568   H585    1.081   .     S
C568   C581    1.385   .     A
C569   O605    1.384   .     S
C569   C580    1.404   .     A
C569   C581    1.402   .     A
C570   C572    1.454   .     S
C570   O594    1.268   .     A
C570   O592    1.291   .     A
C571   C582    1.421   .     A
C571   C579    1.491   .     S
C572   C666    1.352   .     S
C572   H680    1.088   .     S
C573   C758    1.352   1_455 S
C573   S799    1.781   1_455 S
C574   C577    1.453   .     S
C574   C17     1.343   1_565 S
C574   H25     1.088   1_565 S
C575   C576    1.440   .     S
C576   O595    1.272   .     A
C576   O589    1.271   .     A
C577   O590    1.272   .     A
C577   O596    1.282   .     A
C578   O599    1.278   .     A
C578   O597    1.278   .     A
C578   C581    1.447   .     S
C579   O598    1.284   .     A
C579   O600    1.290   .     A
C580   C1402   1.415   1_554 S
C580   O1463   1.383   1_554 S
C582   S634    1.786   .     S
H587   C758    1.088   1_455 S
O588   Zn603   1.952   .     S
O588   Zn602   1.943   .     S
O588   Zn601   1.951   .     S
O588   Zn604   1.938   .     S
O589   Zn601   1.933   .     S
O590   Zn604   1.938   .     S
O591   Zn602   1.939   .     S
O592   Zn603   1.941   .     S
O593   Zn604   1.941   .     S
O594   Zn601   1.941   .     S
O595   Zn602   1.936   .     S
O596   Zn603   1.931   .     S
O597   Zn602   1.934   .     S
O598   Zn604   1.934   .     S
O599   Zn603   1.929   .     S
O600   Zn601   1.928   .     S
O605   C606    1.411   .     S
C606   C609    1.522   .     S
C606   H608    1.109   .     S
C606   H607    1.115   .     S
C609   H610    1.111   .     S
C609   H611    1.109   .     S
C609   H612    1.111   .     S
S613   O614    1.502   .     D
S613   O615    1.504   .     D
S613   C666    1.781   .     S
S613   O709    1.682   .     S
O616   S799    1.682   1_455 S
O616   H803    0.990   1_455 S
H617   O709    0.990   .     S
O618   C17     1.396   1_565 S
O618   C61     1.414   1_565 S
C619   H621    1.113   .     S
C619   H620    1.115   .     S
C622   H625    1.111   .     S
C622   H623    1.109   .     S
C622   C61     1.520   1_565 S
C622   H66     1.110   1_565 S
O626   C627    1.411   .     S
O626   C1417   1.383   .     S
C627   C630    1.521   .     S
C627   H628    1.114   .     S
C627   H1466   1.114   .     S
H629   C1464   1.114   1_554 S
C630   H633    1.111   .     S
C630   H632    1.110   .     S
C630   H631    1.111   .     S
S634   O637    1.681   .     S
S634   O636    1.503   .     D
S634   O635    1.504   .     D
O637   H638    0.990   .     S
O639   C640    1.416   .     S
C640   H642    1.112   .     S
C640   C643    1.520   .     S
C640   H641    1.115   .     S
C643   H644    1.108   .     S
C643   H645    1.110   .     S
C643   H646    1.111   .     S
S647   O649    1.500   .     D
S647   O650    1.681   .     S
S647   C1397   1.785   1_554 S
S647   O1485   1.503   1_554 S
O648   S1484   1.503   .     S
O650   H651    0.991   .     S
C652   O684    1.261   .     A
C652   C666    1.427   .     S
C652   O686    1.272   .     A
C653   C675    1.416   .     A
C653   C1491   1.409   .     S
C653   S1577   1.785   .     S
C654   O732    1.383   .     S
C654   C1490   1.409   1_554 S
C654   C1492   1.422   1_554 S
C655   C656    1.412   .     A
C655   C1491   1.422   .     S
C655   C1494   1.422   .     S
C656   C664    1.418   .     A
C656   C660    1.413   .     A
C657   C661    1.400   .     A
C657   C1492   1.422   1_554 S
C657   C1495   1.418   1_554 S
C658   C659    1.395   .     A
C658   C1494   1.418   .     S
C658   C1510   1.415   .     S
C659   H677    1.083   .     S
C659   C660    1.390   .     A
C660   H679    1.080   .     S
C661   H678    1.081   .     S
C661   C674    1.385   .     A
C662   O698    1.384   .     S
C662   C673    1.404   .     A
C662   C674    1.402   .     A
C663   C665    1.454   .     S
C663   O687    1.268   .     A
C663   O685    1.291   .     A
C664   C675    1.421   .     A
C664   C672    1.491   .     S
C665   C759    1.352   .     S
C665   H773    1.088   .     S
C667   C670    1.453   .     S
C667   C110    1.343   1_565 S
C667   H118    1.088   1_565 S
C668   C669    1.440   .     S
C669   O688    1.272   .     A
C669   O682    1.271   .     A
C670   O683    1.272   .     A
C670   O689    1.282   .     A
C671   O692    1.278   .     A
C671   O690    1.278   .     A
C671   C674    1.447   .     S
C672   O691    1.284   .     A
C672   O693    1.290   .     A
C673   C1495   1.415   1_554 S
C673   O1556   1.383   1_554 S
C675   S727    1.786   .     S
O681   Zn696   1.952   .     S
O681   Zn695   1.943   .     S
O681   Zn694   1.951   .     S
O681   Zn697   1.938   .     S
O682   Zn694   1.933   .     S
O683   Zn697   1.938   .     S
O684   Zn695   1.939   .     S
O685   Zn696   1.941   .     S
O686   Zn697   1.941   .     S
O687   Zn694   1.941   .     S
O688   Zn695   1.936   .     S
O689   Zn696   1.931   .     S
O690   Zn695   1.934   .     S
O691   Zn697   1.934   .     S
O692   Zn696   1.929   .     S
O693   Zn694   1.928   .     S
O698   C699    1.411   .     S
C699   C702    1.522   .     S
C699   H701    1.109   .     S
C699   H700    1.115   .     S
C702   H703    1.111   .     S
C702   H704    1.109   .     S
C702   H705    1.111   .     S
S706   O707    1.502   .     D
S706   O708    1.504   .     D
S706   C759    1.781   .     S
S706   O802    1.682   .     S
H710   O802    0.990   .     S
O711   C110    1.396   1_565 S
O711   C154    1.414   1_565 S
C712   H714    1.113   .     S
C712   H713    1.115   .     S
C715   H718    1.111   .     S
C715   H716    1.109   .     S
C715   C154    1.520   1_565 S
C715   H159    1.110   1_565 S
O719   C720    1.411   .     S
O719   C1510   1.383   .     S
C720   C723    1.521   .     S
C720   H721    1.114   .     S
C720   H1559   1.114   .     S
H722   C1557   1.114   1_554 S
C723   H726    1.111   .     S
C723   H725    1.110   .     S
C723   H724    1.111   .     S
S727   O730    1.681   .     S
S727   O729    1.503   .     D
S727   O728    1.504   .     D
O730   H731    0.990   .     S
O732   C733    1.416   .     S
C733   H735    1.112   .     S
C733   C736    1.520   .     S
C733   H734    1.115   .     S
C736   H737    1.108   .     S
C736   H738    1.110   .     S
C736   H739    1.111   .     S
S740   O742    1.500   .     D
S740   O743    1.681   .     S
S740   C1490   1.785   1_554 S
S740   O1578   1.503   1_554 S
O741   S1577   1.503   .     S
O743   H744    0.991   .     S
C745   O777    1.261   .     A
C745   C759    1.427   .     S
C745   O779    1.272   .     A
C746   C768    1.416   .     A
C746   C1584   1.409   .     S
C746   S1670   1.785   .     S
C747   O825    1.383   .     S
C747   C1583   1.409   1_554 S
C747   C1585   1.422   1_554 S
C748   C749    1.412   .     A
C748   C1584   1.422   .     S
C748   C1587   1.422   .     S
C749   C757    1.418   .     A
C749   C753    1.413   .     A
C750   C754    1.400   .     A
C750   C1585   1.422   1_554 S
C750   C1588   1.418   1_554 S
C751   C752    1.395   .     A
C751   C1587   1.418   .     S
C751   C1603   1.415   .     S
C752   H770    1.083   .     S
C752   C753    1.390   .     A
C753   H772    1.080   .     S
C754   H771    1.081   .     S
C754   C767    1.385   .     A
C755   O791    1.384   .     S
C755   C766    1.404   .     A
C755   C767    1.402   .     A
C756   C758    1.454   .     S
C756   O780    1.268   .     A
C756   O778    1.291   .     A
C757   C768    1.421   .     A
C757   C765    1.491   .     S
C758   C573    1.352   1_655 S
C758   H587    1.088   1_655 S
C760   C763    1.453   .     S
C760   C203    1.343   1_565 S
C760   H211    1.088   1_565 S
C761   C762    1.440   .     S
C762   O781    1.272   .     A
C762   O775    1.271   .     A
C763   O776    1.272   .     A
C763   O782    1.282   .     A
C764   O785    1.278   .     A
C764   O783    1.278   .     A
C764   C767    1.447   .     S
C765   O784    1.284   .     A
C765   O786    1.290   .     A
C766   C1588   1.415   1_554 S
C766   O1649   1.383   1_554 S
C768   S820    1.786   .     S
O774   Zn789   1.952   .     S
O774   Zn788   1.943   .     S
O774   Zn787   1.951   .     S
O774   Zn790   1.938   .     S
O775   Zn787   1.933   .     S
O776   Zn790   1.938   .     S
O777   Zn788   1.939   .     S
O778   Zn789   1.941   .     S
O779   Zn790   1.941   .     S
O780   Zn787   1.941   .     S
O781   Zn788   1.936   .     S
O782   Zn789   1.931   .     S
O783   Zn788   1.934   .     S
O784   Zn790   1.934   .     S
O785   Zn789   1.929   .     S
O786   Zn787   1.928   .     S
O791   C792    1.411   .     S
C792   C795    1.522   .     S
C792   H794    1.109   .     S
C792   H793    1.115   .     S
C795   H796    1.111   .     S
C795   H797    1.109   .     S
C795   H798    1.111   .     S
S799   O800    1.502   .     D
S799   O801    1.504   .     D
S799   C573    1.781   1_655 S
S799   O616    1.682   1_655 S
H803   O616    0.990   1_655 S
O804   C203    1.396   1_565 S
O804   C247    1.414   1_565 S
C805   H807    1.113   .     S
C805   H806    1.115   .     S
C808   H811    1.111   .     S
C808   H809    1.109   .     S
C808   C247    1.520   1_565 S
C808   H252    1.110   1_565 S
O812   C813    1.411   .     S
O812   C1603   1.383   .     S
C813   C816    1.521   .     S
C813   H814    1.114   .     S
C813   H1652   1.114   .     S
H815   C1650   1.114   1_554 S
C816   H819    1.111   .     S
C816   H818    1.110   .     S
C816   H817    1.111   .     S
S820   O823    1.681   .     S
S820   O822    1.503   .     D
S820   O821    1.504   .     D
O823   H824    0.990   .     S
O825   C826    1.416   .     S
C826   H828    1.112   .     S
C826   C829    1.520   .     S
C826   H827    1.115   .     S
C829   H830    1.108   .     S
C829   H831    1.110   .     S
C829   H832    1.111   .     S
S833   O835    1.500   .     D
S833   O836    1.681   .     S
S833   C1583   1.785   1_554 S
S833   O1671   1.503   1_554 S
O834   S1670   1.503   .     S
O836   H837    0.991   .     S
C838   O870    1.261   .     A
C838   C852    1.427   .     S
C838   O872    1.272   .     A
C839   C861    1.416   .     A
C839   C3      1.409   1_556 S
C839   S89     1.785   1_556 S
C840   O918    1.383   .     S
C841   C842    1.412   .     A
C841   C3      1.422   1_556 S
C841   C6      1.422   1_556 S
C842   C850    1.418   .     A
C842   C846    1.413   .     A
C843   C847    1.400   .     A
C844   C845    1.395   .     A
C844   C6      1.418   1_556 S
C844   C22     1.415   1_556 S
C845   H863    1.083   .     S
C845   C846    1.390   .     A
C846   H865    1.080   .     S
C847   H864    1.081   .     S
C847   C860    1.385   .     A
C848   O884    1.384   .     S
C848   C859    1.404   .     A
C848   C860    1.402   .     A
C849   C851    1.454   .     S
C849   O873    1.268   .     A
C849   O871    1.291   .     A
C850   C861    1.421   .     A
C850   C858    1.491   .     S
C851   C945    1.352   .     S
C851   H959    1.088   .     S
C852   C1037   1.352   1_455 S
C852   S1078   1.781   1_455 S
C853   C856    1.453   .     S
C853   C1133   1.343   .     S
C853   H1141   1.088   .     S
C854   C855    1.440   .     S
C854   C1411   1.343   1_545 S
C854   O1455   1.396   1_545 S
C855   O874    1.272   .     A
C855   O868    1.271   .     A
C856   O869    1.272   .     A
C856   O875    1.282   .     A
C857   O878    1.278   .     A
C857   O876    1.278   .     A
C857   C860    1.447   .     S
C858   O877    1.284   .     A
C858   O879    1.290   .     A
C861   S913    1.786   .     S
H862   C1411   1.088   1_545 S
H866   C1037   1.088   1_455 S
O867   Zn882   1.952   .     S
O867   Zn881   1.943   .     S
O867   Zn880   1.951   .     S
O867   Zn883   1.938   .     S
O868   Zn880   1.933   .     S
O869   Zn883   1.938   .     S
O870   Zn881   1.939   .     S
O871   Zn882   1.941   .     S
O872   Zn883   1.941   .     S
O873   Zn880   1.941   .     S
O874   Zn881   1.936   .     S
O875   Zn882   1.931   .     S
O876   Zn881   1.934   .     S
O877   Zn883   1.934   .     S
O878   Zn882   1.929   .     S
O879   Zn880   1.928   .     S
O884   C885    1.411   .     S
C885   C888    1.522   .     S
C885   H887    1.109   .     S
C885   H886    1.115   .     S
C888   H889    1.111   .     S
C888   H890    1.109   .     S
C888   H891    1.111   .     S
S892   O893    1.502   .     D
S892   O894    1.504   .     D
S892   C945    1.781   .     S
S892   O988    1.682   .     S
O895   S1078   1.682   1_455 S
O895   H1082   0.990   1_455 S
H896   O988    0.990   .     S
O897   C1133   1.396   .     S
O897   C1177   1.414   .     S
C898   H900    1.113   .     S
C898   H899    1.115   .     S
C898   O1455   1.414   1_545 S
C898   C1459   1.520   1_545 S
C901   H904    1.111   .     S
C901   H902    1.109   .     S
C901   C1177   1.520   .     S
C901   H1182   1.110   .     S
H903   C1459   1.110   1_545 S
O905   C906    1.411   .     S
O905   C22     1.383   1_556 S
C906   C909    1.521   .     S
C906   H907    1.114   .     S
C906   H71     1.114   1_556 S
C909   H912    1.111   .     S
C909   H911    1.110   .     S
C909   H910    1.111   .     S
S913   O916    1.681   .     S
S913   O915    1.503   .     D
S913   O914    1.504   .     D
O916   H917    0.990   .     S
O918   C919    1.416   .     S
C919   H921    1.112   .     S
C919   C922    1.520   .     S
C919   H920    1.115   .     S
C922   H923    1.108   .     S
C922   H924    1.110   .     S
C922   H925    1.111   .     S
S926   O928    1.500   .     D
S926   O929    1.681   .     S
O927   S89     1.503   1_556 S
O929   H930    0.991   .     S
C931   O963    1.261   .     A
C931   C945    1.427   .     S
C931   O965    1.272   .     A
C932   C954    1.416   .     A
C932   C96     1.409   1_556 S
C932   S182    1.785   1_556 S
C933   O1011   1.383   .     S
C934   C935    1.412   .     A
C934   C96     1.422   1_556 S
C934   C99     1.422   1_556 S
C935   C943    1.418   .     A
C935   C939    1.413   .     A
C936   C940    1.400   .     A
C937   C938    1.395   .     A
C937   C99     1.418   1_556 S
C937   C115    1.415   1_556 S
C938   H956    1.083   .     S
C938   C939    1.390   .     A
C939   H958    1.080   .     S
C940   H957    1.081   .     S
C940   C953    1.385   .     A
C941   O977    1.384   .     S
C941   C952    1.404   .     A
C941   C953    1.402   .     A
C942   C944    1.454   .     S
C942   O966    1.268   .     A
C942   O964    1.291   .     A
C943   C954    1.421   .     A
C943   C951    1.491   .     S
C944   C1038   1.352   .     S
C944   H1052   1.088   .     S
C946   C949    1.453   .     S
C946   C1226   1.343   .     S
C946   H1234   1.088   .     S
C947   C948    1.440   .     S
C947   C1504   1.343   1_545 S
C947   O1548   1.396   1_545 S
C948   O967    1.272   .     A
C948   O961    1.271   .     A
C949   O962    1.272   .     A
C949   O968    1.282   .     A
C950   O971    1.278   .     A
C950   O969    1.278   .     A
C950   C953    1.447   .     S
C951   O970    1.284   .     A
C951   O972    1.290   .     A
C954   S1006   1.786   .     S
H955   C1504   1.088   1_545 S
O960   Zn975   1.952   .     S
O960   Zn974   1.943   .     S
O960   Zn973   1.951   .     S
O960   Zn976   1.938   .     S
O961   Zn973   1.933   .     S
O962   Zn976   1.938   .     S
O963   Zn974   1.939   .     S
O964   Zn975   1.941   .     S
O965   Zn976   1.941   .     S
O966   Zn973   1.941   .     S
O967   Zn974   1.936   .     S
O968   Zn975   1.931   .     S
O969   Zn974   1.934   .     S
O970   Zn976   1.934   .     S
O971   Zn975   1.929   .     S
O972   Zn973   1.928   .     S
O977   C978    1.411   .     S
C978   C981    1.522   .     S
C978   H980    1.109   .     S
C978   H979    1.115   .     S
C981   H982    1.111   .     S
C981   H983    1.109   .     S
C981   H984    1.111   .     S
S985   O986    1.502   .     D
S985   O987    1.504   .     D
S985   C1038   1.781   .     S
S985   O1081   1.682   .     S
H989   O1081   0.990   .     S
O990   C1226   1.396   .     S
O990   C1270   1.414   .     S
C991   H993    1.113   .     S
C991   H992    1.115   .     S
C991   O1548   1.414   1_545 S
C991   C1552   1.520   1_545 S
C994   H997    1.111   .     S
C994   H995    1.109   .     S
C994   C1270   1.520   .     S
C994   H1275   1.110   .     S
H996   C1552   1.110   1_545 S
O998   C999    1.411   .     S
O998   C115    1.383   1_556 S
C999   C1002   1.521   .     S
C999   H1000   1.114   .     S
C999   H164    1.114   1_556 S
C1002  H1005   1.111   .     S
C1002  H1004   1.110   .     S
C1002  H1003   1.111   .     S
S1006  O1009   1.681   .     S
S1006  O1008   1.503   .     D
S1006  O1007   1.504   .     D
O1009  H1010   0.990   .     S
O1011  C1012   1.416   .     S
C1012  H1014   1.112   .     S
C1012  C1015   1.520   .     S
C1012  H1013   1.115   .     S
C1015  H1016   1.108   .     S
C1015  H1017   1.110   .     S
C1015  H1018   1.111   .     S
S1019  O1021   1.500   .     D
S1019  O1022   1.681   .     S
O1020  S182    1.503   1_556 S
O1022  H1023   0.991   .     S
C1024  O1056   1.261   .     A
C1024  C1038   1.427   .     S
C1024  O1058   1.272   .     A
C1025  C1047   1.416   .     A
C1025  C189    1.409   1_556 S
C1025  S275    1.785   1_556 S
C1026  O1104   1.383   .     S
C1027  C1028   1.412   .     A
C1027  C189    1.422   1_556 S
C1027  C192    1.422   1_556 S
C1028  C1036   1.418   .     A
C1028  C1032   1.413   .     A
C1029  C1033   1.400   .     A
C1030  C1031   1.395   .     A
C1030  C192    1.418   1_556 S
C1030  C208    1.415   1_556 S
C1031  H1049   1.083   .     S
C1031  C1032   1.390   .     A
C1032  H1051   1.080   .     S
C1033  H1050   1.081   .     S
C1033  C1046   1.385   .     A
C1034  O1070   1.384   .     S
C1034  C1045   1.404   .     A
C1034  C1046   1.402   .     A
C1035  C1037   1.454   .     S
C1035  O1059   1.268   .     A
C1035  O1057   1.291   .     A
C1036  C1047   1.421   .     A
C1036  C1044   1.491   .     S
C1037  C852    1.352   1_655 S
C1037  H866    1.088   1_655 S
C1039  C1042   1.453   .     S
C1039  C1319   1.343   .     S
C1039  H1327   1.088   .     S
C1040  C1041   1.440   .     S
C1040  C1597   1.343   1_545 S
C1040  O1641   1.396   1_545 S
C1041  O1060   1.272   .     A
C1041  O1054   1.271   .     A
C1042  O1055   1.272   .     A
C1042  O1061   1.282   .     A
C1043  O1064   1.278   .     A
C1043  O1062   1.278   .     A
C1043  C1046   1.447   .     S
C1044  O1063   1.284   .     A
C1044  O1065   1.290   .     A
C1047  S1099   1.786   .     S
H1048  C1597   1.088   1_545 S
O1053  Zn1068  1.952   .     S
O1053  Zn1067  1.943   .     S
O1053  Zn1066  1.951   .     S
O1053  Zn1069  1.938   .     S
O1054  Zn1066  1.933   .     S
O1055  Zn1069  1.938   .     S
O1056  Zn1067  1.939   .     S
O1057  Zn1068  1.941   .     S
O1058  Zn1069  1.941   .     S
O1059  Zn1066  1.941   .     S
O1060  Zn1067  1.936   .     S
O1061  Zn1068  1.931   .     S
O1062  Zn1067  1.934   .     S
O1063  Zn1069  1.934   .     S
O1064  Zn1068  1.929   .     S
O1065  Zn1066  1.928   .     S
O1070  C1071   1.411   .     S
C1071  C1074   1.522   .     S
C1071  H1073   1.109   .     S
C1071  H1072   1.115   .     S
C1074  H1075   1.111   .     S
C1074  H1076   1.109   .     S
C1074  H1077   1.111   .     S
S1078  O1079   1.502   .     D
S1078  O1080   1.504   .     D
S1078  C852    1.781   1_655 S
S1078  O895    1.682   1_655 S
H1082  O895    0.990   1_655 S
O1083  C1319   1.396   .     S
O1083  C1363   1.414   .     S
C1084  H1086   1.113   .     S
C1084  H1085   1.115   .     S
C1084  O1641   1.414   1_545 S
C1084  C1645   1.520   1_545 S
C1087  H1090   1.111   .     S
C1087  H1088   1.109   .     S
C1087  C1363   1.520   .     S
C1087  H1368   1.110   .     S
H1089  C1645   1.110   1_545 S
O1091  C1092   1.411   .     S
O1091  C208    1.383   1_556 S
C1092  C1095   1.521   .     S
C1092  H1093   1.114   .     S
C1092  H257    1.114   1_556 S
C1095  H1098   1.111   .     S
C1095  H1097   1.110   .     S
C1095  H1096   1.111   .     S
S1099  O1102   1.681   .     S
S1099  O1101   1.503   .     D
S1099  O1100   1.504   .     D
O1102  H1103   0.990   .     S
O1104  C1105   1.416   .     S
C1105  H1107   1.112   .     S
C1105  C1108   1.520   .     S
C1105  H1106   1.115   .     S
C1108  H1109   1.108   .     S
C1108  H1110   1.110   .     S
C1108  H1111   1.111   .     S
S1112  O1114   1.500   .     D
S1112  O1115   1.681   .     S
O1113  S275    1.503   1_556 S
O1115  H1116   0.991   .     S
C1117  O1149   1.261   .     A
C1117  C1131   1.427   .     S
C1117  O1151   1.272   .     A
C1118  C1140   1.416   .     A
C1118  C282    1.409   1_556 S
C1118  S368    1.785   1_556 S
C1119  O1197   1.383   .     S
C1120  C1121   1.412   .     A
C1120  C282    1.422   1_556 S
C1120  C285    1.422   1_556 S
C1121  C1129   1.418   .     A
C1121  C1125   1.413   .     A
C1122  C1126   1.400   .     A
C1123  C1124   1.395   .     A
C1123  C285    1.418   1_556 S
C1123  C301    1.415   1_556 S
C1124  H1142   1.083   .     S
C1124  C1125   1.390   .     A
C1125  H1144   1.080   .     S
C1126  H1143   1.081   .     S
C1126  C1139   1.385   .     A
C1127  O1163   1.384   .     S
C1127  C1138   1.404   .     A
C1127  C1139   1.402   .     A
C1128  C1130   1.454   .     S
C1128  O1152   1.268   .     A
C1128  O1150   1.291   .     A
C1129  C1140   1.421   .     A
C1129  C1137   1.491   .     S
C1130  C1224   1.352   .     S
C1130  H1238   1.088   .     S
C1131  C1316   1.352   1_455 S
C1131  S1357   1.781   1_455 S
C1132  C1135   1.453   .     S
C1132  C1412   1.343   .     S
C1132  H1420   1.088   .     S
C1133  C1134   1.440   .     S
C1134  O1153   1.272   .     A
C1134  O1147   1.271   .     A
C1135  O1148   1.272   .     A
C1135  O1154   1.282   .     A
C1136  O1157   1.278   .     A
C1136  O1155   1.278   .     A
C1136  C1139   1.447   .     S
C1137  O1156   1.284   .     A
C1137  O1158   1.290   .     A
C1140  S1192   1.786   .     S
H1145  C1316   1.088   1_455 S
O1146  Zn1161  1.952   .     S
O1146  Zn1160  1.943   .     S
O1146  Zn1159  1.951   .     S
O1146  Zn1162  1.938   .     S
O1147  Zn1159  1.933   .     S
O1148  Zn1162  1.938   .     S
O1149  Zn1160  1.939   .     S
O1150  Zn1161  1.941   .     S
O1151  Zn1162  1.941   .     S
O1152  Zn1159  1.941   .     S
O1153  Zn1160  1.936   .     S
O1154  Zn1161  1.931   .     S
O1155  Zn1160  1.934   .     S
O1156  Zn1162  1.934   .     S
O1157  Zn1161  1.929   .     S
O1158  Zn1159  1.928   .     S
O1163  C1164   1.411   .     S
C1164  C1167   1.522   .     S
C1164  H1166   1.109   .     S
C1164  H1165   1.115   .     S
C1167  H1168   1.111   .     S
C1167  H1169   1.109   .     S
C1167  H1170   1.111   .     S
S1171  O1172   1.502   .     D
S1171  O1173   1.504   .     D
S1171  C1224   1.781   .     S
S1171  O1267   1.682   .     S
O1174  S1357   1.682   1_455 S
O1174  H1361   0.990   1_455 S
H1175  O1267   0.990   .     S
O1176  C1412   1.396   .     S
O1176  C1456   1.414   .     S
C1177  H1179   1.113   .     S
C1177  H1178   1.115   .     S
C1180  H1183   1.111   .     S
C1180  H1181   1.109   .     S
C1180  C1456   1.520   .     S
C1180  H1461   1.110   .     S
O1184  C1185   1.411   .     S
O1184  C301    1.383   1_556 S
C1185  C1188   1.521   .     S
C1185  H1186   1.114   .     S
C1185  H350    1.114   1_556 S
C1188  H1191   1.111   .     S
C1188  H1190   1.110   .     S
C1188  H1189   1.111   .     S
S1192  O1195   1.681   .     S
S1192  O1194   1.503   .     D
S1192  O1193   1.504   .     D
O1195  H1196   0.990   .     S
O1197  C1198   1.416   .     S
C1198  H1200   1.112   .     S
C1198  C1201   1.520   .     S
C1198  H1199   1.115   .     S
C1201  H1202   1.108   .     S
C1201  H1203   1.110   .     S
C1201  H1204   1.111   .     S
S1205  O1207   1.500   .     D
S1205  O1208   1.681   .     S
O1206  S368    1.503   1_556 S
O1208  H1209   0.991   .     S
C1210  O1242   1.261   .     A
C1210  C1224   1.427   .     S
C1210  O1244   1.272   .     A
C1211  C1233   1.416   .     A
C1211  C375    1.409   1_556 S
C1211  S461    1.785   1_556 S
C1212  O1290   1.383   .     S
C1213  C1214   1.412   .     A
C1213  C375    1.422   1_556 S
C1213  C378    1.422   1_556 S
C1214  C1222   1.418   .     A
C1214  C1218   1.413   .     A
C1215  C1219   1.400   .     A
C1216  C1217   1.395   .     A
C1216  C378    1.418   1_556 S
C1216  C394    1.415   1_556 S
C1217  H1235   1.083   .     S
C1217  C1218   1.390   .     A
C1218  H1237   1.080   .     S
C1219  H1236   1.081   .     S
C1219  C1232   1.385   .     A
C1220  O1256   1.384   .     S
C1220  C1231   1.404   .     A
C1220  C1232   1.402   .     A
C1221  C1223   1.454   .     S
C1221  O1245   1.268   .     A
C1221  O1243   1.291   .     A
C1222  C1233   1.421   .     A
C1222  C1230   1.491   .     S
C1223  C1317   1.352   .     S
C1223  H1331   1.088   .     S
C1225  C1228   1.453   .     S
C1225  C1505   1.343   .     S
C1225  H1513   1.088   .     S
C1226  C1227   1.440   .     S
C1227  O1246   1.272   .     A
C1227  O1240   1.271   .     A
C1228  O1241   1.272   .     A
C1228  O1247   1.282   .     A
C1229  O1250   1.278   .     A
C1229  O1248   1.278   .     A
C1229  C1232   1.447   .     S
C1230  O1249   1.284   .     A
C1230  O1251   1.290   .     A
C1233  S1285   1.786   .     S
O1239  Zn1254  1.952   .     S
O1239  Zn1253  1.943   .     S
O1239  Zn1252  1.951   .     S
O1239  Zn1255  1.938   .     S
O1240  Zn1252  1.933   .     S
O1241  Zn1255  1.938   .     S
O1242  Zn1253  1.939   .     S
O1243  Zn1254  1.941   .     S
O1244  Zn1255  1.941   .     S
O1245  Zn1252  1.941   .     S
O1246  Zn1253  1.936   .     S
O1247  Zn1254  1.931   .     S
O1248  Zn1253  1.934   .     S
O1249  Zn1255  1.934   .     S
O1250  Zn1254  1.929   .     S
O1251  Zn1252  1.928   .     S
O1256  C1257   1.411   .     S
C1257  C1260   1.522   .     S
C1257  H1259   1.109   .     S
C1257  H1258   1.115   .     S
C1260  H1261   1.111   .     S
C1260  H1262   1.109   .     S
C1260  H1263   1.111   .     S
S1264  O1265   1.502   .     D
S1264  O1266   1.504   .     D
S1264  C1317   1.781   .     S
S1264  O1360   1.682   .     S
H1268  O1360   0.990   .     S
O1269  C1505   1.396   .     S
O1269  C1549   1.414   .     S
C1270  H1272   1.113   .     S
C1270  H1271   1.115   .     S
C1273  H1276   1.111   .     S
C1273  H1274   1.109   .     S
C1273  C1549   1.520   .     S
C1273  H1554   1.110   .     S
O1277  C1278   1.411   .     S
O1277  C394    1.383   1_556 S
C1278  C1281   1.521   .     S
C1278  H1279   1.114   .     S
C1278  H443    1.114   1_556 S
C1281  H1284   1.111   .     S
C1281  H1283   1.110   .     S
C1281  H1282   1.111   .     S
S1285  O1288   1.681   .     S
S1285  O1287   1.503   .     D
S1285  O1286   1.504   .     D
O1288  H1289   0.990   .     S
O1290  C1291   1.416   .     S
C1291  H1293   1.112   .     S
C1291  C1294   1.520   .     S
C1291  H1292   1.115   .     S
C1294  H1295   1.108   .     S
C1294  H1296   1.110   .     S
C1294  H1297   1.111   .     S
S1298  O1300   1.500   .     D
S1298  O1301   1.681   .     S
O1299  S461    1.503   1_556 S
O1301  H1302   0.991   .     S
C1303  O1335   1.261   .     A
C1303  C1317   1.427   .     S
C1303  O1337   1.272   .     A
C1304  C1326   1.416   .     A
C1304  C468    1.409   1_556 S
C1304  S554    1.785   1_556 S
C1305  O1383   1.383   .     S
C1306  C1307   1.412   .     A
C1306  C468    1.422   1_556 S
C1306  C471    1.422   1_556 S
C1307  C1315   1.418   .     A
C1307  C1311   1.413   .     A
C1308  C1312   1.400   .     A
C1309  C1310   1.395   .     A
C1309  C471    1.418   1_556 S
C1309  C487    1.415   1_556 S
C1310  H1328   1.083   .     S
C1310  C1311   1.390   .     A
C1311  H1330   1.080   .     S
C1312  H1329   1.081   .     S
C1312  C1325   1.385   .     A
C1313  O1349   1.384   .     S
C1313  C1324   1.404   .     A
C1313  C1325   1.402   .     A
C1314  C1316   1.454   .     S
C1314  O1338   1.268   .     A
C1314  O1336   1.291   .     A
C1315  C1326   1.421   .     A
C1315  C1323   1.491   .     S
C1316  C1131   1.352   1_655 S
C1316  H1145   1.088   1_655 S
C1318  C1321   1.453   .     S
C1318  C1598   1.343   .     S
C1318  H1606   1.088   .     S
C1319  C1320   1.440   .     S
C1320  O1339   1.272   .     A
C1320  O1333   1.271   .     A
C1321  O1334   1.272   .     A
C1321  O1340   1.282   .     A
C1322  O1343   1.278   .     A
C1322  O1341   1.278   .     A
C1322  C1325   1.447   .     S
C1323  O1342   1.284   .     A
C1323  O1344   1.290   .     A
C1326  S1378   1.786   .     S
O1332  Zn1347  1.952   .     S
O1332  Zn1346  1.943   .     S
O1332  Zn1345  1.951   .     S
O1332  Zn1348  1.938   .     S
O1333  Zn1345  1.933   .     S
O1334  Zn1348  1.938   .     S
O1335  Zn1346  1.939   .     S
O1336  Zn1347  1.941   .     S
O1337  Zn1348  1.941   .     S
O1338  Zn1345  1.941   .     S
O1339  Zn1346  1.936   .     S
O1340  Zn1347  1.931   .     S
O1341  Zn1346  1.934   .     S
O1342  Zn1348  1.934   .     S
O1343  Zn1347  1.929   .     S
O1344  Zn1345  1.928   .     S
O1349  C1350   1.411   .     S
C1350  C1353   1.522   .     S
C1350  H1352   1.109   .     S
C1350  H1351   1.115   .     S
C1353  H1354   1.111   .     S
C1353  H1355   1.109   .     S
C1353  H1356   1.111   .     S
S1357  O1358   1.502   .     D
S1357  O1359   1.504   .     D
S1357  C1131   1.781   1_655 S
S1357  O1174   1.682   1_655 S
H1361  O1174   0.990   1_655 S
O1362  C1598   1.396   .     S
O1362  C1642   1.414   .     S
C1363  H1365   1.113   .     S
C1363  H1364   1.115   .     S
C1366  H1369   1.111   .     S
C1366  H1367   1.109   .     S
C1366  C1642   1.520   .     S
C1366  H1647   1.110   .     S
O1370  C1371   1.411   .     S
O1370  C487    1.383   1_556 S
C1371  C1374   1.521   .     S
C1371  H1372   1.114   .     S
C1371  H536    1.114   1_556 S
C1374  H1377   1.111   .     S
C1374  H1376   1.110   .     S
C1374  H1375   1.111   .     S
S1378  O1381   1.681   .     S
S1378  O1380   1.503   .     D
S1378  O1379   1.504   .     D
O1381  H1382   0.990   .     S
O1383  C1384   1.416   .     S
C1384  H1386   1.112   .     S
C1384  C1387   1.520   .     S
C1384  H1385   1.115   .     S
C1387  H1388   1.108   .     S
C1387  H1389   1.110   .     S
C1387  H1390   1.111   .     S
S1391  O1393   1.500   .     D
S1391  O1394   1.681   .     S
O1392  S554    1.503   1_556 S
O1394  H1395   0.991   .     S
C1396  O1428   1.261   .     A
C1396  C1410   1.427   .     S
C1396  O1430   1.272   .     A
C1397  C1419   1.416   .     A
C1397  C561    1.409   1_556 S
C1397  S647    1.785   1_556 S
C1398  O1476   1.383   .     S
C1399  C1400   1.412   .     A
C1399  C561    1.422   1_556 S
C1399  C564    1.422   1_556 S
C1400  C1408   1.418   .     A
C1400  C1404   1.413   .     A
C1401  C1405   1.400   .     A
C1402  C1403   1.395   .     A
C1402  C564    1.418   1_556 S
C1402  C580    1.415   1_556 S
C1403  H1421   1.083   .     S
C1403  C1404   1.390   .     A
C1404  H1423   1.080   .     S
C1405  H1422   1.081   .     S
C1405  C1418   1.385   .     A
C1406  O1442   1.384   .     S
C1406  C1417   1.404   .     A
C1406  C1418   1.402   .     A
C1407  C1409   1.454   .     S
C1407  O1431   1.268   .     A
C1407  O1429   1.291   .     A
C1408  C1419   1.421   .     A
C1408  C1416   1.491   .     S
C1409  C1503   1.352   .     S
C1409  H1517   1.088   .     S
C1410  C1595   1.352   1_455 S
C1410  S1636   1.781   1_455 S
C1411  C1414   1.453   .     S
C1411  C854    1.343   1_565 S
C1411  H862    1.088   1_565 S
C1412  C1413   1.440   .     S
C1413  O1432   1.272   .     A
C1413  O1426   1.271   .     A
C1414  O1427   1.272   .     A
C1414  O1433   1.282   .     A
C1415  O1436   1.278   .     A
C1415  O1434   1.278   .     A
C1415  C1418   1.447   .     S
C1416  O1435   1.284   .     A
C1416  O1437   1.290   .     A
C1419  S1471   1.786   .     S
H1424  C1595   1.088   1_455 S
O1425  Zn1440  1.952   .     S
O1425  Zn1439  1.943   .     S
O1425  Zn1438  1.951   .     S
O1425  Zn1441  1.938   .     S
O1426  Zn1438  1.933   .     S
O1427  Zn1441  1.938   .     S
O1428  Zn1439  1.939   .     S
O1429  Zn1440  1.941   .     S
O1430  Zn1441  1.941   .     S
O1431  Zn1438  1.941   .     S
O1432  Zn1439  1.936   .     S
O1433  Zn1440  1.931   .     S
O1434  Zn1439  1.934   .     S
O1435  Zn1441  1.934   .     S
O1436  Zn1440  1.929   .     S
O1437  Zn1438  1.928   .     S
O1442  C1443   1.411   .     S
C1443  C1446   1.522   .     S
C1443  H1445   1.109   .     S
C1443  H1444   1.115   .     S
C1446  H1447   1.111   .     S
C1446  H1448   1.109   .     S
C1446  H1449   1.111   .     S
S1450  O1451   1.502   .     D
S1450  O1452   1.504   .     D
S1450  C1503   1.781   .     S
S1450  O1546   1.682   .     S
O1453  S1636   1.682   1_455 S
O1453  H1640   0.990   1_455 S
H1454  O1546   0.990   .     S
O1455  C854    1.396   1_565 S
O1455  C898    1.414   1_565 S
C1456  H1458   1.113   .     S
C1456  H1457   1.115   .     S
C1459  H1462   1.111   .     S
C1459  H1460   1.109   .     S
C1459  C898    1.520   1_565 S
C1459  H903    1.110   1_565 S
O1463  C1464   1.411   .     S
O1463  C580    1.383   1_556 S
C1464  C1467   1.521   .     S
C1464  H1465   1.114   .     S
C1464  H629    1.114   1_556 S
C1467  H1470   1.111   .     S
C1467  H1469   1.110   .     S
C1467  H1468   1.111   .     S
S1471  O1474   1.681   .     S
S1471  O1473   1.503   .     D
S1471  O1472   1.504   .     D
O1474  H1475   0.990   .     S
O1476  C1477   1.416   .     S
C1477  H1479   1.112   .     S
C1477  C1480   1.520   .     S
C1477  H1478   1.115   .     S
C1480  H1481   1.108   .     S
C1480  H1482   1.110   .     S
C1480  H1483   1.111   .     S
S1484  O1486   1.500   .     D
S1484  O1487   1.681   .     S
O1485  S647    1.503   1_556 S
O1487  H1488   0.991   .     S
C1489  O1521   1.261   .     A
C1489  C1503   1.427   .     S
C1489  O1523   1.272   .     A
C1490  C1512   1.416   .     A
C1490  C654    1.409   1_556 S
C1490  S740    1.785   1_556 S
C1491  O1569   1.383   .     S
C1492  C1493   1.412   .     A
C1492  C654    1.422   1_556 S
C1492  C657    1.422   1_556 S
C1493  C1501   1.418   .     A
C1493  C1497   1.413   .     A
C1494  C1498   1.400   .     A
C1495  C1496   1.395   .     A
C1495  C657    1.418   1_556 S
C1495  C673    1.415   1_556 S
C1496  H1514   1.083   .     S
C1496  C1497   1.390   .     A
C1497  H1516   1.080   .     S
C1498  H1515   1.081   .     S
C1498  C1511   1.385   .     A
C1499  O1535   1.384   .     S
C1499  C1510   1.404   .     A
C1499  C1511   1.402   .     A
C1500  C1502   1.454   .     S
C1500  O1524   1.268   .     A
C1500  O1522   1.291   .     A
C1501  C1512   1.421   .     A
C1501  C1509   1.491   .     S
C1502  C1596   1.352   .     S
C1502  H1610   1.088   .     S
C1504  C1507   1.453   .     S
C1504  C947    1.343   1_565 S
C1504  H955    1.088   1_565 S
C1505  C1506   1.440   .     S
C1506  O1525   1.272   .     A
C1506  O1519   1.271   .     A
C1507  O1520   1.272   .     A
C1507  O1526   1.282   .     A
C1508  O1529   1.278   .     A
C1508  O1527   1.278   .     A
C1508  C1511   1.447   .     S
C1509  O1528   1.284   .     A
C1509  O1530   1.290   .     A
C1512  S1564   1.786   .     S
O1518  Zn1533  1.952   .     S
O1518  Zn1532  1.943   .     S
O1518  Zn1531  1.951   .     S
O1518  Zn1534  1.938   .     S
O1519  Zn1531  1.933   .     S
O1520  Zn1534  1.938   .     S
O1521  Zn1532  1.939   .     S
O1522  Zn1533  1.941   .     S
O1523  Zn1534  1.941   .     S
O1524  Zn1531  1.941   .     S
O1525  Zn1532  1.936   .     S
O1526  Zn1533  1.931   .     S
O1527  Zn1532  1.934   .     S
O1528  Zn1534  1.934   .     S
O1529  Zn1533  1.929   .     S
O1530  Zn1531  1.928   .     S
O1535  C1536   1.411   .     S
C1536  C1539   1.522   .     S
C1536  H1538   1.109   .     S
C1536  H1537   1.115   .     S
C1539  H1540   1.111   .     S
C1539  H1541   1.109   .     S
C1539  H1542   1.111   .     S
S1543  O1544   1.502   .     D
S1543  O1545   1.504   .     D
S1543  C1596   1.781   .     S
S1543  O1639   1.682   .     S
H1547  O1639   0.990   .     S
O1548  C947    1.396   1_565 S
O1548  C991    1.414   1_565 S
C1549  H1551   1.113   .     S
C1549  H1550   1.115   .     S
C1552  H1555   1.111   .     S
C1552  H1553   1.109   .     S
C1552  C991    1.520   1_565 S
C1552  H996    1.110   1_565 S
O1556  C1557   1.411   .     S
O1556  C673    1.383   1_556 S
C1557  C1560   1.521   .     S
C1557  H1558   1.114   .     S
C1557  H722    1.114   1_556 S
C1560  H1563   1.111   .     S
C1560  H1562   1.110   .     S
C1560  H1561   1.111   .     S
S1564  O1567   1.681   .     S
S1564  O1566   1.503   .     D
S1564  O1565   1.504   .     D
O1567  H1568   0.990   .     S
O1569  C1570   1.416   .     S
C1570  H1572   1.112   .     S
C1570  C1573   1.520   .     S
C1570  H1571   1.115   .     S
C1573  H1574   1.108   .     S
C1573  H1575   1.110   .     S
C1573  H1576   1.111   .     S
S1577  O1579   1.500   .     D
S1577  O1580   1.681   .     S
O1578  S740    1.503   1_556 S
O1580  H1581   0.991   .     S
C1582  O1614   1.261   .     A
C1582  C1596   1.427   .     S
C1582  O1616   1.272   .     A
C1583  C1605   1.416   .     A
C1583  C747    1.409   1_556 S
C1583  S833    1.785   1_556 S
C1584  O1662   1.383   .     S
C1585  C1586   1.412   .     A
C1585  C747    1.422   1_556 S
C1585  C750    1.422   1_556 S
C1586  C1594   1.418   .     A
C1586  C1590   1.413   .     A
C1587  C1591   1.400   .     A
C1588  C1589   1.395   .     A
C1588  C750    1.418   1_556 S
C1588  C766    1.415   1_556 S
C1589  H1607   1.083   .     S
C1589  C1590   1.390   .     A
C1590  H1609   1.080   .     S
C1591  H1608   1.081   .     S
C1591  C1604   1.385   .     A
C1592  O1628   1.384   .     S
C1592  C1603   1.404   .     A
C1592  C1604   1.402   .     A
C1593  C1595   1.454   .     S
C1593  O1617   1.268   .     A
C1593  O1615   1.291   .     A
C1594  C1605   1.421   .     A
C1594  C1602   1.491   .     S
C1595  C1410   1.352   1_655 S
C1595  H1424   1.088   1_655 S
C1597  C1600   1.453   .     S
C1597  C1040   1.343   1_565 S
C1597  H1048   1.088   1_565 S
C1598  C1599   1.440   .     S
C1599  O1618   1.272   .     A
C1599  O1612   1.271   .     A
C1600  O1613   1.272   .     A
C1600  O1619   1.282   .     A
C1601  O1622   1.278   .     A
C1601  O1620   1.278   .     A
C1601  C1604   1.447   .     S
C1602  O1621   1.284   .     A
C1602  O1623   1.290   .     A
C1605  S1657   1.786   .     S
O1611  Zn1626  1.952   .     S
O1611  Zn1625  1.943   .     S
O1611  Zn1624  1.951   .     S
O1611  Zn1627  1.938   .     S
O1612  Zn1624  1.933   .     S
O1613  Zn1627  1.938   .     S
O1614  Zn1625  1.939   .     S
O1615  Zn1626  1.941   .     S
O1616  Zn1627  1.941   .     S
O1617  Zn1624  1.941   .     S
O1618  Zn1625  1.936   .     S
O1619  Zn1626  1.931   .     S
O1620  Zn1625  1.934   .     S
O1621  Zn1627  1.934   .     S
O1622  Zn1626  1.929   .     S
O1623  Zn1624  1.928   .     S
O1628  C1629   1.411   .     S
C1629  C1632   1.522   .     S
C1629  H1631   1.109   .     S
C1629  H1630   1.115   .     S
C1632  H1633   1.111   .     S
C1632  H1634   1.109   .     S
C1632  H1635   1.111   .     S
S1636  O1637   1.502   .     D
S1636  O1638   1.504   .     D
S1636  C1410   1.781   1_655 S
S1636  O1453   1.682   1_655 S
H1640  O1453   0.990   1_655 S
O1641  C1040   1.396   1_565 S
O1641  C1084   1.414   1_565 S
C1642  H1644   1.113   .     S
C1642  H1643   1.115   .     S
C1645  H1648   1.111   .     S
C1645  H1646   1.109   .     S
C1645  C1084   1.520   1_565 S
C1645  H1089   1.110   1_565 S
O1649  C1650   1.411   .     S
O1649  C766    1.383   1_556 S
C1650  C1653   1.521   .     S
C1650  H1651   1.114   .     S
C1650  H815    1.114   1_556 S
C1653  H1656   1.111   .     S
C1653  H1655   1.110   .     S
C1653  H1654   1.111   .     S
S1657  O1660   1.681   .     S
S1657  O1659   1.503   .     D
S1657  O1658   1.504   .     D
O1660  H1661   0.990   .     S
O1662  C1663   1.416   .     S
C1663  H1665   1.112   .     S
C1663  C1666   1.520   .     S
C1663  H1664   1.115   .     S
C1666  H1667   1.108   .     S
C1666  H1668   1.110   .     S
C1666  H1669   1.111   .     S
S1670  O1672   1.500   .     D
S1670  O1673   1.681   .     S
O1671  S833    1.503   1_556 S
O1673  H1674   0.991   .     S
