data_str_m1_o1_o17_pcu_sym.78
_audit_creation_date              2020-01-03
_audit_creation_method            'Materials Studio'
_symmetry_space_group_name_H-M    'P1'
_symmetry_Int_Tables_number       1
_symmetry_cell_setting            triclinic
loop_
_symmetry_equiv_pos_as_xyz
  x,y,z
_cell_length_a                    36.6630
_cell_length_b                    36.6630
_cell_length_c                    34.5122
_cell_angle_alpha                 90.0000
_cell_angle_beta                  90.0000
_cell_angle_gamma                 90.0000
loop_
_atom_site_label
_atom_site_type_symbol
_atom_site_fract_x
_atom_site_fract_y
_atom_site_fract_z
_atom_site_U_iso_or_equiv
_atom_site_adp_type
_atom_site_occupancy
C1     C     0.02104   0.27598   0.41829   0.00000  Uiso   1.00
C2     C     0.27103   0.47402   0.08171   0.00000  Uiso   1.00
C3     C     0.22404   0.02119   0.54094   0.00000  Uiso   1.00
C4     C     0.02119   0.27596   0.45906   0.00000  Uiso   1.00
C5     C     0.47881   0.22404   0.54094   0.00000  Uiso   1.00
C6     C     0.22404   0.02119   0.45906   0.00000  Uiso   1.00
C7     C     0.27596   0.47881   0.54094   0.00000  Uiso   1.00
C8     C     0.27119   0.47404   0.95906   0.00000  Uiso   1.00
C9     C     0.22881   0.02596   0.04094   0.00000  Uiso   1.00
C10    C     0.02596   0.27119   0.95906   0.00000  Uiso   1.00
C11    C     0.47404   0.22881   0.04094   0.00000  Uiso   1.00
C12    C     0.22881   0.02596   0.95906   0.00000  Uiso   1.00
C13    C     0.47401   0.22897   0.91829   0.00000  Uiso   1.00
C14    C     0.27119   0.47404   0.04094   0.00000  Uiso   1.00
C15    C     0.47404   0.22881   0.95906   0.00000  Uiso   1.00
C16    C     0.02596   0.27119   0.04094   0.00000  Uiso   1.00
C17    C     0.09812   0.34813   0.25000   0.00000  Uiso   1.00
C18    C     0.40187   0.15188   0.75000   0.00000  Uiso   1.00
C19    C     0.15187   0.09813   0.25000   0.00000  Uiso   1.00
C20    C     0.34812   0.40188   0.75000   0.00000  Uiso   1.00
C21    C     0.40187   0.15188   0.25000   0.00000  Uiso   1.00
C22    C     0.09812   0.34813   0.75000   0.00000  Uiso   1.00
C23    C     0.34812   0.40188   0.25000   0.00000  Uiso   1.00
C24    C     0.02598   0.27103   0.08171   0.00000  Uiso   1.00
C25    C     0.15187   0.09813   0.75000   0.00000  Uiso   1.00
C26    C     0.09813   0.15187   0.75000   0.00000  Uiso   1.00
C27    C     0.40187   0.34813   0.25000   0.00000  Uiso   1.00
C28    C     0.15187   0.40187   0.75000   0.00000  Uiso   1.00
C29    C     0.34813   0.09813   0.25000   0.00000  Uiso   1.00
C30    C     0.40187   0.34813   0.75000   0.00000  Uiso   1.00
C31    C     0.09813   0.15187   0.25000   0.00000  Uiso   1.00
C32    C     0.34813   0.09813   0.75000   0.00000  Uiso   1.00
C33    C     0.15187   0.40187   0.25000   0.00000  Uiso   1.00
C34    C    -0.00000   0.25000   0.47949   0.00000  Uiso   1.00
C35    C     0.27103   0.47402   0.91829   0.00000  Uiso   1.00
C36    C    -0.00000   0.25000   0.52052   0.00000  Uiso   1.00
C37    C     0.25000   0.00000   0.47949   0.00000  Uiso   1.00
C38    C     0.25000   0.00000   0.52052   0.00000  Uiso   1.00
C39    C     0.25000   0.00000   0.97949   0.00000  Uiso   1.00
C40    C     0.25000   0.00000   0.02052   0.00000  Uiso   1.00
C41    C    -0.00000   0.25000   0.97949   0.00000  Uiso   1.00
C42    C    -0.00000   0.25000   0.02052   0.00000  Uiso   1.00
C43    C     0.04150   0.30333   0.39687   0.00000  Uiso   1.00
C44    C     0.45849   0.19667   0.60313   0.00000  Uiso   1.00
C45    C     0.19666   0.04150   0.39687   0.00000  Uiso   1.00
C46    C     0.22896   0.02598   0.08171   0.00000  Uiso   1.00
C47    C     0.30334   0.45850   0.60313   0.00000  Uiso   1.00
C48    C     0.45849   0.19667   0.39687   0.00000  Uiso   1.00
C49    C     0.04150   0.30333   0.60313   0.00000  Uiso   1.00
C50    C     0.30334   0.45850   0.39687   0.00000  Uiso   1.00
C51    C     0.19666   0.04150   0.60313   0.00000  Uiso   1.00
C52    C     0.20850   0.05334   0.89687   0.00000  Uiso   1.00
C53    C     0.29150   0.44666   0.10313   0.00000  Uiso   1.00
C54    C     0.44666   0.20850   0.89687   0.00000  Uiso   1.00
C55    C     0.05334   0.29150   0.10313   0.00000  Uiso   1.00
C56    C     0.29150   0.44666   0.89687   0.00000  Uiso   1.00
C57    C     0.02598   0.27103   0.91829   0.00000  Uiso   1.00
C58    C     0.20850   0.05334   0.10313   0.00000  Uiso   1.00
C59    C     0.05334   0.29150   0.89687   0.00000  Uiso   1.00
C60    C     0.44666   0.20850   0.10313   0.00000  Uiso   1.00
C61    C     0.47401   0.22897   0.08171   0.00000  Uiso   1.00
C62    C    -0.00000   0.25000   0.39814   0.00000  Uiso   1.00
C63    C    -0.00000   0.25000   0.60186   0.00000  Uiso   1.00
C64    C     0.25000   0.00000   0.39814   0.00000  Uiso   1.00
C65    C     0.47896   0.22402   0.58171   0.00000  Uiso   1.00
C66    C     0.25000   0.00000   0.60186   0.00000  Uiso   1.00
C67    C     0.25000   0.00000   0.89814   0.00000  Uiso   1.00
C68    C     0.25000   0.00000   0.10186   0.00000  Uiso   1.00
C69    C    -0.00000   0.25000   0.89814   0.00000  Uiso   1.00
C70    C    -0.00000   0.25000   0.10186   0.00000  Uiso   1.00
C71    C     0.45797   0.19857   0.47994   0.00000  Uiso   1.00
C72    C     0.04203   0.30143   0.52007   0.00000  Uiso   1.00
C73    C     0.30143   0.45797   0.47994   0.00000  Uiso   1.00
C74    C     0.19857   0.04203   0.52007   0.00000  Uiso   1.00
C75    C     0.04203   0.30143   0.47994   0.00000  Uiso   1.00
C76    C     0.22402   0.02103   0.41829   0.00000  Uiso   1.00
C77    C     0.45797   0.19857   0.52007   0.00000  Uiso   1.00
C78    C     0.19857   0.04203   0.47994   0.00000  Uiso   1.00
C79    C     0.30143   0.45797   0.52007   0.00000  Uiso   1.00
C80    C     0.29203   0.44857   0.97994   0.00000  Uiso   1.00
C81    C     0.20797   0.05143   0.02007   0.00000  Uiso   1.00
C82    C     0.05143   0.29203   0.97994   0.00000  Uiso   1.00
C83    C     0.44857   0.20797   0.02007   0.00000  Uiso   1.00
C84    C     0.20797   0.05143   0.97994   0.00000  Uiso   1.00
C85    C     0.29203   0.44857   0.02007   0.00000  Uiso   1.00
C86    C     0.44857   0.20797   0.97994   0.00000  Uiso   1.00
C87    C     0.27598   0.47897   0.58171   0.00000  Uiso   1.00
C88    C     0.05143   0.29203   0.02007   0.00000  Uiso   1.00
C89    C     0.25000   0.00000   0.35575   0.00000  Uiso   1.00
C90    C     0.25000   0.00000   0.64425   0.00000  Uiso   1.00
C91    C     0.00000   0.25000   0.35575   0.00000  Uiso   1.00
C92    C    -0.00000   0.25000   0.64425   0.00000  Uiso   1.00
C93    C    -0.00000   0.25000   0.85575   0.00000  Uiso   1.00
C94    C    -0.00000   0.25000   0.14425   0.00000  Uiso   1.00
C95    C     0.25000   0.00000   0.85575   0.00000  Uiso   1.00
C96    C     0.25000   0.00000   0.14425   0.00000  Uiso   1.00
C97    C     0.17995   0.07005   0.25000   0.00000  Uiso   1.00
C98    C     0.47896   0.22402   0.41829   0.00000  Uiso   1.00
C99    C     0.32005   0.42995   0.75000   0.00000  Uiso   1.00
C100   C     0.42995   0.17995   0.25000   0.00000  Uiso   1.00
C101   C     0.07005   0.32005   0.75000   0.00000  Uiso   1.00
C102   C     0.32005   0.42995   0.25000   0.00000  Uiso   1.00
C103   C     0.17995   0.07005   0.75000   0.00000  Uiso   1.00
C104   C     0.07005   0.32005   0.25000   0.00000  Uiso   1.00
C105   C     0.42995   0.17995   0.75000   0.00000  Uiso   1.00
C106   C     0.17994   0.42994   0.75000   0.00000  Uiso   1.00
C107   C     0.32006   0.07006   0.25000   0.00000  Uiso   1.00
C108   C     0.42994   0.32006   0.75000   0.00000  Uiso   1.00
C109   C     0.02104   0.27598   0.58171   0.00000  Uiso   1.00
C110   C     0.07006   0.17994   0.25000   0.00000  Uiso   1.00
C111   C     0.32006   0.07006   0.75000   0.00000  Uiso   1.00
C112   C     0.17994   0.42994   0.25000   0.00000  Uiso   1.00
C113   C     0.07006   0.17994   0.75000   0.00000  Uiso   1.00
C114   C     0.42994   0.32006   0.25000   0.00000  Uiso   1.00
C115   C     0.12241   0.40431   0.22424   0.00000  Uiso   1.00
C116   C     0.37759   0.09569   0.77577   0.00000  Uiso   1.00
C117   C     0.09569   0.12241   0.22424   0.00000  Uiso   1.00
C118   C     0.40431   0.37759   0.77577   0.00000  Uiso   1.00
C119   C     0.37759   0.09569   0.22424   0.00000  Uiso   1.00
C120   C     0.27598   0.47897   0.41829   0.00000  Uiso   1.00
C121   C     0.12241   0.40431   0.77577   0.00000  Uiso   1.00
C122   C     0.40431   0.37759   0.22424   0.00000  Uiso   1.00
C123   C     0.09569   0.12241   0.77577   0.00000  Uiso   1.00
C124   C     0.12243   0.09569   0.77578   0.00000  Uiso   1.00
C125   C     0.37757   0.40431   0.22423   0.00000  Uiso   1.00
C126   C     0.09569   0.37757   0.77578   0.00000  Uiso   1.00
C127   C     0.40431   0.12243   0.22423   0.00000  Uiso   1.00
C128   C     0.37757   0.40431   0.77578   0.00000  Uiso   1.00
C129   C     0.12243   0.09569   0.22423   0.00000  Uiso   1.00
C130   C     0.40431   0.12243   0.77578   0.00000  Uiso   1.00
C131   C     0.22402   0.02103   0.58171   0.00000  Uiso   1.00
C132   C     0.09569   0.37757   0.22423   0.00000  Uiso   1.00
C133   C     0.37243   0.15431   0.72423   0.00000  Uiso   1.00
C134   C     0.12757   0.34569   0.27578   0.00000  Uiso   1.00
C135   C     0.34569   0.37243   0.72423   0.00000  Uiso   1.00
C136   C     0.15431   0.12757   0.27578   0.00000  Uiso   1.00
C137   C     0.12757   0.34569   0.72423   0.00000  Uiso   1.00
C138   C     0.37243   0.15431   0.27578   0.00000  Uiso   1.00
C139   C     0.15431   0.12757   0.72423   0.00000  Uiso   1.00
C140   C     0.34569   0.37243   0.27578   0.00000  Uiso   1.00
C141   C     0.37241   0.34569   0.27577   0.00000  Uiso   1.00
C142   C     0.22896   0.02598   0.91829   0.00000  Uiso   1.00
C143   C     0.12759   0.15431   0.72424   0.00000  Uiso   1.00
C144   C     0.34569   0.12759   0.27577   0.00000  Uiso   1.00
C145   C     0.15431   0.37241   0.72424   0.00000  Uiso   1.00
C146   C     0.12759   0.15431   0.27577   0.00000  Uiso   1.00
C147   C     0.37241   0.34569   0.72424   0.00000  Uiso   1.00
C148   C     0.15431   0.37241   0.27577   0.00000  Uiso   1.00
C149   C     0.34569   0.12759   0.72424   0.00000  Uiso   1.00
C150   C     0.47881   0.22404   0.45906   0.00000  Uiso   1.00
C151   C     0.02119   0.27596   0.54094   0.00000  Uiso   1.00
C152   C     0.27596   0.47881   0.45906   0.00000  Uiso   1.00
H153   H     0.44133   0.17833   0.46548   0.00000  Uiso   1.00
H154   H     0.19134   0.07167   0.03452   0.00000  Uiso   1.00
H155   H     0.07167   0.30866   0.96548   0.00000  Uiso   1.00
H156   H     0.42833   0.19134   0.03452   0.00000  Uiso   1.00
H157   H     0.19134   0.07167   0.96548   0.00000  Uiso   1.00
H158   H     0.30866   0.42833   0.03452   0.00000  Uiso   1.00
H159   H     0.42833   0.19134   0.96548   0.00000  Uiso   1.00
H160   H     0.07167   0.30866   0.03452   0.00000  Uiso   1.00
H161   H     0.12000   0.42681   0.20406   0.00000  Uiso   1.00
H162   H     0.38000   0.07319   0.79594   0.00000  Uiso   1.00
H163   H     0.07319   0.12000   0.20406   0.00000  Uiso   1.00
H164   H     0.05867   0.32167   0.53452   0.00000  Uiso   1.00
H165   H     0.42681   0.38000   0.79594   0.00000  Uiso   1.00
H166   H     0.38000   0.07319   0.20406   0.00000  Uiso   1.00
H167   H     0.12000   0.42681   0.79594   0.00000  Uiso   1.00
H168   H     0.42681   0.38000   0.20406   0.00000  Uiso   1.00
H169   H     0.07319   0.12000   0.79594   0.00000  Uiso   1.00
H170   H     0.12003   0.07319   0.79597   0.00000  Uiso   1.00
H171   H     0.37997   0.42681   0.20404   0.00000  Uiso   1.00
H172   H     0.07319   0.37997   0.79597   0.00000  Uiso   1.00
H173   H     0.42681   0.12003   0.20404   0.00000  Uiso   1.00
H174   H     0.37997   0.42681   0.79597   0.00000  Uiso   1.00
H175   H     0.32167   0.44134   0.46548   0.00000  Uiso   1.00
H176   H     0.12003   0.07319   0.20404   0.00000  Uiso   1.00
H177   H     0.42681   0.12003   0.79597   0.00000  Uiso   1.00
H178   H     0.07319   0.37997   0.20404   0.00000  Uiso   1.00
H179   H     0.37003   0.17681   0.70404   0.00000  Uiso   1.00
H180   H     0.12997   0.32319   0.29597   0.00000  Uiso   1.00
H181   H     0.32319   0.37003   0.70404   0.00000  Uiso   1.00
H182   H     0.17681   0.12997   0.29597   0.00000  Uiso   1.00
H183   H     0.12997   0.32319   0.70404   0.00000  Uiso   1.00
H184   H     0.37003   0.17681   0.29597   0.00000  Uiso   1.00
H185   H     0.17681   0.12997   0.70404   0.00000  Uiso   1.00
H186   H     0.17833   0.05866   0.53452   0.00000  Uiso   1.00
H187   H     0.32319   0.37003   0.29597   0.00000  Uiso   1.00
H188   H     0.37000   0.32319   0.29594   0.00000  Uiso   1.00
H189   H     0.13000   0.17681   0.70406   0.00000  Uiso   1.00
H190   H     0.32319   0.13000   0.29594   0.00000  Uiso   1.00
H191   H     0.17681   0.37000   0.70406   0.00000  Uiso   1.00
H192   H     0.13000   0.17681   0.29594   0.00000  Uiso   1.00
H193   H     0.37000   0.32319   0.70406   0.00000  Uiso   1.00
H194   H     0.17681   0.37000   0.29594   0.00000  Uiso   1.00
H195   H     0.32319   0.13000   0.70406   0.00000  Uiso   1.00
H196   H     0.05867   0.32167   0.46548   0.00000  Uiso   1.00
H197   H     0.44133   0.17833   0.53452   0.00000  Uiso   1.00
H198   H     0.17833   0.05866   0.46548   0.00000  Uiso   1.00
H199   H     0.32167   0.44134   0.53452   0.00000  Uiso   1.00
H200   H     0.30866   0.42833   0.96548   0.00000  Uiso   1.00
N201   N     0.05778   0.32509   0.37978   0.00000  Uiso   1.00
N202   N     0.30778   0.42491   0.12022   0.00000  Uiso   1.00
N203   N     0.42491   0.19222   0.87978   0.00000  Uiso   1.00
N204   N     0.07509   0.30778   0.12022   0.00000  Uiso   1.00
N205   N     0.30778   0.42491   0.87978   0.00000  Uiso   1.00
N206   N     0.19222   0.07509   0.12022   0.00000  Uiso   1.00
N207   N     0.07509   0.30778   0.87978   0.00000  Uiso   1.00
N208   N     0.42491   0.19222   0.12022   0.00000  Uiso   1.00
N209   N     0.44222   0.17491   0.62022   0.00000  Uiso   1.00
N210   N     0.17491   0.05778   0.37978   0.00000  Uiso   1.00
N211   N     0.32509   0.44222   0.62022   0.00000  Uiso   1.00
N212   N     0.44222   0.17491   0.37978   0.00000  Uiso   1.00
N213   N     0.05778   0.32509   0.62022   0.00000  Uiso   1.00
N214   N     0.32509   0.44222   0.37978   0.00000  Uiso   1.00
N215   N     0.17491   0.05778   0.62022   0.00000  Uiso   1.00
N216   N     0.19222   0.07509   0.87978   0.00000  Uiso   1.00
O217   O     0.25000   0.00000   0.25000   0.00000  Uiso   1.00
O218   O     0.25000   0.46964   0.66245   0.00000  Uiso   1.00
O219   O     0.46963   0.25000   0.33755   0.00000  Uiso   1.00
O220   O     0.03036   0.25000   0.66245   0.00000  Uiso   1.00
O221   O    -0.00000   0.21964   0.83755   0.00000  Uiso   1.00
O222   O    -0.00000   0.28037   0.16245   0.00000  Uiso   1.00
O223   O     0.28036   0.00000   0.83755   0.00000  Uiso   1.00
O224   O     0.21963   0.00000   0.16245   0.00000  Uiso   1.00
O225   O    -0.00000   0.28037   0.83755   0.00000  Uiso   1.00
O226   O    -0.00000   0.21964   0.16245   0.00000  Uiso   1.00
O227   O     0.21963   0.00000   0.83755   0.00000  Uiso   1.00
O228   O     0.25000   0.00000   0.75000   0.00000  Uiso   1.00
O229   O     0.28036   0.00000   0.16245   0.00000  Uiso   1.00
O230   O     0.20724   0.07308   0.27302   0.00000  Uiso   1.00
O231   O     0.29275   0.42693   0.72698   0.00000  Uiso   1.00
O232   O     0.42692   0.20725   0.27302   0.00000  Uiso   1.00
O233   O     0.07307   0.29276   0.72698   0.00000  Uiso   1.00
O234   O     0.29275   0.42693   0.27302   0.00000  Uiso   1.00
O235   O     0.20724   0.07308   0.72698   0.00000  Uiso   1.00
O236   O     0.07307   0.29276   0.27302   0.00000  Uiso   1.00
O237   O     0.42692   0.20725   0.72698   0.00000  Uiso   1.00
O238   O     0.20724   0.42693   0.72698   0.00000  Uiso   1.00
O239   O    -0.00000   0.25000   0.25000   0.00000  Uiso   1.00
O240   O     0.29275   0.07308   0.27302   0.00000  Uiso   1.00
O241   O     0.42692   0.29276   0.72698   0.00000  Uiso   1.00
O242   O     0.07307   0.20725   0.27302   0.00000  Uiso   1.00
O243   O     0.29275   0.07308   0.72698   0.00000  Uiso   1.00
O244   O     0.20724   0.42693   0.27302   0.00000  Uiso   1.00
O245   O     0.07307   0.20725   0.72698   0.00000  Uiso   1.00
O246   O     0.42692   0.29276   0.27302   0.00000  Uiso   1.00
O247   O     0.45724   0.32308   0.77302   0.00000  Uiso   1.00
O248   O     0.04275   0.17693   0.22698   0.00000  Uiso   1.00
O249   O     0.17692   0.45725   0.77302   0.00000  Uiso   1.00
O250   O    -0.00000   0.25000   0.75000   0.00000  Uiso   1.00
O251   O     0.32307   0.04276   0.22698   0.00000  Uiso   1.00
O252   O     0.04275   0.17693   0.77302   0.00000  Uiso   1.00
O253   O     0.45724   0.32308   0.22698   0.00000  Uiso   1.00
O254   O     0.32307   0.04276   0.77302   0.00000  Uiso   1.00
O255   O     0.17692   0.45725   0.22698   0.00000  Uiso   1.00
O256   O     0.45724   0.17693   0.22698   0.00000  Uiso   1.00
O257   O     0.04275   0.32308   0.77302   0.00000  Uiso   1.00
O258   O     0.17692   0.04276   0.22698   0.00000  Uiso   1.00
O259   O     0.32307   0.45725   0.77302   0.00000  Uiso   1.00
O260   O     0.04275   0.32308   0.22698   0.00000  Uiso   1.00
O261   O     0.25000   0.46964   0.33755   0.00000  Uiso   1.00
O262   O     0.45724   0.17693   0.77302   0.00000  Uiso   1.00
O263   O     0.32307   0.45725   0.22698   0.00000  Uiso   1.00
O264   O     0.17692   0.04276   0.77302   0.00000  Uiso   1.00
O265   O     0.25000   0.03037   0.66245   0.00000  Uiso   1.00
O266   O     0.03036   0.25000   0.33755   0.00000  Uiso   1.00
O267   O     0.46963   0.25000   0.66245   0.00000  Uiso   1.00
O268   O     0.25000   0.03037   0.33755   0.00000  Uiso   1.00
Zn269  Zn    0.20659   0.00000   0.21735   0.00000  Uiso   1.00
Zn270  Zn    0.04340   0.25000   0.28265   0.00000  Uiso   1.00
Zn271  Zn    0.25000   0.45660   0.71735   0.00000  Uiso   1.00
Zn272  Zn    0.25000   0.04341   0.28265   0.00000  Uiso   1.00
Zn273  Zn    0.04340   0.25000   0.71735   0.00000  Uiso   1.00
Zn274  Zn    0.45659   0.25000   0.28265   0.00000  Uiso   1.00
Zn275  Zn    0.25000   0.04341   0.71735   0.00000  Uiso   1.00
Zn276  Zn    0.25000   0.45660   0.28265   0.00000  Uiso   1.00
Zn277  Zn    0.29340   0.00000   0.78265   0.00000  Uiso   1.00
Zn278  Zn   -0.00000   0.20660   0.21735   0.00000  Uiso   1.00
Zn279  Zn   -0.00000   0.29341   0.78265   0.00000  Uiso   1.00
Zn280  Zn    0.29340   0.00000   0.21735   0.00000  Uiso   1.00
Zn281  Zn    0.20659   0.00000   0.78265   0.00000  Uiso   1.00
Zn282  Zn    0.00000   0.29341   0.21735   0.00000  Uiso   1.00
Zn283  Zn   -0.00000   0.20660   0.78265   0.00000  Uiso   1.00
Zn284  Zn    0.45659   0.25000   0.71735   0.00000  Uiso   1.00
C285   C     0.52104   0.27598   0.41829   0.00000  Uiso   1.00
C286   C     0.77103   0.47402   0.08171   0.00000  Uiso   1.00
C287   C     0.72404   0.02119   0.54094   0.00000  Uiso   1.00
C288   C     0.52119   0.27596   0.45906   0.00000  Uiso   1.00
C289   C     0.97881   0.22404   0.54094   0.00000  Uiso   1.00
C290   C     0.72404   0.02119   0.45906   0.00000  Uiso   1.00
C291   C     0.77596   0.47881   0.54094   0.00000  Uiso   1.00
C292   C     0.77119   0.47404   0.95906   0.00000  Uiso   1.00
C293   C     0.72881   0.02596   0.04094   0.00000  Uiso   1.00
C294   C     0.52596   0.27119   0.95906   0.00000  Uiso   1.00
C295   C     0.97404   0.22881   0.04094   0.00000  Uiso   1.00
C296   C     0.72881   0.02596   0.95906   0.00000  Uiso   1.00
C297   C     0.97401   0.22897   0.91829   0.00000  Uiso   1.00
C298   C     0.77119   0.47404   0.04094   0.00000  Uiso   1.00
C299   C     0.97404   0.22881   0.95906   0.00000  Uiso   1.00
C300   C     0.52596   0.27119   0.04094   0.00000  Uiso   1.00
C301   C     0.59812   0.34813   0.25000   0.00000  Uiso   1.00
C302   C     0.90187   0.15188   0.75000   0.00000  Uiso   1.00
C303   C     0.65187   0.09813   0.25000   0.00000  Uiso   1.00
C304   C     0.84812   0.40188   0.75000   0.00000  Uiso   1.00
C305   C     0.90187   0.15188   0.25000   0.00000  Uiso   1.00
C306   C     0.59812   0.34813   0.75000   0.00000  Uiso   1.00
C307   C     0.84812   0.40188   0.25000   0.00000  Uiso   1.00
C308   C     0.52598   0.27103   0.08171   0.00000  Uiso   1.00
C309   C     0.65187   0.09813   0.75000   0.00000  Uiso   1.00
C310   C     0.59813   0.15187   0.75000   0.00000  Uiso   1.00
C311   C     0.90187   0.34813   0.25000   0.00000  Uiso   1.00
C312   C     0.65187   0.40187   0.75000   0.00000  Uiso   1.00
C313   C     0.84813   0.09813   0.25000   0.00000  Uiso   1.00
C314   C     0.90187   0.34813   0.75000   0.00000  Uiso   1.00
C315   C     0.59813   0.15187   0.25000   0.00000  Uiso   1.00
C316   C     0.84813   0.09813   0.75000   0.00000  Uiso   1.00
C317   C     0.65187   0.40187   0.25000   0.00000  Uiso   1.00
C318   C     0.50000   0.25000   0.47949   0.00000  Uiso   1.00
C319   C     0.77103   0.47402   0.91829   0.00000  Uiso   1.00
C320   C     0.50000   0.25000   0.52052   0.00000  Uiso   1.00
C321   C     0.75000   0.00000   0.47949   0.00000  Uiso   1.00
C322   C     0.75000   0.00000   0.52052   0.00000  Uiso   1.00
C323   C     0.75000   0.00000   0.97949   0.00000  Uiso   1.00
C324   C     0.75000   0.00000   0.02052   0.00000  Uiso   1.00
C325   C     0.50000   0.25000   0.97949   0.00000  Uiso   1.00
C326   C     0.50000   0.25000   0.02052   0.00000  Uiso   1.00
C327   C     0.54150   0.30333   0.39687   0.00000  Uiso   1.00
C328   C     0.95849   0.19667   0.60313   0.00000  Uiso   1.00
C329   C     0.69666   0.04150   0.39687   0.00000  Uiso   1.00
C330   C     0.72896   0.02598   0.08171   0.00000  Uiso   1.00
C331   C     0.80334   0.45850   0.60313   0.00000  Uiso   1.00
C332   C     0.95849   0.19667   0.39687   0.00000  Uiso   1.00
C333   C     0.54150   0.30333   0.60313   0.00000  Uiso   1.00
C334   C     0.80334   0.45850   0.39687   0.00000  Uiso   1.00
C335   C     0.69666   0.04150   0.60313   0.00000  Uiso   1.00
C336   C     0.70850   0.05334   0.89687   0.00000  Uiso   1.00
C337   C     0.79150   0.44666   0.10313   0.00000  Uiso   1.00
C338   C     0.94666   0.20850   0.89687   0.00000  Uiso   1.00
C339   C     0.55334   0.29150   0.10313   0.00000  Uiso   1.00
C340   C     0.79150   0.44666   0.89687   0.00000  Uiso   1.00
C341   C     0.52598   0.27103   0.91829   0.00000  Uiso   1.00
C342   C     0.70850   0.05334   0.10313   0.00000  Uiso   1.00
C343   C     0.55334   0.29150   0.89687   0.00000  Uiso   1.00
C344   C     0.94666   0.20850   0.10313   0.00000  Uiso   1.00
C345   C     0.97401   0.22897   0.08171   0.00000  Uiso   1.00
C346   C     0.50000   0.25000   0.39814   0.00000  Uiso   1.00
C347   C     0.50000   0.25000   0.60186   0.00000  Uiso   1.00
C348   C     0.75000   0.00000   0.39814   0.00000  Uiso   1.00
C349   C     0.97896   0.22402   0.58171   0.00000  Uiso   1.00
C350   C     0.75000   0.00000   0.60186   0.00000  Uiso   1.00
C351   C     0.75000   0.00000   0.89814   0.00000  Uiso   1.00
C352   C     0.75000   0.00000   0.10186   0.00000  Uiso   1.00
C353   C     0.50000   0.25000   0.89814   0.00000  Uiso   1.00
C354   C     0.50000   0.25000   0.10186   0.00000  Uiso   1.00
C355   C     0.95797   0.19857   0.47994   0.00000  Uiso   1.00
C356   C     0.54203   0.30143   0.52007   0.00000  Uiso   1.00
C357   C     0.80143   0.45797   0.47994   0.00000  Uiso   1.00
C358   C     0.69857   0.04203   0.52007   0.00000  Uiso   1.00
C359   C     0.54203   0.30143   0.47994   0.00000  Uiso   1.00
C360   C     0.72402   0.02103   0.41829   0.00000  Uiso   1.00
C361   C     0.95797   0.19857   0.52007   0.00000  Uiso   1.00
C362   C     0.69857   0.04203   0.47994   0.00000  Uiso   1.00
C363   C     0.80143   0.45797   0.52007   0.00000  Uiso   1.00
C364   C     0.79203   0.44857   0.97994   0.00000  Uiso   1.00
C365   C     0.70797   0.05143   0.02007   0.00000  Uiso   1.00
C366   C     0.55143   0.29203   0.97994   0.00000  Uiso   1.00
C367   C     0.94857   0.20797   0.02007   0.00000  Uiso   1.00
C368   C     0.70797   0.05143   0.97994   0.00000  Uiso   1.00
C369   C     0.79203   0.44857   0.02007   0.00000  Uiso   1.00
C370   C     0.94857   0.20797   0.97994   0.00000  Uiso   1.00
C371   C     0.77598   0.47897   0.58171   0.00000  Uiso   1.00
C372   C     0.55143   0.29203   0.02007   0.00000  Uiso   1.00
C373   C     0.75000   0.00000   0.35575   0.00000  Uiso   1.00
C374   C     0.75000   0.00000   0.64425   0.00000  Uiso   1.00
C375   C     0.50000   0.25000   0.35575   0.00000  Uiso   1.00
C376   C     0.50000   0.25000   0.64425   0.00000  Uiso   1.00
C377   C     0.50000   0.25000   0.85575   0.00000  Uiso   1.00
C378   C     0.50000   0.25000   0.14425   0.00000  Uiso   1.00
C379   C     0.75000   0.00000   0.85575   0.00000  Uiso   1.00
C380   C     0.75000   0.00000   0.14425   0.00000  Uiso   1.00
C381   C     0.67995   0.07005   0.25000   0.00000  Uiso   1.00
C382   C     0.97896   0.22402   0.41829   0.00000  Uiso   1.00
C383   C     0.82005   0.42995   0.75000   0.00000  Uiso   1.00
C384   C     0.92995   0.17995   0.25000   0.00000  Uiso   1.00
C385   C     0.57005   0.32005   0.75000   0.00000  Uiso   1.00
C386   C     0.82005   0.42995   0.25000   0.00000  Uiso   1.00
C387   C     0.67995   0.07005   0.75000   0.00000  Uiso   1.00
C388   C     0.57005   0.32005   0.25000   0.00000  Uiso   1.00
C389   C     0.92995   0.17995   0.75000   0.00000  Uiso   1.00
C390   C     0.67994   0.42994   0.75000   0.00000  Uiso   1.00
C391   C     0.82006   0.07006   0.25000   0.00000  Uiso   1.00
C392   C     0.92994   0.32006   0.75000   0.00000  Uiso   1.00
C393   C     0.52104   0.27598   0.58171   0.00000  Uiso   1.00
C394   C     0.57006   0.17994   0.25000   0.00000  Uiso   1.00
C395   C     0.82006   0.07006   0.75000   0.00000  Uiso   1.00
C396   C     0.67994   0.42994   0.25000   0.00000  Uiso   1.00
C397   C     0.57006   0.17994   0.75000   0.00000  Uiso   1.00
C398   C     0.92994   0.32006   0.25000   0.00000  Uiso   1.00
C399   C     0.62241   0.40431   0.22424   0.00000  Uiso   1.00
C400   C     0.87759   0.09569   0.77577   0.00000  Uiso   1.00
C401   C     0.59569   0.12241   0.22424   0.00000  Uiso   1.00
C402   C     0.90431   0.37759   0.77577   0.00000  Uiso   1.00
C403   C     0.87759   0.09569   0.22424   0.00000  Uiso   1.00
C404   C     0.77598   0.47897   0.41829   0.00000  Uiso   1.00
C405   C     0.62241   0.40431   0.77577   0.00000  Uiso   1.00
C406   C     0.90431   0.37759   0.22424   0.00000  Uiso   1.00
C407   C     0.59569   0.12241   0.77577   0.00000  Uiso   1.00
C408   C     0.62243   0.09569   0.77578   0.00000  Uiso   1.00
C409   C     0.87757   0.40431   0.22423   0.00000  Uiso   1.00
C410   C     0.59569   0.37757   0.77578   0.00000  Uiso   1.00
C411   C     0.90431   0.12243   0.22423   0.00000  Uiso   1.00
C412   C     0.87757   0.40431   0.77578   0.00000  Uiso   1.00
C413   C     0.62243   0.09569   0.22423   0.00000  Uiso   1.00
C414   C     0.90431   0.12243   0.77578   0.00000  Uiso   1.00
C415   C     0.72402   0.02103   0.58171   0.00000  Uiso   1.00
C416   C     0.59569   0.37757   0.22423   0.00000  Uiso   1.00
C417   C     0.87243   0.15431   0.72423   0.00000  Uiso   1.00
C418   C     0.62757   0.34569   0.27578   0.00000  Uiso   1.00
C419   C     0.84569   0.37243   0.72423   0.00000  Uiso   1.00
C420   C     0.65431   0.12757   0.27578   0.00000  Uiso   1.00
C421   C     0.62757   0.34569   0.72423   0.00000  Uiso   1.00
C422   C     0.87243   0.15431   0.27578   0.00000  Uiso   1.00
C423   C     0.65431   0.12757   0.72423   0.00000  Uiso   1.00
C424   C     0.84569   0.37243   0.27578   0.00000  Uiso   1.00
C425   C     0.87241   0.34569   0.27577   0.00000  Uiso   1.00
C426   C     0.72896   0.02598   0.91829   0.00000  Uiso   1.00
C427   C     0.62759   0.15431   0.72424   0.00000  Uiso   1.00
C428   C     0.84569   0.12759   0.27577   0.00000  Uiso   1.00
C429   C     0.65431   0.37241   0.72424   0.00000  Uiso   1.00
C430   C     0.62759   0.15431   0.27577   0.00000  Uiso   1.00
C431   C     0.87241   0.34569   0.72424   0.00000  Uiso   1.00
C432   C     0.65431   0.37241   0.27577   0.00000  Uiso   1.00
C433   C     0.84569   0.12759   0.72424   0.00000  Uiso   1.00
C434   C     0.97881   0.22404   0.45906   0.00000  Uiso   1.00
C435   C     0.52119   0.27596   0.54094   0.00000  Uiso   1.00
C436   C     0.77596   0.47881   0.45906   0.00000  Uiso   1.00
H437   H     0.94133   0.17833   0.46548   0.00000  Uiso   1.00
H438   H     0.69134   0.07167   0.03452   0.00000  Uiso   1.00
H439   H     0.57167   0.30866   0.96548   0.00000  Uiso   1.00
H440   H     0.92833   0.19134   0.03452   0.00000  Uiso   1.00
H441   H     0.69134   0.07167   0.96548   0.00000  Uiso   1.00
H442   H     0.80866   0.42833   0.03452   0.00000  Uiso   1.00
H443   H     0.92833   0.19134   0.96548   0.00000  Uiso   1.00
H444   H     0.57167   0.30866   0.03452   0.00000  Uiso   1.00
H445   H     0.62000   0.42681   0.20406   0.00000  Uiso   1.00
H446   H     0.88000   0.07319   0.79594   0.00000  Uiso   1.00
H447   H     0.57319   0.12000   0.20406   0.00000  Uiso   1.00
H448   H     0.55867   0.32167   0.53452   0.00000  Uiso   1.00
H449   H     0.92681   0.38000   0.79594   0.00000  Uiso   1.00
H450   H     0.88000   0.07319   0.20406   0.00000  Uiso   1.00
H451   H     0.62000   0.42681   0.79594   0.00000  Uiso   1.00
H452   H     0.92681   0.38000   0.20406   0.00000  Uiso   1.00
H453   H     0.57319   0.12000   0.79594   0.00000  Uiso   1.00
H454   H     0.62003   0.07319   0.79597   0.00000  Uiso   1.00
H455   H     0.87997   0.42681   0.20404   0.00000  Uiso   1.00
H456   H     0.57319   0.37997   0.79597   0.00000  Uiso   1.00
H457   H     0.92681   0.12003   0.20404   0.00000  Uiso   1.00
H458   H     0.87997   0.42681   0.79597   0.00000  Uiso   1.00
H459   H     0.82167   0.44134   0.46548   0.00000  Uiso   1.00
H460   H     0.62003   0.07319   0.20404   0.00000  Uiso   1.00
H461   H     0.92681   0.12003   0.79597   0.00000  Uiso   1.00
H462   H     0.57319   0.37997   0.20404   0.00000  Uiso   1.00
H463   H     0.87003   0.17681   0.70404   0.00000  Uiso   1.00
H464   H     0.62997   0.32319   0.29597   0.00000  Uiso   1.00
H465   H     0.82319   0.37003   0.70404   0.00000  Uiso   1.00
H466   H     0.67681   0.12997   0.29597   0.00000  Uiso   1.00
H467   H     0.62997   0.32319   0.70404   0.00000  Uiso   1.00
H468   H     0.87003   0.17681   0.29597   0.00000  Uiso   1.00
H469   H     0.67681   0.12997   0.70404   0.00000  Uiso   1.00
H470   H     0.67833   0.05866   0.53452   0.00000  Uiso   1.00
H471   H     0.82319   0.37003   0.29597   0.00000  Uiso   1.00
H472   H     0.87000   0.32319   0.29594   0.00000  Uiso   1.00
H473   H     0.63000   0.17681   0.70406   0.00000  Uiso   1.00
H474   H     0.82319   0.13000   0.29594   0.00000  Uiso   1.00
H475   H     0.67681   0.37000   0.70406   0.00000  Uiso   1.00
H476   H     0.63000   0.17681   0.29594   0.00000  Uiso   1.00
H477   H     0.87000   0.32319   0.70406   0.00000  Uiso   1.00
H478   H     0.67681   0.37000   0.29594   0.00000  Uiso   1.00
H479   H     0.82319   0.13000   0.70406   0.00000  Uiso   1.00
H480   H     0.55867   0.32167   0.46548   0.00000  Uiso   1.00
H481   H     0.94133   0.17833   0.53452   0.00000  Uiso   1.00
H482   H     0.67833   0.05866   0.46548   0.00000  Uiso   1.00
H483   H     0.82167   0.44134   0.53452   0.00000  Uiso   1.00
H484   H     0.80866   0.42833   0.96548   0.00000  Uiso   1.00
N485   N     0.55778   0.32509   0.37978   0.00000  Uiso   1.00
N486   N     0.80778   0.42491   0.12022   0.00000  Uiso   1.00
N487   N     0.92491   0.19222   0.87978   0.00000  Uiso   1.00
N488   N     0.57509   0.30778   0.12022   0.00000  Uiso   1.00
N489   N     0.80778   0.42491   0.87978   0.00000  Uiso   1.00
N490   N     0.69222   0.07509   0.12022   0.00000  Uiso   1.00
N491   N     0.57509   0.30778   0.87978   0.00000  Uiso   1.00
N492   N     0.92491   0.19222   0.12022   0.00000  Uiso   1.00
N493   N     0.94222   0.17491   0.62022   0.00000  Uiso   1.00
N494   N     0.67491   0.05778   0.37978   0.00000  Uiso   1.00
N495   N     0.82509   0.44222   0.62022   0.00000  Uiso   1.00
N496   N     0.94222   0.17491   0.37978   0.00000  Uiso   1.00
N497   N     0.55778   0.32509   0.62022   0.00000  Uiso   1.00
N498   N     0.82509   0.44222   0.37978   0.00000  Uiso   1.00
N499   N     0.67491   0.05778   0.62022   0.00000  Uiso   1.00
N500   N     0.69222   0.07509   0.87978   0.00000  Uiso   1.00
O501   O     0.75000   0.00000   0.25000   0.00000  Uiso   1.00
O502   O     0.75000   0.46964   0.66245   0.00000  Uiso   1.00
O503   O     0.96963   0.25000   0.33755   0.00000  Uiso   1.00
O504   O     0.53036   0.25000   0.66245   0.00000  Uiso   1.00
O505   O     0.50000   0.21964   0.83755   0.00000  Uiso   1.00
O506   O     0.50000   0.28037   0.16245   0.00000  Uiso   1.00
O507   O     0.78036   0.00000   0.83755   0.00000  Uiso   1.00
O508   O     0.71963   0.00000   0.16245   0.00000  Uiso   1.00
O509   O     0.50000   0.28037   0.83755   0.00000  Uiso   1.00
O510   O     0.50000   0.21964   0.16245   0.00000  Uiso   1.00
O511   O     0.71963   0.00000   0.83755   0.00000  Uiso   1.00
O512   O     0.75000   0.00000   0.75000   0.00000  Uiso   1.00
O513   O     0.78036   0.00000   0.16245   0.00000  Uiso   1.00
O514   O     0.70724   0.07308   0.27302   0.00000  Uiso   1.00
O515   O     0.79275   0.42693   0.72698   0.00000  Uiso   1.00
O516   O     0.92692   0.20725   0.27302   0.00000  Uiso   1.00
O517   O     0.57307   0.29276   0.72698   0.00000  Uiso   1.00
O518   O     0.79275   0.42693   0.27302   0.00000  Uiso   1.00
O519   O     0.70724   0.07308   0.72698   0.00000  Uiso   1.00
O520   O     0.57307   0.29276   0.27302   0.00000  Uiso   1.00
O521   O     0.92692   0.20725   0.72698   0.00000  Uiso   1.00
O522   O     0.70724   0.42693   0.72698   0.00000  Uiso   1.00
O523   O     0.50000   0.25000   0.25000   0.00000  Uiso   1.00
O524   O     0.79275   0.07308   0.27302   0.00000  Uiso   1.00
O525   O     0.92692   0.29276   0.72698   0.00000  Uiso   1.00
O526   O     0.57307   0.20725   0.27302   0.00000  Uiso   1.00
O527   O     0.79275   0.07308   0.72698   0.00000  Uiso   1.00
O528   O     0.70724   0.42693   0.27302   0.00000  Uiso   1.00
O529   O     0.57307   0.20725   0.72698   0.00000  Uiso   1.00
O530   O     0.92692   0.29276   0.27302   0.00000  Uiso   1.00
O531   O     0.95724   0.32308   0.77302   0.00000  Uiso   1.00
O532   O     0.54275   0.17693   0.22698   0.00000  Uiso   1.00
O533   O     0.67692   0.45725   0.77302   0.00000  Uiso   1.00
O534   O     0.50000   0.25000   0.75000   0.00000  Uiso   1.00
O535   O     0.82307   0.04276   0.22698   0.00000  Uiso   1.00
O536   O     0.54275   0.17693   0.77302   0.00000  Uiso   1.00
O537   O     0.95724   0.32308   0.22698   0.00000  Uiso   1.00
O538   O     0.82307   0.04276   0.77302   0.00000  Uiso   1.00
O539   O     0.67692   0.45725   0.22698   0.00000  Uiso   1.00
O540   O     0.95724   0.17693   0.22698   0.00000  Uiso   1.00
O541   O     0.54275   0.32308   0.77302   0.00000  Uiso   1.00
O542   O     0.67692   0.04276   0.22698   0.00000  Uiso   1.00
O543   O     0.82307   0.45725   0.77302   0.00000  Uiso   1.00
O544   O     0.54275   0.32308   0.22698   0.00000  Uiso   1.00
O545   O     0.75000   0.46964   0.33755   0.00000  Uiso   1.00
O546   O     0.95724   0.17693   0.77302   0.00000  Uiso   1.00
O547   O     0.82307   0.45725   0.22698   0.00000  Uiso   1.00
O548   O     0.67692   0.04276   0.77302   0.00000  Uiso   1.00
O549   O     0.75000   0.03037   0.66245   0.00000  Uiso   1.00
O550   O     0.53036   0.25000   0.33755   0.00000  Uiso   1.00
O551   O     0.96963   0.25000   0.66245   0.00000  Uiso   1.00
O552   O     0.75000   0.03037   0.33755   0.00000  Uiso   1.00
Zn553  Zn    0.70659   0.00000   0.21735   0.00000  Uiso   1.00
Zn554  Zn    0.54340   0.25000   0.28265   0.00000  Uiso   1.00
Zn555  Zn    0.75000   0.45660   0.71735   0.00000  Uiso   1.00
Zn556  Zn    0.75000   0.04341   0.28265   0.00000  Uiso   1.00
Zn557  Zn    0.54340   0.25000   0.71735   0.00000  Uiso   1.00
Zn558  Zn    0.95659   0.25000   0.28265   0.00000  Uiso   1.00
Zn559  Zn    0.75000   0.04341   0.71735   0.00000  Uiso   1.00
Zn560  Zn    0.75000   0.45660   0.28265   0.00000  Uiso   1.00
Zn561  Zn    0.79340   0.00000   0.78265   0.00000  Uiso   1.00
Zn562  Zn    0.50000   0.20660   0.21735   0.00000  Uiso   1.00
Zn563  Zn    0.50000   0.29341   0.78265   0.00000  Uiso   1.00
Zn564  Zn    0.79340   0.00000   0.21735   0.00000  Uiso   1.00
Zn565  Zn    0.70659   0.00000   0.78265   0.00000  Uiso   1.00
Zn566  Zn    0.50000   0.29341   0.21735   0.00000  Uiso   1.00
Zn567  Zn    0.50000   0.20660   0.78265   0.00000  Uiso   1.00
Zn568  Zn    0.95659   0.25000   0.71735   0.00000  Uiso   1.00
C569   C     0.02104   0.77598   0.41829   0.00000  Uiso   1.00
C570   C     0.27103   0.97402   0.08171   0.00000  Uiso   1.00
C571   C     0.22404   0.52119   0.54094   0.00000  Uiso   1.00
C572   C     0.02119   0.77596   0.45906   0.00000  Uiso   1.00
C573   C     0.47881   0.72404   0.54094   0.00000  Uiso   1.00
C574   C     0.22404   0.52119   0.45906   0.00000  Uiso   1.00
C575   C     0.27596   0.97881   0.54094   0.00000  Uiso   1.00
C576   C     0.27119   0.97404   0.95906   0.00000  Uiso   1.00
C577   C     0.22881   0.52596   0.04094   0.00000  Uiso   1.00
C578   C     0.02596   0.77119   0.95906   0.00000  Uiso   1.00
C579   C     0.47404   0.72881   0.04094   0.00000  Uiso   1.00
C580   C     0.22881   0.52596   0.95906   0.00000  Uiso   1.00
C581   C     0.47401   0.72897   0.91829   0.00000  Uiso   1.00
C582   C     0.27119   0.97404   0.04094   0.00000  Uiso   1.00
C583   C     0.47404   0.72881   0.95906   0.00000  Uiso   1.00
C584   C     0.02596   0.77119   0.04094   0.00000  Uiso   1.00
C585   C     0.09812   0.84813   0.25000   0.00000  Uiso   1.00
C586   C     0.40187   0.65188   0.75000   0.00000  Uiso   1.00
C587   C     0.15187   0.59813   0.25000   0.00000  Uiso   1.00
C588   C     0.34812   0.90188   0.75000   0.00000  Uiso   1.00
C589   C     0.40187   0.65188   0.25000   0.00000  Uiso   1.00
C590   C     0.09812   0.84813   0.75000   0.00000  Uiso   1.00
C591   C     0.34812   0.90188   0.25000   0.00000  Uiso   1.00
C592   C     0.02598   0.77103   0.08171   0.00000  Uiso   1.00
C593   C     0.15187   0.59813   0.75000   0.00000  Uiso   1.00
C594   C     0.09813   0.65187   0.75000   0.00000  Uiso   1.00
C595   C     0.40187   0.84813   0.25000   0.00000  Uiso   1.00
C596   C     0.15187   0.90187   0.75000   0.00000  Uiso   1.00
C597   C     0.34813   0.59813   0.25000   0.00000  Uiso   1.00
C598   C     0.40187   0.84813   0.75000   0.00000  Uiso   1.00
C599   C     0.09813   0.65187   0.25000   0.00000  Uiso   1.00
C600   C     0.34813   0.59813   0.75000   0.00000  Uiso   1.00
C601   C     0.15187   0.90187   0.25000   0.00000  Uiso   1.00
C602   C    -0.00000   0.75000   0.47949   0.00000  Uiso   1.00
C603   C     0.27103   0.97402   0.91829   0.00000  Uiso   1.00
C604   C    -0.00000   0.75000   0.52052   0.00000  Uiso   1.00
C605   C     0.25000   0.50000   0.47949   0.00000  Uiso   1.00
C606   C     0.25000   0.50000   0.52052   0.00000  Uiso   1.00
C607   C     0.25000   0.50000   0.97949   0.00000  Uiso   1.00
C608   C     0.25000   0.50000   0.02052   0.00000  Uiso   1.00
C609   C    -0.00000   0.75000   0.97949   0.00000  Uiso   1.00
C610   C    -0.00000   0.75000   0.02052   0.00000  Uiso   1.00
C611   C     0.04150   0.80333   0.39687   0.00000  Uiso   1.00
C612   C     0.45849   0.69667   0.60313   0.00000  Uiso   1.00
C613   C     0.19666   0.54150   0.39687   0.00000  Uiso   1.00
C614   C     0.22896   0.52598   0.08171   0.00000  Uiso   1.00
C615   C     0.30334   0.95850   0.60313   0.00000  Uiso   1.00
C616   C     0.45849   0.69667   0.39687   0.00000  Uiso   1.00
C617   C     0.04150   0.80333   0.60313   0.00000  Uiso   1.00
C618   C     0.30334   0.95850   0.39687   0.00000  Uiso   1.00
C619   C     0.19666   0.54150   0.60313   0.00000  Uiso   1.00
C620   C     0.20850   0.55334   0.89687   0.00000  Uiso   1.00
C621   C     0.29150   0.94666   0.10313   0.00000  Uiso   1.00
C622   C     0.44666   0.70850   0.89687   0.00000  Uiso   1.00
C623   C     0.05334   0.79150   0.10313   0.00000  Uiso   1.00
C624   C     0.29150   0.94666   0.89687   0.00000  Uiso   1.00
C625   C     0.02598   0.77103   0.91829   0.00000  Uiso   1.00
C626   C     0.20850   0.55334   0.10313   0.00000  Uiso   1.00
C627   C     0.05334   0.79150   0.89687   0.00000  Uiso   1.00
C628   C     0.44666   0.70850   0.10313   0.00000  Uiso   1.00
C629   C     0.47401   0.72897   0.08171   0.00000  Uiso   1.00
C630   C    -0.00000   0.75000   0.39814   0.00000  Uiso   1.00
C631   C    -0.00000   0.75000   0.60186   0.00000  Uiso   1.00
C632   C     0.25000   0.50000   0.39814   0.00000  Uiso   1.00
C633   C     0.47896   0.72402   0.58171   0.00000  Uiso   1.00
C634   C     0.25000   0.50000   0.60186   0.00000  Uiso   1.00
C635   C     0.25000   0.50000   0.89814   0.00000  Uiso   1.00
C636   C     0.25000   0.50000   0.10186   0.00000  Uiso   1.00
C637   C    -0.00000   0.75000   0.89814   0.00000  Uiso   1.00
C638   C    -0.00000   0.75000   0.10186   0.00000  Uiso   1.00
C639   C     0.45797   0.69857   0.47994   0.00000  Uiso   1.00
C640   C     0.04203   0.80143   0.52007   0.00000  Uiso   1.00
C641   C     0.30143   0.95797   0.47994   0.00000  Uiso   1.00
C642   C     0.19857   0.54203   0.52007   0.00000  Uiso   1.00
C643   C     0.04203   0.80143   0.47994   0.00000  Uiso   1.00
C644   C     0.22402   0.52103   0.41829   0.00000  Uiso   1.00
C645   C     0.45797   0.69857   0.52007   0.00000  Uiso   1.00
C646   C     0.19857   0.54203   0.47994   0.00000  Uiso   1.00
C647   C     0.30143   0.95797   0.52007   0.00000  Uiso   1.00
C648   C     0.29203   0.94857   0.97994   0.00000  Uiso   1.00
C649   C     0.20797   0.55143   0.02007   0.00000  Uiso   1.00
C650   C     0.05143   0.79203   0.97994   0.00000  Uiso   1.00
C651   C     0.44857   0.70797   0.02007   0.00000  Uiso   1.00
C652   C     0.20797   0.55143   0.97994   0.00000  Uiso   1.00
C653   C     0.29203   0.94857   0.02007   0.00000  Uiso   1.00
C654   C     0.44857   0.70797   0.97994   0.00000  Uiso   1.00
C655   C     0.27598   0.97897   0.58171   0.00000  Uiso   1.00
C656   C     0.05143   0.79203   0.02007   0.00000  Uiso   1.00
C657   C     0.25000   0.50000   0.35575   0.00000  Uiso   1.00
C658   C     0.25000   0.50000   0.64425   0.00000  Uiso   1.00
C659   C     0.00000   0.75000   0.35575   0.00000  Uiso   1.00
C660   C    -0.00000   0.75000   0.64425   0.00000  Uiso   1.00
C661   C    -0.00000   0.75000   0.85575   0.00000  Uiso   1.00
C662   C    -0.00000   0.75000   0.14425   0.00000  Uiso   1.00
C663   C     0.25000   0.50000   0.85575   0.00000  Uiso   1.00
C664   C     0.25000   0.50000   0.14425   0.00000  Uiso   1.00
C665   C     0.17995   0.57005   0.25000   0.00000  Uiso   1.00
C666   C     0.47896   0.72402   0.41829   0.00000  Uiso   1.00
C667   C     0.32005   0.92995   0.75000   0.00000  Uiso   1.00
C668   C     0.42995   0.67995   0.25000   0.00000  Uiso   1.00
C669   C     0.07005   0.82005   0.75000   0.00000  Uiso   1.00
C670   C     0.32005   0.92995   0.25000   0.00000  Uiso   1.00
C671   C     0.17995   0.57005   0.75000   0.00000  Uiso   1.00
C672   C     0.07005   0.82005   0.25000   0.00000  Uiso   1.00
C673   C     0.42995   0.67995   0.75000   0.00000  Uiso   1.00
C674   C     0.17994   0.92994   0.75000   0.00000  Uiso   1.00
C675   C     0.32006   0.57006   0.25000   0.00000  Uiso   1.00
C676   C     0.42994   0.82006   0.75000   0.00000  Uiso   1.00
C677   C     0.02104   0.77598   0.58171   0.00000  Uiso   1.00
C678   C     0.07006   0.67994   0.25000   0.00000  Uiso   1.00
C679   C     0.32006   0.57006   0.75000   0.00000  Uiso   1.00
C680   C     0.17994   0.92994   0.25000   0.00000  Uiso   1.00
C681   C     0.07006   0.67994   0.75000   0.00000  Uiso   1.00
C682   C     0.42994   0.82006   0.25000   0.00000  Uiso   1.00
C683   C     0.12241   0.90431   0.22424   0.00000  Uiso   1.00
C684   C     0.37759   0.59569   0.77577   0.00000  Uiso   1.00
C685   C     0.09569   0.62241   0.22424   0.00000  Uiso   1.00
C686   C     0.40431   0.87759   0.77577   0.00000  Uiso   1.00
C687   C     0.37759   0.59569   0.22424   0.00000  Uiso   1.00
C688   C     0.27598   0.97897   0.41829   0.00000  Uiso   1.00
C689   C     0.12241   0.90431   0.77577   0.00000  Uiso   1.00
C690   C     0.40431   0.87759   0.22424   0.00000  Uiso   1.00
C691   C     0.09569   0.62241   0.77577   0.00000  Uiso   1.00
C692   C     0.12243   0.59569   0.77578   0.00000  Uiso   1.00
C693   C     0.37757   0.90431   0.22423   0.00000  Uiso   1.00
C694   C     0.09569   0.87757   0.77578   0.00000  Uiso   1.00
C695   C     0.40431   0.62243   0.22423   0.00000  Uiso   1.00
C696   C     0.37757   0.90431   0.77578   0.00000  Uiso   1.00
C697   C     0.12243   0.59569   0.22423   0.00000  Uiso   1.00
C698   C     0.40431   0.62243   0.77578   0.00000  Uiso   1.00
C699   C     0.22402   0.52103   0.58171   0.00000  Uiso   1.00
C700   C     0.09569   0.87757   0.22423   0.00000  Uiso   1.00
C701   C     0.37243   0.65431   0.72423   0.00000  Uiso   1.00
C702   C     0.12757   0.84569   0.27578   0.00000  Uiso   1.00
C703   C     0.34569   0.87243   0.72423   0.00000  Uiso   1.00
C704   C     0.15431   0.62757   0.27578   0.00000  Uiso   1.00
C705   C     0.12757   0.84569   0.72423   0.00000  Uiso   1.00
C706   C     0.37243   0.65431   0.27578   0.00000  Uiso   1.00
C707   C     0.15431   0.62757   0.72423   0.00000  Uiso   1.00
C708   C     0.34569   0.87243   0.27578   0.00000  Uiso   1.00
C709   C     0.37241   0.84569   0.27577   0.00000  Uiso   1.00
C710   C     0.22896   0.52598   0.91829   0.00000  Uiso   1.00
C711   C     0.12759   0.65431   0.72424   0.00000  Uiso   1.00
C712   C     0.34569   0.62759   0.27577   0.00000  Uiso   1.00
C713   C     0.15431   0.87241   0.72424   0.00000  Uiso   1.00
C714   C     0.12759   0.65431   0.27577   0.00000  Uiso   1.00
C715   C     0.37241   0.84569   0.72424   0.00000  Uiso   1.00
C716   C     0.15431   0.87241   0.27577   0.00000  Uiso   1.00
C717   C     0.34569   0.62759   0.72424   0.00000  Uiso   1.00
C718   C     0.47881   0.72404   0.45906   0.00000  Uiso   1.00
C719   C     0.02119   0.77596   0.54094   0.00000  Uiso   1.00
C720   C     0.27596   0.97881   0.45906   0.00000  Uiso   1.00
H721   H     0.44133   0.67833   0.46548   0.00000  Uiso   1.00
H722   H     0.19134   0.57167   0.03452   0.00000  Uiso   1.00
H723   H     0.07167   0.80866   0.96548   0.00000  Uiso   1.00
H724   H     0.42833   0.69134   0.03452   0.00000  Uiso   1.00
H725   H     0.19134   0.57167   0.96548   0.00000  Uiso   1.00
H726   H     0.30866   0.92833   0.03452   0.00000  Uiso   1.00
H727   H     0.42833   0.69134   0.96548   0.00000  Uiso   1.00
H728   H     0.07167   0.80866   0.03452   0.00000  Uiso   1.00
H729   H     0.12000   0.92681   0.20406   0.00000  Uiso   1.00
H730   H     0.38000   0.57319   0.79594   0.00000  Uiso   1.00
H731   H     0.07319   0.62000   0.20406   0.00000  Uiso   1.00
H732   H     0.05867   0.82167   0.53452   0.00000  Uiso   1.00
H733   H     0.42681   0.88000   0.79594   0.00000  Uiso   1.00
H734   H     0.38000   0.57319   0.20406   0.00000  Uiso   1.00
H735   H     0.12000   0.92681   0.79594   0.00000  Uiso   1.00
H736   H     0.42681   0.88000   0.20406   0.00000  Uiso   1.00
H737   H     0.07319   0.62000   0.79594   0.00000  Uiso   1.00
H738   H     0.12003   0.57319   0.79597   0.00000  Uiso   1.00
H739   H     0.37997   0.92681   0.20404   0.00000  Uiso   1.00
H740   H     0.07319   0.87997   0.79597   0.00000  Uiso   1.00
H741   H     0.42681   0.62003   0.20404   0.00000  Uiso   1.00
H742   H     0.37997   0.92681   0.79597   0.00000  Uiso   1.00
H743   H     0.32167   0.94134   0.46548   0.00000  Uiso   1.00
H744   H     0.12003   0.57319   0.20404   0.00000  Uiso   1.00
H745   H     0.42681   0.62003   0.79597   0.00000  Uiso   1.00
H746   H     0.07319   0.87997   0.20404   0.00000  Uiso   1.00
H747   H     0.37003   0.67681   0.70404   0.00000  Uiso   1.00
H748   H     0.12997   0.82319   0.29597   0.00000  Uiso   1.00
H749   H     0.32319   0.87003   0.70404   0.00000  Uiso   1.00
H750   H     0.17681   0.62997   0.29597   0.00000  Uiso   1.00
H751   H     0.12997   0.82319   0.70404   0.00000  Uiso   1.00
H752   H     0.37003   0.67681   0.29597   0.00000  Uiso   1.00
H753   H     0.17681   0.62997   0.70404   0.00000  Uiso   1.00
H754   H     0.17833   0.55866   0.53452   0.00000  Uiso   1.00
H755   H     0.32319   0.87003   0.29597   0.00000  Uiso   1.00
H756   H     0.37000   0.82319   0.29594   0.00000  Uiso   1.00
H757   H     0.13000   0.67681   0.70406   0.00000  Uiso   1.00
H758   H     0.32319   0.63000   0.29594   0.00000  Uiso   1.00
H759   H     0.17681   0.87000   0.70406   0.00000  Uiso   1.00
H760   H     0.13000   0.67681   0.29594   0.00000  Uiso   1.00
H761   H     0.37000   0.82319   0.70406   0.00000  Uiso   1.00
H762   H     0.17681   0.87000   0.29594   0.00000  Uiso   1.00
H763   H     0.32319   0.63000   0.70406   0.00000  Uiso   1.00
H764   H     0.05867   0.82167   0.46548   0.00000  Uiso   1.00
H765   H     0.44133   0.67833   0.53452   0.00000  Uiso   1.00
H766   H     0.17833   0.55866   0.46548   0.00000  Uiso   1.00
H767   H     0.32167   0.94134   0.53452   0.00000  Uiso   1.00
H768   H     0.30866   0.92833   0.96548   0.00000  Uiso   1.00
N769   N     0.05778   0.82509   0.37978   0.00000  Uiso   1.00
N770   N     0.30778   0.92491   0.12022   0.00000  Uiso   1.00
N771   N     0.42491   0.69222   0.87978   0.00000  Uiso   1.00
N772   N     0.07509   0.80778   0.12022   0.00000  Uiso   1.00
N773   N     0.30778   0.92491   0.87978   0.00000  Uiso   1.00
N774   N     0.19222   0.57509   0.12022   0.00000  Uiso   1.00
N775   N     0.07509   0.80778   0.87978   0.00000  Uiso   1.00
N776   N     0.42491   0.69222   0.12022   0.00000  Uiso   1.00
N777   N     0.44222   0.67491   0.62022   0.00000  Uiso   1.00
N778   N     0.17491   0.55778   0.37978   0.00000  Uiso   1.00
N779   N     0.32509   0.94222   0.62022   0.00000  Uiso   1.00
N780   N     0.44222   0.67491   0.37978   0.00000  Uiso   1.00
N781   N     0.05778   0.82509   0.62022   0.00000  Uiso   1.00
N782   N     0.32509   0.94222   0.37978   0.00000  Uiso   1.00
N783   N     0.17491   0.55778   0.62022   0.00000  Uiso   1.00
N784   N     0.19222   0.57509   0.87978   0.00000  Uiso   1.00
O785   O     0.25000   0.50000   0.25000   0.00000  Uiso   1.00
O786   O     0.25000   0.96964   0.66245   0.00000  Uiso   1.00
O787   O     0.46963   0.75000   0.33755   0.00000  Uiso   1.00
O788   O     0.03036   0.75000   0.66245   0.00000  Uiso   1.00
O789   O    -0.00000   0.71964   0.83755   0.00000  Uiso   1.00
O790   O    -0.00000   0.78037   0.16245   0.00000  Uiso   1.00
O791   O     0.28036   0.50000   0.83755   0.00000  Uiso   1.00
O792   O     0.21963   0.50000   0.16245   0.00000  Uiso   1.00
O793   O    -0.00000   0.78037   0.83755   0.00000  Uiso   1.00
O794   O    -0.00000   0.71964   0.16245   0.00000  Uiso   1.00
O795   O     0.21963   0.50000   0.83755   0.00000  Uiso   1.00
O796   O     0.25000   0.50000   0.75000   0.00000  Uiso   1.00
O797   O     0.28036   0.50000   0.16245   0.00000  Uiso   1.00
O798   O     0.20724   0.57308   0.27302   0.00000  Uiso   1.00
O799   O     0.29275   0.92693   0.72698   0.00000  Uiso   1.00
O800   O     0.42692   0.70725   0.27302   0.00000  Uiso   1.00
O801   O     0.07307   0.79276   0.72698   0.00000  Uiso   1.00
O802   O     0.29275   0.92693   0.27302   0.00000  Uiso   1.00
O803   O     0.20724   0.57308   0.72698   0.00000  Uiso   1.00
O804   O     0.07307   0.79276   0.27302   0.00000  Uiso   1.00
O805   O     0.42692   0.70725   0.72698   0.00000  Uiso   1.00
O806   O     0.20724   0.92693   0.72698   0.00000  Uiso   1.00
O807   O    -0.00000   0.75000   0.25000   0.00000  Uiso   1.00
O808   O     0.29275   0.57308   0.27302   0.00000  Uiso   1.00
O809   O     0.42692   0.79276   0.72698   0.00000  Uiso   1.00
O810   O     0.07307   0.70725   0.27302   0.00000  Uiso   1.00
O811   O     0.29275   0.57308   0.72698   0.00000  Uiso   1.00
O812   O     0.20724   0.92693   0.27302   0.00000  Uiso   1.00
O813   O     0.07307   0.70725   0.72698   0.00000  Uiso   1.00
O814   O     0.42692   0.79276   0.27302   0.00000  Uiso   1.00
O815   O     0.45724   0.82308   0.77302   0.00000  Uiso   1.00
O816   O     0.04275   0.67693   0.22698   0.00000  Uiso   1.00
O817   O     0.17692   0.95725   0.77302   0.00000  Uiso   1.00
O818   O    -0.00000   0.75000   0.75000   0.00000  Uiso   1.00
O819   O     0.32307   0.54276   0.22698   0.00000  Uiso   1.00
O820   O     0.04275   0.67693   0.77302   0.00000  Uiso   1.00
O821   O     0.45724   0.82308   0.22698   0.00000  Uiso   1.00
O822   O     0.32307   0.54276   0.77302   0.00000  Uiso   1.00
O823   O     0.17692   0.95725   0.22698   0.00000  Uiso   1.00
O824   O     0.45724   0.67693   0.22698   0.00000  Uiso   1.00
O825   O     0.04275   0.82308   0.77302   0.00000  Uiso   1.00
O826   O     0.17692   0.54276   0.22698   0.00000  Uiso   1.00
O827   O     0.32307   0.95725   0.77302   0.00000  Uiso   1.00
O828   O     0.04275   0.82308   0.22698   0.00000  Uiso   1.00
O829   O     0.25000   0.96964   0.33755   0.00000  Uiso   1.00
O830   O     0.45724   0.67693   0.77302   0.00000  Uiso   1.00
O831   O     0.32307   0.95725   0.22698   0.00000  Uiso   1.00
O832   O     0.17692   0.54276   0.77302   0.00000  Uiso   1.00
O833   O     0.25000   0.53037   0.66245   0.00000  Uiso   1.00
O834   O     0.03036   0.75000   0.33755   0.00000  Uiso   1.00
O835   O     0.46963   0.75000   0.66245   0.00000  Uiso   1.00
O836   O     0.25000   0.53037   0.33755   0.00000  Uiso   1.00
Zn837  Zn    0.20659   0.50000   0.21735   0.00000  Uiso   1.00
Zn838  Zn    0.04340   0.75000   0.28265   0.00000  Uiso   1.00
Zn839  Zn    0.25000   0.95660   0.71735   0.00000  Uiso   1.00
Zn840  Zn    0.25000   0.54341   0.28265   0.00000  Uiso   1.00
Zn841  Zn    0.04340   0.75000   0.71735   0.00000  Uiso   1.00
Zn842  Zn    0.45659   0.75000   0.28265   0.00000  Uiso   1.00
Zn843  Zn    0.25000   0.54341   0.71735   0.00000  Uiso   1.00
Zn844  Zn    0.25000   0.95660   0.28265   0.00000  Uiso   1.00
Zn845  Zn    0.29340   0.50000   0.78265   0.00000  Uiso   1.00
Zn846  Zn   -0.00000   0.70660   0.21735   0.00000  Uiso   1.00
Zn847  Zn   -0.00000   0.79341   0.78265   0.00000  Uiso   1.00
Zn848  Zn    0.29340   0.50000   0.21735   0.00000  Uiso   1.00
Zn849  Zn    0.20659   0.50000   0.78265   0.00000  Uiso   1.00
Zn850  Zn    0.00000   0.79341   0.21735   0.00000  Uiso   1.00
Zn851  Zn   -0.00000   0.70660   0.78265   0.00000  Uiso   1.00
Zn852  Zn    0.45659   0.75000   0.71735   0.00000  Uiso   1.00
C853   C     0.52104   0.77598   0.41829   0.00000  Uiso   1.00
C854   C     0.77103   0.97402   0.08171   0.00000  Uiso   1.00
C855   C     0.72404   0.52119   0.54094   0.00000  Uiso   1.00
C856   C     0.52119   0.77596   0.45906   0.00000  Uiso   1.00
C857   C     0.97881   0.72404   0.54094   0.00000  Uiso   1.00
C858   C     0.72404   0.52119   0.45906   0.00000  Uiso   1.00
C859   C     0.77596   0.97881   0.54094   0.00000  Uiso   1.00
C860   C     0.77119   0.97404   0.95906   0.00000  Uiso   1.00
C861   C     0.72881   0.52596   0.04094   0.00000  Uiso   1.00
C862   C     0.52596   0.77119   0.95906   0.00000  Uiso   1.00
C863   C     0.97404   0.72881   0.04094   0.00000  Uiso   1.00
C864   C     0.72881   0.52596   0.95906   0.00000  Uiso   1.00
C865   C     0.97401   0.72897   0.91829   0.00000  Uiso   1.00
C866   C     0.77119   0.97404   0.04094   0.00000  Uiso   1.00
C867   C     0.97404   0.72881   0.95906   0.00000  Uiso   1.00
C868   C     0.52596   0.77119   0.04094   0.00000  Uiso   1.00
C869   C     0.59812   0.84813   0.25000   0.00000  Uiso   1.00
C870   C     0.90187   0.65188   0.75000   0.00000  Uiso   1.00
C871   C     0.65187   0.59813   0.25000   0.00000  Uiso   1.00
C872   C     0.84812   0.90188   0.75000   0.00000  Uiso   1.00
C873   C     0.90187   0.65188   0.25000   0.00000  Uiso   1.00
C874   C     0.59812   0.84813   0.75000   0.00000  Uiso   1.00
C875   C     0.84812   0.90188   0.25000   0.00000  Uiso   1.00
C876   C     0.52598   0.77103   0.08171   0.00000  Uiso   1.00
C877   C     0.65187   0.59813   0.75000   0.00000  Uiso   1.00
C878   C     0.59813   0.65187   0.75000   0.00000  Uiso   1.00
C879   C     0.90187   0.84813   0.25000   0.00000  Uiso   1.00
C880   C     0.65187   0.90187   0.75000   0.00000  Uiso   1.00
C881   C     0.84813   0.59813   0.25000   0.00000  Uiso   1.00
C882   C     0.90187   0.84813   0.75000   0.00000  Uiso   1.00
C883   C     0.59813   0.65187   0.25000   0.00000  Uiso   1.00
C884   C     0.84813   0.59813   0.75000   0.00000  Uiso   1.00
C885   C     0.65187   0.90187   0.25000   0.00000  Uiso   1.00
C886   C     0.50000   0.75000   0.47949   0.00000  Uiso   1.00
C887   C     0.77103   0.97402   0.91829   0.00000  Uiso   1.00
C888   C     0.50000   0.75000   0.52052   0.00000  Uiso   1.00
C889   C     0.75000   0.50000   0.47949   0.00000  Uiso   1.00
C890   C     0.75000   0.50000   0.52052   0.00000  Uiso   1.00
C891   C     0.75000   0.50000   0.97949   0.00000  Uiso   1.00
C892   C     0.75000   0.50000   0.02052   0.00000  Uiso   1.00
C893   C     0.50000   0.75000   0.97949   0.00000  Uiso   1.00
C894   C     0.50000   0.75000   0.02052   0.00000  Uiso   1.00
C895   C     0.54150   0.80333   0.39687   0.00000  Uiso   1.00
C896   C     0.95849   0.69667   0.60313   0.00000  Uiso   1.00
C897   C     0.69666   0.54150   0.39687   0.00000  Uiso   1.00
C898   C     0.72896   0.52598   0.08171   0.00000  Uiso   1.00
C899   C     0.80334   0.95850   0.60313   0.00000  Uiso   1.00
C900   C     0.95849   0.69667   0.39687   0.00000  Uiso   1.00
C901   C     0.54150   0.80333   0.60313   0.00000  Uiso   1.00
C902   C     0.80334   0.95850   0.39687   0.00000  Uiso   1.00
C903   C     0.69666   0.54150   0.60313   0.00000  Uiso   1.00
C904   C     0.70850   0.55334   0.89687   0.00000  Uiso   1.00
C905   C     0.79150   0.94666   0.10313   0.00000  Uiso   1.00
C906   C     0.94666   0.70850   0.89687   0.00000  Uiso   1.00
C907   C     0.55334   0.79150   0.10313   0.00000  Uiso   1.00
C908   C     0.79150   0.94666   0.89687   0.00000  Uiso   1.00
C909   C     0.52598   0.77103   0.91829   0.00000  Uiso   1.00
C910   C     0.70850   0.55334   0.10313   0.00000  Uiso   1.00
C911   C     0.55334   0.79150   0.89687   0.00000  Uiso   1.00
C912   C     0.94666   0.70850   0.10313   0.00000  Uiso   1.00
C913   C     0.97401   0.72897   0.08171   0.00000  Uiso   1.00
C914   C     0.50000   0.75000   0.39814   0.00000  Uiso   1.00
C915   C     0.50000   0.75000   0.60186   0.00000  Uiso   1.00
C916   C     0.75000   0.50000   0.39814   0.00000  Uiso   1.00
C917   C     0.97896   0.72402   0.58171   0.00000  Uiso   1.00
C918   C     0.75000   0.50000   0.60186   0.00000  Uiso   1.00
C919   C     0.75000   0.50000   0.89814   0.00000  Uiso   1.00
C920   C     0.75000   0.50000   0.10186   0.00000  Uiso   1.00
C921   C     0.50000   0.75000   0.89814   0.00000  Uiso   1.00
C922   C     0.50000   0.75000   0.10186   0.00000  Uiso   1.00
C923   C     0.95797   0.69857   0.47994   0.00000  Uiso   1.00
C924   C     0.54203   0.80143   0.52007   0.00000  Uiso   1.00
C925   C     0.80143   0.95797   0.47994   0.00000  Uiso   1.00
C926   C     0.69857   0.54203   0.52007   0.00000  Uiso   1.00
C927   C     0.54203   0.80143   0.47994   0.00000  Uiso   1.00
C928   C     0.72402   0.52103   0.41829   0.00000  Uiso   1.00
C929   C     0.95797   0.69857   0.52007   0.00000  Uiso   1.00
C930   C     0.69857   0.54203   0.47994   0.00000  Uiso   1.00
C931   C     0.80143   0.95797   0.52007   0.00000  Uiso   1.00
C932   C     0.79203   0.94857   0.97994   0.00000  Uiso   1.00
C933   C     0.70797   0.55143   0.02007   0.00000  Uiso   1.00
C934   C     0.55143   0.79203   0.97994   0.00000  Uiso   1.00
C935   C     0.94857   0.70797   0.02007   0.00000  Uiso   1.00
C936   C     0.70797   0.55143   0.97994   0.00000  Uiso   1.00
C937   C     0.79203   0.94857   0.02007   0.00000  Uiso   1.00
C938   C     0.94857   0.70797   0.97994   0.00000  Uiso   1.00
C939   C     0.77598   0.97897   0.58171   0.00000  Uiso   1.00
C940   C     0.55143   0.79203   0.02007   0.00000  Uiso   1.00
C941   C     0.75000   0.50000   0.35575   0.00000  Uiso   1.00
C942   C     0.75000   0.50000   0.64425   0.00000  Uiso   1.00
C943   C     0.50000   0.75000   0.35575   0.00000  Uiso   1.00
C944   C     0.50000   0.75000   0.64425   0.00000  Uiso   1.00
C945   C     0.50000   0.75000   0.85575   0.00000  Uiso   1.00
C946   C     0.50000   0.75000   0.14425   0.00000  Uiso   1.00
C947   C     0.75000   0.50000   0.85575   0.00000  Uiso   1.00
C948   C     0.75000   0.50000   0.14425   0.00000  Uiso   1.00
C949   C     0.67995   0.57005   0.25000   0.00000  Uiso   1.00
C950   C     0.97896   0.72402   0.41829   0.00000  Uiso   1.00
C951   C     0.82005   0.92995   0.75000   0.00000  Uiso   1.00
C952   C     0.92995   0.67995   0.25000   0.00000  Uiso   1.00
C953   C     0.57005   0.82005   0.75000   0.00000  Uiso   1.00
C954   C     0.82005   0.92995   0.25000   0.00000  Uiso   1.00
C955   C     0.67995   0.57005   0.75000   0.00000  Uiso   1.00
C956   C     0.57005   0.82005   0.25000   0.00000  Uiso   1.00
C957   C     0.92995   0.67995   0.75000   0.00000  Uiso   1.00
C958   C     0.67994   0.92994   0.75000   0.00000  Uiso   1.00
C959   C     0.82006   0.57006   0.25000   0.00000  Uiso   1.00
C960   C     0.92994   0.82006   0.75000   0.00000  Uiso   1.00
C961   C     0.52104   0.77598   0.58171   0.00000  Uiso   1.00
C962   C     0.57006   0.67994   0.25000   0.00000  Uiso   1.00
C963   C     0.82006   0.57006   0.75000   0.00000  Uiso   1.00
C964   C     0.67994   0.92994   0.25000   0.00000  Uiso   1.00
C965   C     0.57006   0.67994   0.75000   0.00000  Uiso   1.00
C966   C     0.92994   0.82006   0.25000   0.00000  Uiso   1.00
C967   C     0.62241   0.90431   0.22424   0.00000  Uiso   1.00
C968   C     0.87759   0.59569   0.77577   0.00000  Uiso   1.00
C969   C     0.59569   0.62241   0.22424   0.00000  Uiso   1.00
C970   C     0.90431   0.87759   0.77577   0.00000  Uiso   1.00
C971   C     0.87759   0.59569   0.22424   0.00000  Uiso   1.00
C972   C     0.77598   0.97897   0.41829   0.00000  Uiso   1.00
C973   C     0.62241   0.90431   0.77577   0.00000  Uiso   1.00
C974   C     0.90431   0.87759   0.22424   0.00000  Uiso   1.00
C975   C     0.59569   0.62241   0.77577   0.00000  Uiso   1.00
C976   C     0.62243   0.59569   0.77578   0.00000  Uiso   1.00
C977   C     0.87757   0.90431   0.22423   0.00000  Uiso   1.00
C978   C     0.59569   0.87757   0.77578   0.00000  Uiso   1.00
C979   C     0.90431   0.62243   0.22423   0.00000  Uiso   1.00
C980   C     0.87757   0.90431   0.77578   0.00000  Uiso   1.00
C981   C     0.62243   0.59569   0.22423   0.00000  Uiso   1.00
C982   C     0.90431   0.62243   0.77578   0.00000  Uiso   1.00
C983   C     0.72402   0.52103   0.58171   0.00000  Uiso   1.00
C984   C     0.59569   0.87757   0.22423   0.00000  Uiso   1.00
C985   C     0.87243   0.65431   0.72423   0.00000  Uiso   1.00
C986   C     0.62757   0.84569   0.27578   0.00000  Uiso   1.00
C987   C     0.84569   0.87243   0.72423   0.00000  Uiso   1.00
C988   C     0.65431   0.62757   0.27578   0.00000  Uiso   1.00
C989   C     0.62757   0.84569   0.72423   0.00000  Uiso   1.00
C990   C     0.87243   0.65431   0.27578   0.00000  Uiso   1.00
C991   C     0.65431   0.62757   0.72423   0.00000  Uiso   1.00
C992   C     0.84569   0.87243   0.27578   0.00000  Uiso   1.00
C993   C     0.87241   0.84569   0.27577   0.00000  Uiso   1.00
C994   C     0.72896   0.52598   0.91829   0.00000  Uiso   1.00
C995   C     0.62759   0.65431   0.72424   0.00000  Uiso   1.00
C996   C     0.84569   0.62759   0.27577   0.00000  Uiso   1.00
C997   C     0.65431   0.87241   0.72424   0.00000  Uiso   1.00
C998   C     0.62759   0.65431   0.27577   0.00000  Uiso   1.00
C999   C     0.87241   0.84569   0.72424   0.00000  Uiso   1.00
C1000  C     0.65431   0.87241   0.27577   0.00000  Uiso   1.00
C1001  C     0.84569   0.62759   0.72424   0.00000  Uiso   1.00
C1002  C     0.97881   0.72404   0.45906   0.00000  Uiso   1.00
C1003  C     0.52119   0.77596   0.54094   0.00000  Uiso   1.00
C1004  C     0.77596   0.97881   0.45906   0.00000  Uiso   1.00
H1005  H     0.94133   0.67833   0.46548   0.00000  Uiso   1.00
H1006  H     0.69134   0.57167   0.03452   0.00000  Uiso   1.00
H1007  H     0.57167   0.80866   0.96548   0.00000  Uiso   1.00
H1008  H     0.92833   0.69134   0.03452   0.00000  Uiso   1.00
H1009  H     0.69134   0.57167   0.96548   0.00000  Uiso   1.00
H1010  H     0.80866   0.92833   0.03452   0.00000  Uiso   1.00
H1011  H     0.92833   0.69134   0.96548   0.00000  Uiso   1.00
H1012  H     0.57167   0.80866   0.03452   0.00000  Uiso   1.00
H1013  H     0.62000   0.92681   0.20406   0.00000  Uiso   1.00
H1014  H     0.88000   0.57319   0.79594   0.00000  Uiso   1.00
H1015  H     0.57319   0.62000   0.20406   0.00000  Uiso   1.00
H1016  H     0.55867   0.82167   0.53452   0.00000  Uiso   1.00
H1017  H     0.92681   0.88000   0.79594   0.00000  Uiso   1.00
H1018  H     0.88000   0.57319   0.20406   0.00000  Uiso   1.00
H1019  H     0.62000   0.92681   0.79594   0.00000  Uiso   1.00
H1020  H     0.92681   0.88000   0.20406   0.00000  Uiso   1.00
H1021  H     0.57319   0.62000   0.79594   0.00000  Uiso   1.00
H1022  H     0.62003   0.57319   0.79597   0.00000  Uiso   1.00
H1023  H     0.87997   0.92681   0.20404   0.00000  Uiso   1.00
H1024  H     0.57319   0.87997   0.79597   0.00000  Uiso   1.00
H1025  H     0.92681   0.62003   0.20404   0.00000  Uiso   1.00
H1026  H     0.87997   0.92681   0.79597   0.00000  Uiso   1.00
H1027  H     0.82167   0.94134   0.46548   0.00000  Uiso   1.00
H1028  H     0.62003   0.57319   0.20404   0.00000  Uiso   1.00
H1029  H     0.92681   0.62003   0.79597   0.00000  Uiso   1.00
H1030  H     0.57319   0.87997   0.20404   0.00000  Uiso   1.00
H1031  H     0.87003   0.67681   0.70404   0.00000  Uiso   1.00
H1032  H     0.62997   0.82319   0.29597   0.00000  Uiso   1.00
H1033  H     0.82319   0.87003   0.70404   0.00000  Uiso   1.00
H1034  H     0.67681   0.62997   0.29597   0.00000  Uiso   1.00
H1035  H     0.62997   0.82319   0.70404   0.00000  Uiso   1.00
H1036  H     0.87003   0.67681   0.29597   0.00000  Uiso   1.00
H1037  H     0.67681   0.62997   0.70404   0.00000  Uiso   1.00
H1038  H     0.67833   0.55866   0.53452   0.00000  Uiso   1.00
H1039  H     0.82319   0.87003   0.29597   0.00000  Uiso   1.00
H1040  H     0.87000   0.82319   0.29594   0.00000  Uiso   1.00
H1041  H     0.63000   0.67681   0.70406   0.00000  Uiso   1.00
H1042  H     0.82319   0.63000   0.29594   0.00000  Uiso   1.00
H1043  H     0.67681   0.87000   0.70406   0.00000  Uiso   1.00
H1044  H     0.63000   0.67681   0.29594   0.00000  Uiso   1.00
H1045  H     0.87000   0.82319   0.70406   0.00000  Uiso   1.00
H1046  H     0.67681   0.87000   0.29594   0.00000  Uiso   1.00
H1047  H     0.82319   0.63000   0.70406   0.00000  Uiso   1.00
H1048  H     0.55867   0.82167   0.46548   0.00000  Uiso   1.00
H1049  H     0.94133   0.67833   0.53452   0.00000  Uiso   1.00
H1050  H     0.67833   0.55866   0.46548   0.00000  Uiso   1.00
H1051  H     0.82167   0.94134   0.53452   0.00000  Uiso   1.00
H1052  H     0.80866   0.92833   0.96548   0.00000  Uiso   1.00
N1053  N     0.55778   0.82509   0.37978   0.00000  Uiso   1.00
N1054  N     0.80778   0.92491   0.12022   0.00000  Uiso   1.00
N1055  N     0.92491   0.69222   0.87978   0.00000  Uiso   1.00
N1056  N     0.57509   0.80778   0.12022   0.00000  Uiso   1.00
N1057  N     0.80778   0.92491   0.87978   0.00000  Uiso   1.00
N1058  N     0.69222   0.57509   0.12022   0.00000  Uiso   1.00
N1059  N     0.57509   0.80778   0.87978   0.00000  Uiso   1.00
N1060  N     0.92491   0.69222   0.12022   0.00000  Uiso   1.00
N1061  N     0.94222   0.67491   0.62022   0.00000  Uiso   1.00
N1062  N     0.67491   0.55778   0.37978   0.00000  Uiso   1.00
N1063  N     0.82509   0.94222   0.62022   0.00000  Uiso   1.00
N1064  N     0.94222   0.67491   0.37978   0.00000  Uiso   1.00
N1065  N     0.55778   0.82509   0.62022   0.00000  Uiso   1.00
N1066  N     0.82509   0.94222   0.37978   0.00000  Uiso   1.00
N1067  N     0.67491   0.55778   0.62022   0.00000  Uiso   1.00
N1068  N     0.69222   0.57509   0.87978   0.00000  Uiso   1.00
O1069  O     0.75000   0.50000   0.25000   0.00000  Uiso   1.00
O1070  O     0.75000   0.96964   0.66245   0.00000  Uiso   1.00
O1071  O     0.96963   0.75000   0.33755   0.00000  Uiso   1.00
O1072  O     0.53036   0.75000   0.66245   0.00000  Uiso   1.00
O1073  O     0.50000   0.71964   0.83755   0.00000  Uiso   1.00
O1074  O     0.50000   0.78037   0.16245   0.00000  Uiso   1.00
O1075  O     0.78036   0.50000   0.83755   0.00000  Uiso   1.00
O1076  O     0.71963   0.50000   0.16245   0.00000  Uiso   1.00
O1077  O     0.50000   0.78037   0.83755   0.00000  Uiso   1.00
O1078  O     0.50000   0.71964   0.16245   0.00000  Uiso   1.00
O1079  O     0.71963   0.50000   0.83755   0.00000  Uiso   1.00
O1080  O     0.75000   0.50000   0.75000   0.00000  Uiso   1.00
O1081  O     0.78036   0.50000   0.16245   0.00000  Uiso   1.00
O1082  O     0.70724   0.57308   0.27302   0.00000  Uiso   1.00
O1083  O     0.79275   0.92693   0.72698   0.00000  Uiso   1.00
O1084  O     0.92692   0.70725   0.27302   0.00000  Uiso   1.00
O1085  O     0.57307   0.79276   0.72698   0.00000  Uiso   1.00
O1086  O     0.79275   0.92693   0.27302   0.00000  Uiso   1.00
O1087  O     0.70724   0.57308   0.72698   0.00000  Uiso   1.00
O1088  O     0.57307   0.79276   0.27302   0.00000  Uiso   1.00
O1089  O     0.92692   0.70725   0.72698   0.00000  Uiso   1.00
O1090  O     0.70724   0.92693   0.72698   0.00000  Uiso   1.00
O1091  O     0.50000   0.75000   0.25000   0.00000  Uiso   1.00
O1092  O     0.79275   0.57308   0.27302   0.00000  Uiso   1.00
O1093  O     0.92692   0.79276   0.72698   0.00000  Uiso   1.00
O1094  O     0.57307   0.70725   0.27302   0.00000  Uiso   1.00
O1095  O     0.79275   0.57308   0.72698   0.00000  Uiso   1.00
O1096  O     0.70724   0.92693   0.27302   0.00000  Uiso   1.00
O1097  O     0.57307   0.70725   0.72698   0.00000  Uiso   1.00
O1098  O     0.92692   0.79276   0.27302   0.00000  Uiso   1.00
O1099  O     0.95724   0.82308   0.77302   0.00000  Uiso   1.00
O1100  O     0.54275   0.67693   0.22698   0.00000  Uiso   1.00
O1101  O     0.67692   0.95725   0.77302   0.00000  Uiso   1.00
O1102  O     0.50000   0.75000   0.75000   0.00000  Uiso   1.00
O1103  O     0.82307   0.54276   0.22698   0.00000  Uiso   1.00
O1104  O     0.54275   0.67693   0.77302   0.00000  Uiso   1.00
O1105  O     0.95724   0.82308   0.22698   0.00000  Uiso   1.00
O1106  O     0.82307   0.54276   0.77302   0.00000  Uiso   1.00
O1107  O     0.67692   0.95725   0.22698   0.00000  Uiso   1.00
O1108  O     0.95724   0.67693   0.22698   0.00000  Uiso   1.00
O1109  O     0.54275   0.82308   0.77302   0.00000  Uiso   1.00
O1110  O     0.67692   0.54276   0.22698   0.00000  Uiso   1.00
O1111  O     0.82307   0.95725   0.77302   0.00000  Uiso   1.00
O1112  O     0.54275   0.82308   0.22698   0.00000  Uiso   1.00
O1113  O     0.75000   0.96964   0.33755   0.00000  Uiso   1.00
O1114  O     0.95724   0.67693   0.77302   0.00000  Uiso   1.00
O1115  O     0.82307   0.95725   0.22698   0.00000  Uiso   1.00
O1116  O     0.67692   0.54276   0.77302   0.00000  Uiso   1.00
O1117  O     0.75000   0.53037   0.66245   0.00000  Uiso   1.00
O1118  O     0.53036   0.75000   0.33755   0.00000  Uiso   1.00
O1119  O     0.96963   0.75000   0.66245   0.00000  Uiso   1.00
O1120  O     0.75000   0.53037   0.33755   0.00000  Uiso   1.00
Zn1121 Zn    0.70659   0.50000   0.21735   0.00000  Uiso   1.00
Zn1122 Zn    0.54340   0.75000   0.28265   0.00000  Uiso   1.00
Zn1123 Zn    0.75000   0.95660   0.71735   0.00000  Uiso   1.00
Zn1124 Zn    0.75000   0.54341   0.28265   0.00000  Uiso   1.00
Zn1125 Zn    0.54340   0.75000   0.71735   0.00000  Uiso   1.00
Zn1126 Zn    0.95659   0.75000   0.28265   0.00000  Uiso   1.00
Zn1127 Zn    0.75000   0.54341   0.71735   0.00000  Uiso   1.00
Zn1128 Zn    0.75000   0.95660   0.28265   0.00000  Uiso   1.00
Zn1129 Zn    0.79340   0.50000   0.78265   0.00000  Uiso   1.00
Zn1130 Zn    0.50000   0.70660   0.21735   0.00000  Uiso   1.00
Zn1131 Zn    0.50000   0.79341   0.78265   0.00000  Uiso   1.00
Zn1132 Zn    0.79340   0.50000   0.21735   0.00000  Uiso   1.00
Zn1133 Zn    0.70659   0.50000   0.78265   0.00000  Uiso   1.00
Zn1134 Zn    0.50000   0.79341   0.21735   0.00000  Uiso   1.00
Zn1135 Zn    0.50000   0.70660   0.78265   0.00000  Uiso   1.00
Zn1136 Zn    0.95659   0.75000   0.71735   0.00000  Uiso   1.00
loop_
_geom_bond_atom_site_label_1
_geom_bond_atom_site_label_2
_geom_bond_distance
_geom_bond_site_symmetry_2
_ccdc_geom_bond_type
C1     C43     1.454   .     S
C1     C4      1.407   .     A
C1     C62     1.409   .     S
C2     C636    1.409   .     A
C2     C14     1.407   .     A
C2     C53     1.454   .     S
C3     C131    1.407   .     A
C3     C74     1.405   .     A
C3     C38     1.417   .     S
C4     C75     1.405   .     A
C4     C34     1.417   .     S
C5     C320    1.417   .     A
C5     C65     1.407   .     A
C5     C77     1.405   .     A
C6     C78     1.405   .     A
C6     C76     1.407   .     A
C6     C37     1.417   .     S
C7     C87     1.407   .     A
C7     C79     1.405   .     A
C7     C606    1.417   .     A
C8     C607    1.417   .     A
C8     C35     1.407   .     A
C8     C80     1.405   .     A
C9     C46     1.407   .     A
C9     C40     1.417   .     A
C9     C81     1.405   .     A
C10    C57     1.407   .     A
C10    C82     1.405   .     A
C10    C41     1.417   .     S
C11    C326    1.417   .     A
C11    C83     1.405   .     A
C11    C61     1.407   .     A
C12    C84     1.405   .     A
C12    C142    1.407   .     A
C12    C39     1.417   .     S
C13    C15     1.407   .     A
C13    C54     1.454   .     S
C13    C353    1.409   .     A
C14    C85     1.405   .     A
C14    C608    1.417   .     S
C15    C325    1.417   .     A
C15    C86     1.405   .     A
C16    C88     1.405   .     A
C16    C24     1.407   .     A
C16    C42     1.417   .     S
C17    C104    1.455   .     S
C17    C134    1.402   .     A
C17    C132    1.402   .     A
C18    C133    1.402   .     A
C18    C130    1.402   .     A
C18    C105    1.455   .     S
C19    C97     1.455   .     S
C19    C136    1.402   .     A
C19    C129    1.402   .     A
C20    C128    1.402   .     A
C20    C99     1.455   .     S
C20    C135    1.402   .     A
C21    C138    1.402   .     A
C21    C127    1.402   .     A
C21    C100    1.455   .     S
C22    C137    1.402   .     A
C22    C101    1.455   .     S
C22    C126    1.402   .     A
C23    C125    1.402   .     A
C23    C140    1.402   .     A
C23    C102    1.455   .     S
C24    C55     1.454   .     S
C24    C70     1.409   .     S
C25    C139    1.402   .     A
C25    C103    1.455   .     S
C25    C124    1.402   .     A
C26    C123    1.402   .     A
C26    C143    1.402   .     A
C26    C113    1.456   .     S
C27    C122    1.402   .     A
C27    C141    1.402   .     A
C27    C114    1.456   .     S
C28    C145    1.402   .     A
C28    C106    1.456   .     S
C28    C121    1.402   .     A
C29    C119    1.402   .     A
C29    C144    1.402   .     A
C29    C107    1.456   .     S
C30    C108    1.456   .     S
C30    C118    1.402   .     A
C30    C147    1.402   .     A
C31    C117    1.402   .     A
C31    C146    1.402   .     A
C31    C110    1.456   .     S
C32    C111    1.456   .     S
C32    C149    1.402   .     A
C32    C116    1.402   .     A
C33    C112    1.456   .     S
C33    C115    1.402   .     A
C33    C148    1.402   .     A
C34    C434    1.417   1_455 A
C34    C36     1.416   .     A
C35    C635    1.409   .     A
C35    C56     1.454   .     S
C36    C289    1.417   1_455 A
C36    C151    1.417   .     S
C37    C720    1.417   1_545 A
C37    C38     1.416   .     A
C38    C575    1.417   1_545 A
C39    C576    1.417   1_545 A
C39    C40     1.416   1_556 S
C40    C582    1.417   1_545 S
C40    C39     1.416   1_554 S
C41    C299    1.417   1_455 A
C41    C42     1.416   1_556 S
C42    C295    1.417   1_455 A
C42    C41     1.416   1_554 S
C43    N201    1.158   .     T
C44    N209    1.158   .     T
C44    C65     1.454   .     S
C45    C76     1.454   .     S
C45    N210    1.158   .     T
C46    C58     1.454   .     S
C46    C68     1.409   .     S
C47    N211    1.158   .     T
C47    C87     1.454   .     S
C48    N212    1.158   .     T
C48    C98     1.454   .     S
C49    N213    1.158   .     T
C49    C109    1.454   .     S
C50    N214    1.158   .     T
C50    C120    1.454   .     S
C51    N215    1.158   .     T
C51    C131    1.454   .     S
C52    N216    1.158   .     T
C52    C142    1.454   .     S
C53    N202    1.158   .     T
C54    N203    1.158   .     T
C55    N204    1.158   .     T
C56    N205    1.158   .     T
C57    C59     1.454   .     S
C57    C69     1.409   .     S
C58    N206    1.158   .     T
C59    N207    1.158   .     T
C60    N208    1.158   .     T
C60    C61     1.454   .     S
C61    C354    1.409   .     A
C62    C382    1.409   1_455 A
C62    C91     1.463   .     S
C63    C349    1.409   1_455 A
C63    C92     1.463   .     S
C63    C109    1.409   .     S
C64    C688    1.409   1_545 A
C64    C76     1.409   .     S
C64    C89     1.463   .     S
C65    C347    1.409   .     A
C66    C90     1.463   .     S
C66    C655    1.409   1_545 A
C66    C131    1.409   .     S
C67    C603    1.409   1_545 A
C67    C95     1.463   .     S
C67    C142    1.409   .     S
C68    C96     1.463   .     S
C68    C570    1.409   1_545 A
C69    C93     1.463   .     S
C69    C297    1.409   1_455 A
C70    C345    1.409   1_455 A
C70    C94     1.463   .     S
C71    C150    1.405   .     A
C71    H153    1.082   .     S
C71    C77     1.385   .     A
C72    C75     1.385   .     A
C72    H164    1.082   .     S
C72    C151    1.405   .     A
C73    H175    1.082   .     S
C73    C152    1.405   .     A
C73    C79     1.385   .     A
C74    H186    1.082   .     S
C74    C78     1.385   .     A
C75    H196    1.082   .     S
C77    H197    1.082   .     S
C78    H198    1.082   .     S
C79    H199    1.082   .     S
C80    H200    1.082   .     S
C80    C85     1.385   1_556 S
C81    H154    1.082   .     S
C81    C84     1.385   1_554 S
C82    H155    1.082   .     S
C82    C88     1.385   1_556 S
C83    H156    1.082   .     S
C83    C86     1.385   1_554 S
C84    H157    1.082   .     S
C84    C81     1.385   1_556 S
C85    H158    1.082   .     S
C85    C80     1.385   1_554 S
C86    H159    1.082   .     S
C86    C83     1.385   1_556 S
C87    C634    1.409   .     A
C88    H160    1.082   .     S
C88    C82     1.385   1_554 S
C89    O268    1.278   .     A
C89    O829    1.278   1_545 S
C90    O786    1.278   1_545 A
C90    O265    1.278   .     S
C91    O266    1.278   .     A
C91    O503    1.278   1_455 S
C92    O551    1.278   1_455 A
C92    O220    1.278   .     S
C93    O225    1.278   .     A
C93    O221    1.278   .     A
C94    O226    1.278   .     A
C94    O222    1.278   .     A
C95    O223    1.278   .     A
C95    O227    1.278   .     A
C96    O224    1.278   .     A
C96    O229    1.278   .     A
C97    O258    1.283   .     A
C97    O230    1.283   .     A
C98    C150    1.407   .     A
C98    C346    1.409   .     A
C99    O259    1.283   .     A
C99    O231    1.283   .     A
C100   O232    1.283   .     A
C100   O256    1.283   .     A
C101   O257    1.283   .     A
C101   O233    1.283   .     A
C102   O234    1.283   .     A
C102   O263    1.283   .     A
C103   O264    1.283   .     A
C103   O235    1.283   .     A
C104   O236    1.283   .     A
C104   O260    1.283   .     A
C105   O262    1.283   .     A
C105   O237    1.283   .     A
C106   O249    1.283   .     A
C106   O238    1.283   .     A
C107   O240    1.283   .     A
C107   O251    1.283   .     A
C108   O241    1.283   .     A
C108   O247    1.283   .     A
C109   C151    1.407   .     A
C110   O242    1.283   .     A
C110   O248    1.283   .     A
C111   O254    1.283   .     A
C111   O243    1.283   .     A
C112   O255    1.283   .     A
C112   O244    1.283   .     A
C113   O252    1.283   .     A
C113   O245    1.283   .     A
C114   O253    1.283   .     A
C114   O246    1.283   .     A
C115   C132    1.386   .     A
C115   H161    1.083   .     S
C116   H162    1.083   .     S
C116   C130    1.386   .     A
C117   H163    1.083   .     S
C117   C129    1.386   .     A
C118   C128    1.386   .     A
C118   H165    1.083   .     S
C119   C127    1.386   .     A
C119   H166    1.083   .     S
C120   C152    1.407   .     A
C120   C632    1.409   .     A
C121   H167    1.083   .     S
C121   C126    1.386   .     A
C122   H168    1.083   .     S
C122   C125    1.386   .     A
C123   C124    1.386   .     A
C123   H169    1.083   .     S
C124   H170    1.083   .     S
C125   H171    1.083   .     S
C126   H172    1.083   .     S
C127   H173    1.083   .     S
C128   H174    1.083   .     S
C129   H176    1.083   .     S
C130   H177    1.083   .     S
C132   H178    1.083   .     S
C133   H179    1.083   .     S
C133   C149    1.386   .     A
C134   C148    1.386   .     A
C134   H180    1.083   .     S
C135   C147    1.386   .     A
C135   H181    1.083   .     S
C136   C146    1.386   .     A
C136   H182    1.083   .     S
C137   H183    1.083   .     S
C137   C145    1.386   .     A
C138   H184    1.083   .     S
C138   C144    1.386   .     A
C139   C143    1.386   .     A
C139   H185    1.083   .     S
C140   C141    1.386   .     A
C140   H187    1.083   .     S
C141   H188    1.083   .     S
C143   H189    1.083   .     S
C144   H190    1.083   .     S
C145   H191    1.083   .     S
C146   H192    1.083   .     S
C147   H193    1.083   .     S
C148   H194    1.083   .     S
C149   H195    1.083   .     S
C150   C318    1.417   .     A
C152   C605    1.417   .     A
O217   Zn272   1.950   .     S
O217   Zn269   1.950   .     S
O217   Zn844   1.950   1_545 S
O217   Zn280   1.950   .     S
O218   C658    1.278   .     A
O218   Zn271   1.954   .     S
O219   Zn274   1.954   .     S
O219   C375    1.278   .     S
O220   Zn273   1.954   .     S
O221   Zn283   1.954   .     S
O222   Zn282   1.954   .     S
O223   Zn277   1.954   .     S
O224   Zn269   1.954   .     S
O225   Zn279   1.954   .     S
O226   Zn278   1.954   .     S
O227   Zn281   1.954   .     S
O228   Zn281   1.950   .     S
O228   Zn839   1.950   1_545 S
O228   Zn277   1.950   .     S
O228   Zn275   1.950   .     S
O229   Zn280   1.954   .     S
O230   Zn272   1.937   .     S
O231   Zn271   1.937   .     S
O232   Zn274   1.937   .     S
O233   Zn273   1.937   .     S
O234   Zn276   1.937   .     S
O235   Zn275   1.937   .     S
O236   Zn270   1.937   .     S
O237   Zn284   1.937   .     S
O238   Zn271   1.937   .     S
O239   Zn278   1.950   .     S
O239   Zn558   1.950   1_455 S
O239   Zn270   1.950   .     S
O239   Zn282   1.950   .     S
O240   Zn272   1.937   .     S
O241   Zn284   1.937   .     S
O242   Zn270   1.937   .     S
O243   Zn275   1.937   .     S
O244   Zn276   1.937   .     S
O245   Zn273   1.937   .     S
O246   Zn274   1.937   .     S
O247   Zn563   1.937   .     S
O248   Zn278   1.937   .     S
O249   Zn849   1.937   .     S
O250   Zn568   1.950   1_455 S
O250   Zn279   1.950   .     S
O250   Zn283   1.950   .     S
O250   Zn273   1.950   .     S
O251   Zn280   1.937   .     S
O252   Zn283   1.937   .     S
O253   Zn566   1.937   .     S
O254   Zn277   1.937   .     S
O255   Zn837   1.937   .     S
O256   Zn562   1.937   .     S
O257   Zn279   1.937   .     S
O258   Zn269   1.937   .     S
O259   Zn845   1.937   .     S
O260   Zn282   1.937   .     S
O261   Zn276   1.954   .     S
O261   C657    1.278   .     S
O262   Zn567   1.937   .     S
O263   Zn848   1.937   .     S
O264   Zn281   1.937   .     S
O265   Zn275   1.954   .     S
O266   Zn270   1.954   .     S
O267   C376    1.278   .     A
O267   Zn284   1.954   .     S
O268   Zn272   1.954   .     S
Zn269  O823    1.937   1_545 S
Zn271  O796    1.950   .     S
Zn274  O523    1.950   .     S
Zn276  O785    1.950   .     S
Zn277  O827    1.937   1_545 S
Zn278  O540    1.937   1_455 S
Zn279  O531    1.937   1_455 S
Zn280  O831    1.937   1_545 S
Zn281  O817    1.937   1_545 S
Zn282  O537    1.937   1_455 S
Zn283  O546    1.937   1_455 S
Zn284  O534    1.950   .     S
C285   C327    1.454   .     S
C285   C288    1.407   .     A
C285   C346    1.409   .     S
C286   C920    1.409   .     A
C286   C298    1.407   .     A
C286   C337    1.454   .     S
C287   C415    1.407   .     A
C287   C358    1.405   .     A
C287   C322    1.417   .     S
C288   C359    1.405   .     A
C288   C318    1.417   .     S
C289   C36     1.417   1_655 A
C289   C349    1.407   .     A
C289   C361    1.405   .     A
C290   C362    1.405   .     A
C290   C360    1.407   .     A
C290   C321    1.417   .     S
C291   C371    1.407   .     A
C291   C363    1.405   .     A
C291   C890    1.417   .     A
C292   C891    1.417   .     A
C292   C319    1.407   .     A
C292   C364    1.405   .     A
C293   C330    1.407   .     A
C293   C324    1.417   .     A
C293   C365    1.405   .     A
C294   C341    1.407   .     A
C294   C366    1.405   .     A
C294   C325    1.417   .     S
C295   C42     1.417   1_655 A
C295   C367    1.405   .     A
C295   C345    1.407   .     A
C296   C368    1.405   .     A
C296   C426    1.407   .     A
C296   C323    1.417   .     S
C297   C299    1.407   .     A
C297   C338    1.454   .     S
C297   C69     1.409   1_655 A
C298   C369    1.405   .     A
C298   C892    1.417   .     S
C299   C41     1.417   1_655 A
C299   C370    1.405   .     A
C300   C372    1.405   .     A
C300   C308    1.407   .     A
C300   C326    1.417   .     S
C301   C388    1.455   .     S
C301   C418    1.402   .     A
C301   C416    1.402   .     A
C302   C417    1.402   .     A
C302   C414    1.402   .     A
C302   C389    1.455   .     S
C303   C381    1.455   .     S
C303   C420    1.402   .     A
C303   C413    1.402   .     A
C304   C412    1.402   .     A
C304   C383    1.455   .     S
C304   C419    1.402   .     A
C305   C422    1.402   .     A
C305   C411    1.402   .     A
C305   C384    1.455   .     S
C306   C421    1.402   .     A
C306   C385    1.455   .     S
C306   C410    1.402   .     A
C307   C409    1.402   .     A
C307   C424    1.402   .     A
C307   C386    1.455   .     S
C308   C339    1.454   .     S
C308   C354    1.409   .     S
C309   C423    1.402   .     A
C309   C387    1.455   .     S
C309   C408    1.402   .     A
C310   C407    1.402   .     A
C310   C427    1.402   .     A
C310   C397    1.456   .     S
C311   C406    1.402   .     A
C311   C425    1.402   .     A
C311   C398    1.456   .     S
C312   C429    1.402   .     A
C312   C390    1.456   .     S
C312   C405    1.402   .     A
C313   C403    1.402   .     A
C313   C428    1.402   .     A
C313   C391    1.456   .     S
C314   C392    1.456   .     S
C314   C402    1.402   .     A
C314   C431    1.402   .     A
C315   C401    1.402   .     A
C315   C430    1.402   .     A
C315   C394    1.456   .     S
C316   C395    1.456   .     S
C316   C433    1.402   .     A
C316   C400    1.402   .     A
C317   C396    1.456   .     S
C317   C399    1.402   .     A
C317   C432    1.402   .     A
C318   C320    1.416   .     A
C319   C919    1.409   .     A
C319   C340    1.454   .     S
C320   C435    1.417   .     S
C321   C1004   1.417   1_545 A
C321   C322    1.416   .     A
C322   C859    1.417   1_545 A
C323   C860    1.417   1_545 A
C323   C324    1.416   1_556 S
C324   C866    1.417   1_545 S
C324   C323    1.416   1_554 S
C325   C326    1.416   1_556 S
C326   C325    1.416   1_554 S
C327   N485    1.158   .     T
C328   N493    1.158   .     T
C328   C349    1.454   .     S
C329   C360    1.454   .     S
C329   N494    1.158   .     T
C330   C342    1.454   .     S
C330   C352    1.409   .     S
C331   N495    1.158   .     T
C331   C371    1.454   .     S
C332   N496    1.158   .     T
C332   C382    1.454   .     S
C333   N497    1.158   .     T
C333   C393    1.454   .     S
C334   N498    1.158   .     T
C334   C404    1.454   .     S
C335   N499    1.158   .     T
C335   C415    1.454   .     S
C336   N500    1.158   .     T
C336   C426    1.454   .     S
C337   N486    1.158   .     T
C338   N487    1.158   .     T
C339   N488    1.158   .     T
C340   N489    1.158   .     T
C341   C343    1.454   .     S
C341   C353    1.409   .     S
C342   N490    1.158   .     T
C343   N491    1.158   .     T
C344   N492    1.158   .     T
C344   C345    1.454   .     S
C345   C70     1.409   1_655 A
C346   C375    1.463   .     S
C347   C376    1.463   .     S
C347   C393    1.409   .     S
C348   C972    1.409   1_545 A
C348   C360    1.409   .     S
C348   C373    1.463   .     S
C349   C63     1.409   1_655 A
C350   C374    1.463   .     S
C350   C939    1.409   1_545 A
C350   C415    1.409   .     S
C351   C887    1.409   1_545 A
C351   C379    1.463   .     S
C351   C426    1.409   .     S
C352   C380    1.463   .     S
C352   C854    1.409   1_545 A
C353   C377    1.463   .     S
C354   C378    1.463   .     S
C355   C434    1.405   .     A
C355   H437    1.082   .     S
C355   C361    1.385   .     A
C356   C359    1.385   .     A
C356   H448    1.082   .     S
C356   C435    1.405   .     A
C357   H459    1.082   .     S
C357   C436    1.405   .     A
C357   C363    1.385   .     A
C358   H470    1.082   .     S
C358   C362    1.385   .     A
C359   H480    1.082   .     S
C361   H481    1.082   .     S
C362   H482    1.082   .     S
C363   H483    1.082   .     S
C364   H484    1.082   .     S
C364   C369    1.385   1_556 S
C365   H438    1.082   .     S
C365   C368    1.385   1_554 S
C366   H439    1.082   .     S
C366   C372    1.385   1_556 S
C367   H440    1.082   .     S
C367   C370    1.385   1_554 S
C368   H441    1.082   .     S
C368   C365    1.385   1_556 S
C369   H442    1.082   .     S
C369   C364    1.385   1_554 S
C370   H443    1.082   .     S
C370   C367    1.385   1_556 S
C371   C918    1.409   .     A
C372   H444    1.082   .     S
C372   C366    1.385   1_554 S
C373   O552    1.278   .     A
C373   O1113   1.278   1_545 S
C374   O1070   1.278   1_545 A
C374   O549    1.278   .     S
C375   O550    1.278   .     A
C376   O504    1.278   .     S
C377   O509    1.278   .     A
C377   O505    1.278   .     A
C378   O510    1.278   .     A
C378   O506    1.278   .     A
C379   O507    1.278   .     A
C379   O511    1.278   .     A
C380   O508    1.278   .     A
C380   O513    1.278   .     A
C381   O542    1.283   .     A
C381   O514    1.283   .     A
C382   C434    1.407   .     A
C382   C62     1.409   1_655 A
C383   O543    1.283   .     A
C383   O515    1.283   .     A
C384   O516    1.283   .     A
C384   O540    1.283   .     A
C385   O541    1.283   .     A
C385   O517    1.283   .     A
C386   O518    1.283   .     A
C386   O547    1.283   .     A
C387   O548    1.283   .     A
C387   O519    1.283   .     A
C388   O520    1.283   .     A
C388   O544    1.283   .     A
C389   O546    1.283   .     A
C389   O521    1.283   .     A
C390   O533    1.283   .     A
C390   O522    1.283   .     A
C391   O524    1.283   .     A
C391   O535    1.283   .     A
C392   O525    1.283   .     A
C392   O531    1.283   .     A
C393   C435    1.407   .     A
C394   O526    1.283   .     A
C394   O532    1.283   .     A
C395   O538    1.283   .     A
C395   O527    1.283   .     A
C396   O539    1.283   .     A
C396   O528    1.283   .     A
C397   O536    1.283   .     A
C397   O529    1.283   .     A
C398   O537    1.283   .     A
C398   O530    1.283   .     A
C399   C416    1.386   .     A
C399   H445    1.083   .     S
C400   H446    1.083   .     S
C400   C414    1.386   .     A
C401   H447    1.083   .     S
C401   C413    1.386   .     A
C402   C412    1.386   .     A
C402   H449    1.083   .     S
C403   C411    1.386   .     A
C403   H450    1.083   .     S
C404   C436    1.407   .     A
C404   C916    1.409   .     A
C405   H451    1.083   .     S
C405   C410    1.386   .     A
C406   H452    1.083   .     S
C406   C409    1.386   .     A
C407   C408    1.386   .     A
C407   H453    1.083   .     S
C408   H454    1.083   .     S
C409   H455    1.083   .     S
C410   H456    1.083   .     S
C411   H457    1.083   .     S
C412   H458    1.083   .     S
C413   H460    1.083   .     S
C414   H461    1.083   .     S
C416   H462    1.083   .     S
C417   H463    1.083   .     S
C417   C433    1.386   .     A
C418   C432    1.386   .     A
C418   H464    1.083   .     S
C419   C431    1.386   .     A
C419   H465    1.083   .     S
C420   C430    1.386   .     A
C420   H466    1.083   .     S
C421   H467    1.083   .     S
C421   C429    1.386   .     A
C422   H468    1.083   .     S
C422   C428    1.386   .     A
C423   C427    1.386   .     A
C423   H469    1.083   .     S
C424   C425    1.386   .     A
C424   H471    1.083   .     S
C425   H472    1.083   .     S
C427   H473    1.083   .     S
C428   H474    1.083   .     S
C429   H475    1.083   .     S
C430   H476    1.083   .     S
C431   H477    1.083   .     S
C432   H478    1.083   .     S
C433   H479    1.083   .     S
C434   C34     1.417   1_655 A
C436   C889    1.417   .     A
O501   Zn556   1.950   .     S
O501   Zn553   1.950   .     S
O501   Zn1128  1.950   1_545 S
O501   Zn564   1.950   .     S
O502   C942    1.278   .     A
O502   Zn555   1.954   .     S
O503   Zn558   1.954   .     S
O503   C91     1.278   1_655 S
O504   Zn557   1.954   .     S
O505   Zn567   1.954   .     S
O506   Zn566   1.954   .     S
O507   Zn561   1.954   .     S
O508   Zn553   1.954   .     S
O509   Zn563   1.954   .     S
O510   Zn562   1.954   .     S
O511   Zn565   1.954   .     S
O512   Zn565   1.950   .     S
O512   Zn1123  1.950   1_545 S
O512   Zn561   1.950   .     S
O512   Zn559   1.950   .     S
O513   Zn564   1.954   .     S
O514   Zn556   1.937   .     S
O515   Zn555   1.937   .     S
O516   Zn558   1.937   .     S
O517   Zn557   1.937   .     S
O518   Zn560   1.937   .     S
O519   Zn559   1.937   .     S
O520   Zn554   1.937   .     S
O521   Zn568   1.937   .     S
O522   Zn555   1.937   .     S
O523   Zn562   1.950   .     S
O523   Zn554   1.950   .     S
O523   Zn566   1.950   .     S
O524   Zn556   1.937   .     S
O525   Zn568   1.937   .     S
O526   Zn554   1.937   .     S
O527   Zn559   1.937   .     S
O528   Zn560   1.937   .     S
O529   Zn557   1.937   .     S
O530   Zn558   1.937   .     S
O531   Zn279   1.937   1_655 S
O532   Zn562   1.937   .     S
O533   Zn1133  1.937   .     S
O534   Zn563   1.950   .     S
O534   Zn567   1.950   .     S
O534   Zn557   1.950   .     S
O535   Zn564   1.937   .     S
O536   Zn567   1.937   .     S
O537   Zn282   1.937   1_655 S
O538   Zn561   1.937   .     S
O539   Zn1121  1.937   .     S
O540   Zn278   1.937   1_655 S
O541   Zn563   1.937   .     S
O542   Zn553   1.937   .     S
O543   Zn1129  1.937   .     S
O544   Zn566   1.937   .     S
O545   Zn560   1.954   .     S
O545   C941    1.278   .     S
O546   Zn283   1.937   1_655 S
O547   Zn1132  1.937   .     S
O548   Zn565   1.937   .     S
O549   Zn559   1.954   .     S
O550   Zn554   1.954   .     S
O551   C92     1.278   1_655 A
O551   Zn568   1.954   .     S
O552   Zn556   1.954   .     S
Zn553  O1107   1.937   1_545 S
Zn555  O1080   1.950   .     S
Zn558  O239    1.950   1_655 S
Zn560  O1069   1.950   .     S
Zn561  O1111   1.937   1_545 S
Zn564  O1115   1.937   1_545 S
Zn565  O1101   1.937   1_545 S
Zn568  O250    1.950   1_655 S
C569   C611    1.454   .     S
C569   C572    1.407   .     A
C569   C630    1.409   .     S
C570   C68     1.409   1_565 A
C570   C582    1.407   .     A
C570   C621    1.454   .     S
C571   C699    1.407   .     A
C571   C642    1.405   .     A
C571   C606    1.417   .     S
C572   C643    1.405   .     A
C572   C602    1.417   .     S
C573   C888    1.417   .     A
C573   C633    1.407   .     A
C573   C645    1.405   .     A
C574   C646    1.405   .     A
C574   C644    1.407   .     A
C574   C605    1.417   .     S
C575   C655    1.407   .     A
C575   C647    1.405   .     A
C575   C38     1.417   1_565 A
C576   C39     1.417   1_565 A
C576   C603    1.407   .     A
C576   C648    1.405   .     A
C577   C614    1.407   .     A
C577   C608    1.417   .     A
C577   C649    1.405   .     A
C578   C625    1.407   .     A
C578   C650    1.405   .     A
C578   C609    1.417   .     S
C579   C894    1.417   .     A
C579   C651    1.405   .     A
C579   C629    1.407   .     A
C580   C652    1.405   .     A
C580   C710    1.407   .     A
C580   C607    1.417   .     S
C581   C583    1.407   .     A
C581   C622    1.454   .     S
C581   C921    1.409   .     A
C582   C653    1.405   .     A
C582   C40     1.417   1_565 S
C583   C893    1.417   .     A
C583   C654    1.405   .     A
C584   C656    1.405   .     A
C584   C592    1.407   .     A
C584   C610    1.417   .     S
C585   C672    1.455   .     S
C585   C702    1.402   .     A
C585   C700    1.402   .     A
C586   C701    1.402   .     A
C586   C698    1.402   .     A
C586   C673    1.455   .     S
C587   C665    1.455   .     S
C587   C704    1.402   .     A
C587   C697    1.402   .     A
C588   C696    1.402   .     A
C588   C667    1.455   .     S
C588   C703    1.402   .     A
C589   C706    1.402   .     A
C589   C695    1.402   .     A
C589   C668    1.455   .     S
C590   C705    1.402   .     A
C590   C669    1.455   .     S
C590   C694    1.402   .     A
C591   C693    1.402   .     A
C591   C708    1.402   .     A
C591   C670    1.455   .     S
C592   C623    1.454   .     S
C592   C638    1.409   .     S
C593   C707    1.402   .     A
C593   C671    1.455   .     S
C593   C692    1.402   .     A
C594   C691    1.402   .     A
C594   C711    1.402   .     A
C594   C681    1.456   .     S
C595   C690    1.402   .     A
C595   C709    1.402   .     A
C595   C682    1.456   .     S
C596   C713    1.402   .     A
C596   C674    1.456   .     S
C596   C689    1.402   .     A
C597   C687    1.402   .     A
C597   C712    1.402   .     A
C597   C675    1.456   .     S
C598   C676    1.456   .     S
C598   C686    1.402   .     A
C598   C715    1.402   .     A
C599   C685    1.402   .     A
C599   C714    1.402   .     A
C599   C678    1.456   .     S
C600   C679    1.456   .     S
C600   C717    1.402   .     A
C600   C684    1.402   .     A
C601   C680    1.456   .     S
C601   C683    1.402   .     A
C601   C716    1.402   .     A
C602   C1002   1.417   1_455 A
C602   C604    1.416   .     A
C603   C67     1.409   1_565 A
C603   C624    1.454   .     S
C604   C857    1.417   1_455 A
C604   C719    1.417   .     S
C605   C606    1.416   .     A
C607   C608    1.416   1_556 S
C608   C607    1.416   1_554 S
C609   C867    1.417   1_455 A
C609   C610    1.416   1_556 S
C610   C863    1.417   1_455 A
C610   C609    1.416   1_554 S
C611   N769    1.158   .     T
C612   N777    1.158   .     T
C612   C633    1.454   .     S
C613   C644    1.454   .     S
C613   N778    1.158   .     T
C614   C626    1.454   .     S
C614   C636    1.409   .     S
C615   N779    1.158   .     T
C615   C655    1.454   .     S
C616   N780    1.158   .     T
C616   C666    1.454   .     S
C617   N781    1.158   .     T
C617   C677    1.454   .     S
C618   N782    1.158   .     T
C618   C688    1.454   .     S
C619   N783    1.158   .     T
C619   C699    1.454   .     S
C620   N784    1.158   .     T
C620   C710    1.454   .     S
C621   N770    1.158   .     T
C622   N771    1.158   .     T
C623   N772    1.158   .     T
C624   N773    1.158   .     T
C625   C627    1.454   .     S
C625   C637    1.409   .     S
C626   N774    1.158   .     T
C627   N775    1.158   .     T
C628   N776    1.158   .     T
C628   C629    1.454   .     S
C629   C922    1.409   .     A
C630   C950    1.409   1_455 A
C630   C659    1.463   .     S
C631   C917    1.409   1_455 A
C631   C660    1.463   .     S
C631   C677    1.409   .     S
C632   C644    1.409   .     S
C632   C657    1.463   .     S
C633   C915    1.409   .     A
C634   C658    1.463   .     S
C634   C699    1.409   .     S
C635   C663    1.463   .     S
C635   C710    1.409   .     S
C636   C664    1.463   .     S
C637   C661    1.463   .     S
C637   C865    1.409   1_455 A
C638   C913    1.409   1_455 A
C638   C662    1.463   .     S
C639   C718    1.405   .     A
C639   H721    1.082   .     S
C639   C645    1.385   .     A
C640   C643    1.385   .     A
C640   H732    1.082   .     S
C640   C719    1.405   .     A
C641   H743    1.082   .     S
C641   C720    1.405   .     A
C641   C647    1.385   .     A
C642   H754    1.082   .     S
C642   C646    1.385   .     A
C643   H764    1.082   .     S
C645   H765    1.082   .     S
C646   H766    1.082   .     S
C647   H767    1.082   .     S
C648   H768    1.082   .     S
C648   C653    1.385   1_556 S
C649   H722    1.082   .     S
C649   C652    1.385   1_554 S
C650   H723    1.082   .     S
C650   C656    1.385   1_556 S
C651   H724    1.082   .     S
C651   C654    1.385   1_554 S
C652   H725    1.082   .     S
C652   C649    1.385   1_556 S
C653   H726    1.082   .     S
C653   C648    1.385   1_554 S
C654   H727    1.082   .     S
C654   C651    1.385   1_556 S
C655   C66     1.409   1_565 A
C656   H728    1.082   .     S
C656   C650    1.385   1_554 S
C657   O836    1.278   .     A
C658   O833    1.278   .     S
C659   O834    1.278   .     A
C659   O1071   1.278   1_455 S
C660   O1119   1.278   1_455 A
C660   O788    1.278   .     S
C661   O793    1.278   .     A
C661   O789    1.278   .     A
C662   O794    1.278   .     A
C662   O790    1.278   .     A
C663   O791    1.278   .     A
C663   O795    1.278   .     A
C664   O792    1.278   .     A
C664   O797    1.278   .     A
C665   O826    1.283   .     A
C665   O798    1.283   .     A
C666   C718    1.407   .     A
C666   C914    1.409   .     A
C667   O827    1.283   .     A
C667   O799    1.283   .     A
C668   O800    1.283   .     A
C668   O824    1.283   .     A
C669   O825    1.283   .     A
C669   O801    1.283   .     A
C670   O802    1.283   .     A
C670   O831    1.283   .     A
C671   O832    1.283   .     A
C671   O803    1.283   .     A
C672   O804    1.283   .     A
C672   O828    1.283   .     A
C673   O830    1.283   .     A
C673   O805    1.283   .     A
C674   O817    1.283   .     A
C674   O806    1.283   .     A
C675   O808    1.283   .     A
C675   O819    1.283   .     A
C676   O809    1.283   .     A
C676   O815    1.283   .     A
C677   C719    1.407   .     A
C678   O810    1.283   .     A
C678   O816    1.283   .     A
C679   O822    1.283   .     A
C679   O811    1.283   .     A
C680   O823    1.283   .     A
C680   O812    1.283   .     A
C681   O820    1.283   .     A
C681   O813    1.283   .     A
C682   O821    1.283   .     A
C682   O814    1.283   .     A
C683   C700    1.386   .     A
C683   H729    1.083   .     S
C684   H730    1.083   .     S
C684   C698    1.386   .     A
C685   H731    1.083   .     S
C685   C697    1.386   .     A
C686   C696    1.386   .     A
C686   H733    1.083   .     S
C687   C695    1.386   .     A
C687   H734    1.083   .     S
C688   C720    1.407   .     A
C688   C64     1.409   1_565 A
C689   H735    1.083   .     S
C689   C694    1.386   .     A
C690   H736    1.083   .     S
C690   C693    1.386   .     A
C691   C692    1.386   .     A
C691   H737    1.083   .     S
C692   H738    1.083   .     S
C693   H739    1.083   .     S
C694   H740    1.083   .     S
C695   H741    1.083   .     S
C696   H742    1.083   .     S
C697   H744    1.083   .     S
C698   H745    1.083   .     S
C700   H746    1.083   .     S
C701   H747    1.083   .     S
C701   C717    1.386   .     A
C702   C716    1.386   .     A
C702   H748    1.083   .     S
C703   C715    1.386   .     A
C703   H749    1.083   .     S
C704   C714    1.386   .     A
C704   H750    1.083   .     S
C705   H751    1.083   .     S
C705   C713    1.386   .     A
C706   H752    1.083   .     S
C706   C712    1.386   .     A
C707   C711    1.386   .     A
C707   H753    1.083   .     S
C708   C709    1.386   .     A
C708   H755    1.083   .     S
C709   H756    1.083   .     S
C711   H757    1.083   .     S
C712   H758    1.083   .     S
C713   H759    1.083   .     S
C714   H760    1.083   .     S
C715   H761    1.083   .     S
C716   H762    1.083   .     S
C717   H763    1.083   .     S
C718   C886    1.417   .     A
C720   C37     1.417   1_565 A
O785   Zn840   1.950   .     S
O785   Zn837   1.950   .     S
O785   Zn848   1.950   .     S
O786   C90     1.278   1_565 A
O786   Zn839   1.954   .     S
O787   Zn842   1.954   .     S
O787   C943    1.278   .     S
O788   Zn841   1.954   .     S
O789   Zn851   1.954   .     S
O790   Zn850   1.954   .     S
O791   Zn845   1.954   .     S
O792   Zn837   1.954   .     S
O793   Zn847   1.954   .     S
O794   Zn846   1.954   .     S
O795   Zn849   1.954   .     S
O796   Zn849   1.950   .     S
O796   Zn845   1.950   .     S
O796   Zn843   1.950   .     S
O797   Zn848   1.954   .     S
O798   Zn840   1.937   .     S
O799   Zn839   1.937   .     S
O800   Zn842   1.937   .     S
O801   Zn841   1.937   .     S
O802   Zn844   1.937   .     S
O803   Zn843   1.937   .     S
O804   Zn838   1.937   .     S
O805   Zn852   1.937   .     S
O806   Zn839   1.937   .     S
O807   Zn846   1.950   .     S
O807   Zn1126  1.950   1_455 S
O807   Zn838   1.950   .     S
O807   Zn850   1.950   .     S
O808   Zn840   1.937   .     S
O809   Zn852   1.937   .     S
O810   Zn838   1.937   .     S
O811   Zn843   1.937   .     S
O812   Zn844   1.937   .     S
O813   Zn841   1.937   .     S
O814   Zn842   1.937   .     S
O815   Zn1131  1.937   .     S
O816   Zn846   1.937   .     S
O817   Zn281   1.937   1_565 S
O818   Zn1136  1.950   1_455 S
O818   Zn847   1.950   .     S
O818   Zn851   1.950   .     S
O818   Zn841   1.950   .     S
O819   Zn848   1.937   .     S
O820   Zn851   1.937   .     S
O821   Zn1134  1.937   .     S
O822   Zn845   1.937   .     S
O823   Zn269   1.937   1_565 S
O824   Zn1130  1.937   .     S
O825   Zn847   1.937   .     S
O826   Zn837   1.937   .     S
O827   Zn277   1.937   1_565 S
O828   Zn850   1.937   .     S
O829   Zn844   1.954   .     S
O829   C89     1.278   1_565 S
O830   Zn1135  1.937   .     S
O831   Zn280   1.937   1_565 S
O832   Zn849   1.937   .     S
O833   Zn843   1.954   .     S
O834   Zn838   1.954   .     S
O835   C944    1.278   .     A
O835   Zn852   1.954   .     S
O836   Zn840   1.954   .     S
Zn839  O228    1.950   1_565 S
Zn842  O1091   1.950   .     S
Zn844  O217    1.950   1_565 S
Zn846  O1108   1.937   1_455 S
Zn847  O1099   1.937   1_455 S
Zn850  O1105   1.937   1_455 S
Zn851  O1114   1.937   1_455 S
Zn852  O1102   1.950   .     S
C853   C895    1.454   .     S
C853   C856    1.407   .     A
C853   C914    1.409   .     S
C854   C352    1.409   1_565 A
C854   C866    1.407   .     A
C854   C905    1.454   .     S
C855   C983    1.407   .     A
C855   C926    1.405   .     A
C855   C890    1.417   .     S
C856   C927    1.405   .     A
C856   C886    1.417   .     S
C857   C604    1.417   1_655 A
C857   C917    1.407   .     A
C857   C929    1.405   .     A
C858   C930    1.405   .     A
C858   C928    1.407   .     A
C858   C889    1.417   .     S
C859   C939    1.407   .     A
C859   C931    1.405   .     A
C859   C322    1.417   1_565 A
C860   C323    1.417   1_565 A
C860   C887    1.407   .     A
C860   C932    1.405   .     A
C861   C898    1.407   .     A
C861   C892    1.417   .     A
C861   C933    1.405   .     A
C862   C909    1.407   .     A
C862   C934    1.405   .     A
C862   C893    1.417   .     S
C863   C610    1.417   1_655 A
C863   C935    1.405   .     A
C863   C913    1.407   .     A
C864   C936    1.405   .     A
C864   C994    1.407   .     A
C864   C891    1.417   .     S
C865   C867    1.407   .     A
C865   C906    1.454   .     S
C865   C637    1.409   1_655 A
C866   C937    1.405   .     A
C866   C324    1.417   1_565 S
C867   C609    1.417   1_655 A
C867   C938    1.405   .     A
C868   C940    1.405   .     A
C868   C876    1.407   .     A
C868   C894    1.417   .     S
C869   C956    1.455   .     S
C869   C986    1.402   .     A
C869   C984    1.402   .     A
C870   C985    1.402   .     A
C870   C982    1.402   .     A
C870   C957    1.455   .     S
C871   C949    1.455   .     S
C871   C988    1.402   .     A
C871   C981    1.402   .     A
C872   C980    1.402   .     A
C872   C951    1.455   .     S
C872   C987    1.402   .     A
C873   C990    1.402   .     A
C873   C979    1.402   .     A
C873   C952    1.455   .     S
C874   C989    1.402   .     A
C874   C953    1.455   .     S
C874   C978    1.402   .     A
C875   C977    1.402   .     A
C875   C992    1.402   .     A
C875   C954    1.455   .     S
C876   C907    1.454   .     S
C876   C922    1.409   .     S
C877   C991    1.402   .     A
C877   C955    1.455   .     S
C877   C976    1.402   .     A
C878   C975    1.402   .     A
C878   C995    1.402   .     A
C878   C965    1.456   .     S
C879   C974    1.402   .     A
C879   C993    1.402   .     A
C879   C966    1.456   .     S
C880   C997    1.402   .     A
C880   C958    1.456   .     S
C880   C973    1.402   .     A
C881   C971    1.402   .     A
C881   C996    1.402   .     A
C881   C959    1.456   .     S
C882   C960    1.456   .     S
C882   C970    1.402   .     A
C882   C999    1.402   .     A
C883   C969    1.402   .     A
C883   C998    1.402   .     A
C883   C962    1.456   .     S
C884   C963    1.456   .     S
C884   C1001   1.402   .     A
C884   C968    1.402   .     A
C885   C964    1.456   .     S
C885   C967    1.402   .     A
C885   C1000   1.402   .     A
C886   C888    1.416   .     A
C887   C351    1.409   1_565 A
C887   C908    1.454   .     S
C888   C1003   1.417   .     S
C889   C890    1.416   .     A
C891   C892    1.416   1_556 S
C892   C891    1.416   1_554 S
C893   C894    1.416   1_556 S
C894   C893    1.416   1_554 S
C895   N1053   1.158   .     T
C896   N1061   1.158   .     T
C896   C917    1.454   .     S
C897   C928    1.454   .     S
C897   N1062   1.158   .     T
C898   C910    1.454   .     S
C898   C920    1.409   .     S
C899   N1063   1.158   .     T
C899   C939    1.454   .     S
C900   N1064   1.158   .     T
C900   C950    1.454   .     S
C901   N1065   1.158   .     T
C901   C961    1.454   .     S
C902   N1066   1.158   .     T
C902   C972    1.454   .     S
C903   N1067   1.158   .     T
C903   C983    1.454   .     S
C904   N1068   1.158   .     T
C904   C994    1.454   .     S
C905   N1054   1.158   .     T
C906   N1055   1.158   .     T
C907   N1056   1.158   .     T
C908   N1057   1.158   .     T
C909   C911    1.454   .     S
C909   C921    1.409   .     S
C910   N1058   1.158   .     T
C911   N1059   1.158   .     T
C912   N1060   1.158   .     T
C912   C913    1.454   .     S
C913   C638    1.409   1_655 A
C914   C943    1.463   .     S
C915   C944    1.463   .     S
C915   C961    1.409   .     S
C916   C928    1.409   .     S
C916   C941    1.463   .     S
C917   C631    1.409   1_655 A
C918   C942    1.463   .     S
C918   C983    1.409   .     S
C919   C947    1.463   .     S
C919   C994    1.409   .     S
C920   C948    1.463   .     S
C921   C945    1.463   .     S
C922   C946    1.463   .     S
C923   C1002   1.405   .     A
C923   H1005   1.082   .     S
C923   C929    1.385   .     A
C924   C927    1.385   .     A
C924   H1016   1.082   .     S
C924   C1003   1.405   .     A
C925   H1027   1.082   .     S
C925   C1004   1.405   .     A
C925   C931    1.385   .     A
C926   H1038   1.082   .     S
C926   C930    1.385   .     A
C927   H1048   1.082   .     S
C929   H1049   1.082   .     S
C930   H1050   1.082   .     S
C931   H1051   1.082   .     S
C932   H1052   1.082   .     S
C932   C937    1.385   1_556 S
C933   H1006   1.082   .     S
C933   C936    1.385   1_554 S
C934   H1007   1.082   .     S
C934   C940    1.385   1_556 S
C935   H1008   1.082   .     S
C935   C938    1.385   1_554 S
C936   H1009   1.082   .     S
C936   C933    1.385   1_556 S
C937   H1010   1.082   .     S
C937   C932    1.385   1_554 S
C938   H1011   1.082   .     S
C938   C935    1.385   1_556 S
C939   C350    1.409   1_565 A
C940   H1012   1.082   .     S
C940   C934    1.385   1_554 S
C941   O1120   1.278   .     A
C942   O1117   1.278   .     S
C943   O1118   1.278   .     A
C944   O1072   1.278   .     S
C945   O1077   1.278   .     A
C945   O1073   1.278   .     A
C946   O1078   1.278   .     A
C946   O1074   1.278   .     A
C947   O1075   1.278   .     A
C947   O1079   1.278   .     A
C948   O1076   1.278   .     A
C948   O1081   1.278   .     A
C949   O1110   1.283   .     A
C949   O1082   1.283   .     A
C950   C1002   1.407   .     A
C950   C630    1.409   1_655 A
C951   O1111   1.283   .     A
C951   O1083   1.283   .     A
C952   O1084   1.283   .     A
C952   O1108   1.283   .     A
C953   O1109   1.283   .     A
C953   O1085   1.283   .     A
C954   O1086   1.283   .     A
C954   O1115   1.283   .     A
C955   O1116   1.283   .     A
C955   O1087   1.283   .     A
C956   O1088   1.283   .     A
C956   O1112   1.283   .     A
C957   O1114   1.283   .     A
C957   O1089   1.283   .     A
C958   O1101   1.283   .     A
C958   O1090   1.283   .     A
C959   O1092   1.283   .     A
C959   O1103   1.283   .     A
C960   O1093   1.283   .     A
C960   O1099   1.283   .     A
C961   C1003   1.407   .     A
C962   O1094   1.283   .     A
C962   O1100   1.283   .     A
C963   O1106   1.283   .     A
C963   O1095   1.283   .     A
C964   O1107   1.283   .     A
C964   O1096   1.283   .     A
C965   O1104   1.283   .     A
C965   O1097   1.283   .     A
C966   O1105   1.283   .     A
C966   O1098   1.283   .     A
C967   C984    1.386   .     A
C967   H1013   1.083   .     S
C968   H1014   1.083   .     S
C968   C982    1.386   .     A
C969   H1015   1.083   .     S
C969   C981    1.386   .     A
C970   C980    1.386   .     A
C970   H1017   1.083   .     S
C971   C979    1.386   .     A
C971   H1018   1.083   .     S
C972   C1004   1.407   .     A
C972   C348    1.409   1_565 A
C973   H1019   1.083   .     S
C973   C978    1.386   .     A
C974   H1020   1.083   .     S
C974   C977    1.386   .     A
C975   C976    1.386   .     A
C975   H1021   1.083   .     S
C976   H1022   1.083   .     S
C977   H1023   1.083   .     S
C978   H1024   1.083   .     S
C979   H1025   1.083   .     S
C980   H1026   1.083   .     S
C981   H1028   1.083   .     S
C982   H1029   1.083   .     S
C984   H1030   1.083   .     S
C985   H1031   1.083   .     S
C985   C1001   1.386   .     A
C986   C1000   1.386   .     A
C986   H1032   1.083   .     S
C987   C999    1.386   .     A
C987   H1033   1.083   .     S
C988   C998    1.386   .     A
C988   H1034   1.083   .     S
C989   H1035   1.083   .     S
C989   C997    1.386   .     A
C990   H1036   1.083   .     S
C990   C996    1.386   .     A
C991   C995    1.386   .     A
C991   H1037   1.083   .     S
C992   C993    1.386   .     A
C992   H1039   1.083   .     S
C993   H1040   1.083   .     S
C995   H1041   1.083   .     S
C996   H1042   1.083   .     S
C997   H1043   1.083   .     S
C998   H1044   1.083   .     S
C999   H1045   1.083   .     S
C1000  H1046   1.083   .     S
C1001  H1047   1.083   .     S
C1002  C602    1.417   1_655 A
C1004  C321    1.417   1_565 A
O1069  Zn1124  1.950   .     S
O1069  Zn1121  1.950   .     S
O1069  Zn1132  1.950   .     S
O1070  C374    1.278   1_565 A
O1070  Zn1123  1.954   .     S
O1071  Zn1126  1.954   .     S
O1071  C659    1.278   1_655 S
O1072  Zn1125  1.954   .     S
O1073  Zn1135  1.954   .     S
O1074  Zn1134  1.954   .     S
O1075  Zn1129  1.954   .     S
O1076  Zn1121  1.954   .     S
O1077  Zn1131  1.954   .     S
O1078  Zn1130  1.954   .     S
O1079  Zn1133  1.954   .     S
O1080  Zn1133  1.950   .     S
O1080  Zn1129  1.950   .     S
O1080  Zn1127  1.950   .     S
O1081  Zn1132  1.954   .     S
O1082  Zn1124  1.937   .     S
O1083  Zn1123  1.937   .     S
O1084  Zn1126  1.937   .     S
O1085  Zn1125  1.937   .     S
O1086  Zn1128  1.937   .     S
O1087  Zn1127  1.937   .     S
O1088  Zn1122  1.937   .     S
O1089  Zn1136  1.937   .     S
O1090  Zn1123  1.937   .     S
O1091  Zn1130  1.950   .     S
O1091  Zn1122  1.950   .     S
O1091  Zn1134  1.950   .     S
O1092  Zn1124  1.937   .     S
O1093  Zn1136  1.937   .     S
O1094  Zn1122  1.937   .     S
O1095  Zn1127  1.937   .     S
O1096  Zn1128  1.937   .     S
O1097  Zn1125  1.937   .     S
O1098  Zn1126  1.937   .     S
O1099  Zn847   1.937   1_655 S
O1100  Zn1130  1.937   .     S
O1101  Zn565   1.937   1_565 S
O1102  Zn1131  1.950   .     S
O1102  Zn1135  1.950   .     S
O1102  Zn1125  1.950   .     S
O1103  Zn1132  1.937   .     S
O1104  Zn1135  1.937   .     S
O1105  Zn850   1.937   1_655 S
O1106  Zn1129  1.937   .     S
O1107  Zn553   1.937   1_565 S
O1108  Zn846   1.937   1_655 S
O1109  Zn1131  1.937   .     S
O1110  Zn1121  1.937   .     S
O1111  Zn561   1.937   1_565 S
O1112  Zn1134  1.937   .     S
O1113  Zn1128  1.954   .     S
O1113  C373    1.278   1_565 S
O1114  Zn851   1.937   1_655 S
O1115  Zn564   1.937   1_565 S
O1116  Zn1133  1.937   .     S
O1117  Zn1127  1.954   .     S
O1118  Zn1122  1.954   .     S
O1119  C660    1.278   1_655 A
O1119  Zn1136  1.954   .     S
O1120  Zn1124  1.954   .     S
Zn1123 O512    1.950   1_565 S
Zn1126 O807    1.950   1_655 S
Zn1128 O501    1.950   1_565 S
Zn1136 O818    1.950   1_655 S
