data_str_m1_o1_o2_pcu_sym.98
_audit_creation_date              2020-01-03
_audit_creation_method            'Materials Studio'
_symmetry_space_group_name_H-M    'P1'
_symmetry_Int_Tables_number       1
_symmetry_cell_setting            triclinic
loop_
_symmetry_equiv_pos_as_xyz
  x,y,z
_cell_length_a                    36.6939
_cell_length_b                    36.6939
_cell_length_c                    34.3549
_cell_angle_alpha                 90.0003
_cell_angle_beta                  90.0001
_cell_angle_gamma                 90.0000
loop_
_atom_site_label
_atom_site_type_symbol
_atom_site_fract_x
_atom_site_fract_y
_atom_site_fract_z
_atom_site_U_iso_or_equiv
_atom_site_adp_type
_atom_site_occupancy
C1     C     0.23147   0.47263   0.04134   0.00000  Uiso   1.00
C2     C     0.01854   0.22264   0.45866   0.00000  Uiso   1.00
C3     C     0.34813   0.40186   0.75000   0.00000  Uiso   1.00
C4     C     0.40184   0.15184   0.25000   0.00000  Uiso   1.00
C5     C     0.09813   0.34814   0.75000   0.00000  Uiso   1.00
C6     C     0.34816   0.40184   0.25000   0.00000  Uiso   1.00
C7     C     0.15187   0.09814   0.75000   0.00000  Uiso   1.00
C8     C     0.09816   0.15184   0.75000   0.00000  Uiso   1.00
C9     C     0.40187   0.34813   0.25000   0.00000  Uiso   1.00
C10    C     0.15184   0.40184   0.75000   0.00000  Uiso   1.00
C11    C     0.34813   0.09813   0.25000   0.00000  Uiso   1.00
C12    C     0.40184   0.34816   0.75000   0.00000  Uiso   1.00
C13    C     0.27735   0.48144   0.54134   0.00000  Uiso   1.00
C14    C     0.09813   0.15186   0.25000   0.00000  Uiso   1.00
C15    C     0.34816   0.09816   0.75000   0.00000  Uiso   1.00
C16    C     0.15187   0.40187   0.25000   0.00000  Uiso   1.00
C17    C     0.25000   0.00000   0.10245   0.00000  Uiso   1.00
C18    C     0.25000   0.00000   0.89755   0.00000  Uiso   1.00
C19    C    -0.00000   0.25000   0.10245   0.00000  Uiso   1.00
C20    C    -0.00000   0.25000   0.89755   0.00000  Uiso   1.00
C21    C     0.00000   0.25000   0.60245   0.00000  Uiso   1.00
C22    C     0.00000   0.25000   0.39755   0.00000  Uiso   1.00
C23    C     0.25000  -0.00000   0.60245   0.00000  Uiso   1.00
C24    C     0.27736   0.01854   0.45866   0.00000  Uiso   1.00
C25    C     0.25000  -0.00000   0.39755   0.00000  Uiso   1.00
C26    C     0.21187   0.44225   0.10234   0.00000  Uiso   1.00
C27    C     0.23051   0.41947   0.12857   0.00000  Uiso   1.00
C28    C     0.21189   0.39191   0.14842   0.00000  Uiso   1.00
C29    C     0.17468   0.38660   0.14198   0.00000  Uiso   1.00
C30    C     0.15601   0.40885   0.11566   0.00000  Uiso   1.00
C31    C     0.17451   0.43651   0.09580   0.00000  Uiso   1.00
C32    C     0.28814   0.44226   0.89766   0.00000  Uiso   1.00
C33    C     0.26950   0.41948   0.87143   0.00000  Uiso   1.00
C34    C     0.28813   0.39191   0.85158   0.00000  Uiso   1.00
C35    C     0.01855   0.27736   0.54134   0.00000  Uiso   1.00
C36    C     0.32534   0.38661   0.85802   0.00000  Uiso   1.00
C37    C     0.34400   0.40886   0.88434   0.00000  Uiso   1.00
C38    C     0.32550   0.43652   0.90421   0.00000  Uiso   1.00
C39    C     0.05773   0.21185   0.10234   0.00000  Uiso   1.00
C40    C     0.08052   0.23048   0.12857   0.00000  Uiso   1.00
C41    C     0.10809   0.21185   0.14841   0.00000  Uiso   1.00
C42    C     0.11338   0.17463   0.14197   0.00000  Uiso   1.00
C43    C     0.09112   0.15598   0.11565   0.00000  Uiso   1.00
C44    C     0.06346   0.17448   0.09579   0.00000  Uiso   1.00
C45    C     0.05773   0.28816   0.89766   0.00000  Uiso   1.00
C46    C     0.48146   0.27737   0.45866   0.00000  Uiso   1.00
C47    C     0.08052   0.26953   0.87144   0.00000  Uiso   1.00
C48    C     0.10808   0.28816   0.85159   0.00000  Uiso   1.00
C49    C     0.11337   0.32538   0.85803   0.00000  Uiso   1.00
C50    C     0.09111   0.34404   0.88434   0.00000  Uiso   1.00
C51    C     0.06345   0.32553   0.90420   0.00000  Uiso   1.00
C52    C     0.28813   0.05775   0.10234   0.00000  Uiso   1.00
C53    C     0.26949   0.08053   0.12857   0.00000  Uiso   1.00
C54    C     0.28811   0.10810   0.14842   0.00000  Uiso   1.00
C55    C     0.32532   0.11340   0.14198   0.00000  Uiso   1.00
C56    C     0.34399   0.09116   0.11566   0.00000  Uiso   1.00
C57    C     0.22264   0.01855   0.54134   0.00000  Uiso   1.00
C58    C     0.32549   0.06349   0.09579   0.00000  Uiso   1.00
C59    C     0.21186   0.05774   0.89766   0.00000  Uiso   1.00
C60    C     0.23050   0.08052   0.87143   0.00000  Uiso   1.00
C61    C     0.21188   0.10809   0.85158   0.00000  Uiso   1.00
C62    C     0.17466   0.11339   0.85802   0.00000  Uiso   1.00
C63    C     0.15600   0.09114   0.88434   0.00000  Uiso   1.00
C64    C     0.17450   0.06347   0.90420   0.00000  Uiso   1.00
C65    C     0.44227   0.28816   0.10234   0.00000  Uiso   1.00
C66    C     0.41948   0.26952   0.12857   0.00000  Uiso   1.00
C67    C     0.39191   0.28815   0.14841   0.00000  Uiso   1.00
C68    C     0.22263   0.48146   0.45866   0.00000  Uiso   1.00
C69    C     0.38663   0.32537   0.14197   0.00000  Uiso   1.00
C70    C     0.40888   0.34403   0.11566   0.00000  Uiso   1.00
C71    C     0.43654   0.32552   0.09580   0.00000  Uiso   1.00
C72    C     0.44227   0.21184   0.89766   0.00000  Uiso   1.00
C73    C     0.41948   0.23047   0.87143   0.00000  Uiso   1.00
C74    C     0.39192   0.21184   0.85158   0.00000  Uiso   1.00
C75    C     0.38663   0.17462   0.85802   0.00000  Uiso   1.00
C76    C     0.40889   0.15597   0.88434   0.00000  Uiso   1.00
C77    C     0.43655   0.17447   0.90420   0.00000  Uiso   1.00
C78    C     0.46183   0.19228   0.60234   0.00000  Uiso   1.00
C79    C     0.23124   0.47225   0.08198   0.00000  Uiso   1.00
C80    C     0.48046   0.16948   0.62856   0.00000  Uiso   1.00
C81    C     0.46182   0.14192   0.64840   0.00000  Uiso   1.00
C82    C     0.42460   0.13665   0.64196   0.00000  Uiso   1.00
C83    C     0.40595   0.15892   0.61565   0.00000  Uiso   1.00
C84    C     0.42447   0.18657   0.59579   0.00000  Uiso   1.00
C85    C     0.03814   0.19226   0.39766   0.00000  Uiso   1.00
C86    C     0.01950   0.16948   0.37143   0.00000  Uiso   1.00
C87    C     0.03813   0.14191   0.35158   0.00000  Uiso   1.00
C88    C     0.07534   0.13661   0.35802   0.00000  Uiso   1.00
C89    C     0.09401   0.15886   0.38434   0.00000  Uiso   1.00
C90    C     0.26877   0.47226   0.91802   0.00000  Uiso   1.00
C91    C     0.07551   0.18653   0.40421   0.00000  Uiso   1.00
C92    C     0.30773   0.46184   0.60234   0.00000  Uiso   1.00
C93    C     0.33052   0.48047   0.62856   0.00000  Uiso   1.00
C94    C     0.35808   0.46184   0.64841   0.00000  Uiso   1.00
C95    C     0.36337   0.42462   0.64197   0.00000  Uiso   1.00
C96    C     0.34111   0.40596   0.61566   0.00000  Uiso   1.00
C97    C     0.31345   0.42447   0.59580   0.00000  Uiso   1.00
C98    C     0.30774   0.03814   0.39766   0.00000  Uiso   1.00
C99    C     0.33053   0.01950   0.37143   0.00000  Uiso   1.00
C100   C     0.35809   0.03813   0.35159   0.00000  Uiso   1.00
C101   C     0.02774   0.23123   0.08198   0.00000  Uiso   1.00
C102   C     0.36339   0.07535   0.35803   0.00000  Uiso   1.00
C103   C     0.34114   0.09400   0.38435   0.00000  Uiso   1.00
C104   C     0.31347   0.07550   0.40421   0.00000  Uiso   1.00
C105   C     0.03815   0.30774   0.60234   0.00000  Uiso   1.00
C106   C     0.01951   0.33052   0.62858   0.00000  Uiso   1.00
C107   C     0.03814   0.35808   0.64843   0.00000  Uiso   1.00
C108   C     0.07535   0.36339   0.64198   0.00000  Uiso   1.00
C109   C     0.09401   0.34115   0.61565   0.00000  Uiso   1.00
C110   C     0.07551   0.31349   0.59579   0.00000  Uiso   1.00
C111   C     0.46186   0.30774   0.39766   0.00000  Uiso   1.00
C112   C     0.26854   0.47263   0.95866   0.00000  Uiso   1.00
C113   C     0.02774   0.26878   0.91802   0.00000  Uiso   1.00
C114   C     0.48050   0.33052   0.37143   0.00000  Uiso   1.00
C115   C     0.46187   0.35809   0.35158   0.00000  Uiso   1.00
C116   C     0.42466   0.36338   0.35802   0.00000  Uiso   1.00
C117   C     0.40600   0.34114   0.38434   0.00000  Uiso   1.00
C118   C     0.42450   0.31347   0.40421   0.00000  Uiso   1.00
C119   C     0.19227   0.03816   0.60234   0.00000  Uiso   1.00
C120   C     0.16948   0.01953   0.62857   0.00000  Uiso   1.00
C121   C     0.14192   0.03817   0.64841   0.00000  Uiso   1.00
C122   C     0.13664   0.07539   0.64197   0.00000  Uiso   1.00
C123   C     0.15889   0.09404   0.61565   0.00000  Uiso   1.00
C124   C     0.26876   0.02775   0.08198   0.00000  Uiso   1.00
C125   C     0.18655   0.07553   0.59579   0.00000  Uiso   1.00
C126   C     0.19226   0.46186   0.39766   0.00000  Uiso   1.00
C127   C     0.16948   0.48050   0.37143   0.00000  Uiso   1.00
C128   C     0.14191   0.46188   0.35158   0.00000  Uiso   1.00
C129   C     0.13661   0.42466   0.35802   0.00000  Uiso   1.00
C130   C     0.15886   0.40600   0.38434   0.00000  Uiso   1.00
C131   C     0.18652   0.42450   0.40420   0.00000  Uiso   1.00
C132   C     0.23123   0.02774   0.91802   0.00000  Uiso   1.00
C133   C     0.47226   0.26877   0.08198   0.00000  Uiso   1.00
C134   C     0.47226   0.23122   0.91802   0.00000  Uiso   1.00
C135   C     0.48122   0.22227   0.58198   0.00000  Uiso   1.00
C136   C     0.01877   0.22226   0.41802   0.00000  Uiso   1.00
C137   C     0.27773   0.48122   0.58198   0.00000  Uiso   1.00
C138   C     0.27774   0.01877   0.41802   0.00000  Uiso   1.00
C139   C     0.01878   0.27774   0.58198   0.00000  Uiso   1.00
C140   C     0.02736   0.23145   0.04134   0.00000  Uiso   1.00
C141   C     0.48123   0.27774   0.41802   0.00000  Uiso   1.00
C142   C     0.22226   0.01878   0.58198   0.00000  Uiso   1.00
C143   C     0.22226   0.48123   0.41802   0.00000  Uiso   1.00
C144   C     0.25000   0.00000   0.02121   0.00000  Uiso   1.00
C145   C     0.25000  -0.00000   0.97879   0.00000  Uiso   1.00
C146   C    -0.00000   0.25000   0.02121   0.00000  Uiso   1.00
C147   C    -0.00000   0.25000   0.97879   0.00000  Uiso   1.00
C148   C     0.00000   0.25000   0.52120   0.00000  Uiso   1.00
C149   C     0.00001   0.25000   0.47879   0.00000  Uiso   1.00
C150   C     0.25000  -0.00000   0.52121   0.00000  Uiso   1.00
C151   C     0.02736   0.26855   0.95866   0.00000  Uiso   1.00
C152   C     0.25000  -0.00000   0.47879   0.00000  Uiso   1.00
C153   C     0.25000  -0.00000   0.35509   0.00000  Uiso   1.00
C154   C     0.25000   0.00000   0.64491   0.00000  Uiso   1.00
C155   C     0.00000   0.25000   0.35509   0.00000  Uiso   1.00
C156   C     0.00000   0.25000   0.64491   0.00000  Uiso   1.00
C157   C     0.00000   0.25000   0.85509   0.00000  Uiso   1.00
C158   C     0.00000   0.25000   0.14491   0.00000  Uiso   1.00
C159   C     0.25000   0.00000   0.85509   0.00000  Uiso   1.00
C160   C     0.25000  -0.00000   0.14491   0.00000  Uiso   1.00
C161   C     0.17990   0.07010   0.25000   0.00000  Uiso   1.00
C162   C     0.26853   0.02737   0.04134   0.00000  Uiso   1.00
C163   C     0.32009   0.42991   0.75000   0.00000  Uiso   1.00
C164   C     0.42990   0.17990   0.25000   0.00000  Uiso   1.00
C165   C     0.07009   0.32009   0.75000   0.00000  Uiso   1.00
C166   C     0.32010   0.42990   0.25000   0.00000  Uiso   1.00
C167   C     0.17991   0.07009   0.75000   0.00000  Uiso   1.00
C168   C     0.07010   0.32010   0.25000   0.00000  Uiso   1.00
C169   C     0.42991   0.17991   0.75000   0.00000  Uiso   1.00
C170   C     0.17990   0.42990   0.75000   0.00000  Uiso   1.00
C171   C     0.32009   0.07009   0.25000   0.00000  Uiso   1.00
C172   C     0.42990   0.32010   0.75000   0.00000  Uiso   1.00
C173   C     0.23146   0.02737   0.95866   0.00000  Uiso   1.00
C174   C     0.07009   0.17991   0.25000   0.00000  Uiso   1.00
C175   C     0.32010   0.07010   0.75000   0.00000  Uiso   1.00
C176   C     0.17991   0.42991   0.25000   0.00000  Uiso   1.00
C177   C     0.07010   0.17990   0.75000   0.00000  Uiso   1.00
C178   C     0.42991   0.32009   0.25000   0.00000  Uiso   1.00
C179   C     0.12178   0.40497   0.22509   0.00000  Uiso   1.00
C180   C     0.37823   0.09508   0.77495   0.00000  Uiso   1.00
C181   C     0.09503   0.12177   0.22509   0.00000  Uiso   1.00
C182   C     0.40491   0.37822   0.77496   0.00000  Uiso   1.00
C183   C     0.37822   0.09504   0.22508   0.00000  Uiso   1.00
C184   C     0.47264   0.26855   0.04134   0.00000  Uiso   1.00
C185   C     0.12178   0.40491   0.77496   0.00000  Uiso   1.00
C186   C     0.40497   0.37823   0.22510   0.00000  Uiso   1.00
C187   C     0.09509   0.12177   0.77496   0.00000  Uiso   1.00
C188   C     0.12177   0.09502   0.77490   0.00000  Uiso   1.00
C189   C     0.37823   0.40491   0.22504   0.00000  Uiso   1.00
C190   C     0.09503   0.37823   0.77490   0.00000  Uiso   1.00
C191   C     0.40490   0.12179   0.22502   0.00000  Uiso   1.00
C192   C     0.37823   0.40497   0.77491   0.00000  Uiso   1.00
C193   C     0.12178   0.09509   0.22504   0.00000  Uiso   1.00
C194   C     0.40498   0.12177   0.77489   0.00000  Uiso   1.00
C195   C     0.47264   0.23145   0.95866   0.00000  Uiso   1.00
C196   C     0.09510   0.37822   0.22503   0.00000  Uiso   1.00
C197   C     0.37177   0.15498   0.72511   0.00000  Uiso   1.00
C198   C     0.12822   0.34510   0.27497   0.00000  Uiso   1.00
C199   C     0.34503   0.37177   0.72510   0.00000  Uiso   1.00
C200   C     0.15491   0.12822   0.27496   0.00000  Uiso   1.00
C201   C     0.12823   0.34503   0.72509   0.00000  Uiso   1.00
C202   C     0.37179   0.15490   0.27498   0.00000  Uiso   1.00
C203   C     0.15498   0.12823   0.72510   0.00000  Uiso   1.00
C204   C     0.34509   0.37178   0.27496   0.00000  Uiso   1.00
C205   C     0.37177   0.34503   0.27491   0.00000  Uiso   1.00
C206   C     0.48145   0.22265   0.54133   0.00000  Uiso   1.00
C207   C     0.12823   0.15491   0.72505   0.00000  Uiso   1.00
C208   C     0.34504   0.12822   0.27492   0.00000  Uiso   1.00
C209   C     0.15491   0.37178   0.72504   0.00000  Uiso   1.00
C210   C     0.12823   0.15497   0.27491   0.00000  Uiso   1.00
C211   C     0.37177   0.34509   0.72504   0.00000  Uiso   1.00
C212   C     0.15497   0.37178   0.27491   0.00000  Uiso   1.00
C213   C     0.34508   0.12823   0.72505   0.00000  Uiso   1.00
C214   C     0.09816   0.34816   0.25000   0.00000  Uiso   1.00
C215   C     0.40187   0.15187   0.75000   0.00000  Uiso   1.00
C216   C     0.15184   0.09816   0.25000   0.00000  Uiso   1.00
H217   H     0.21736   0.45146   0.02527   0.00000  Uiso   1.00
H218   H     0.03265   0.20147   0.47473   0.00000  Uiso   1.00
H219   H     0.37535   0.47626   0.66878   0.00000  Uiso   1.00
H220   H     0.38471   0.41024   0.65737   0.00000  Uiso   1.00
H221   H     0.34521   0.37712   0.61075   0.00000  Uiso   1.00
H222   H     0.29619   0.40961   0.57573   0.00000  Uiso   1.00
H223   H     0.32687   0.49061   0.36629   0.00000  Uiso   1.00
H224   H     0.37536   0.02370   0.33121   0.00000  Uiso   1.00
H225   H     0.38473   0.08972   0.34263   0.00000  Uiso   1.00
H226   H     0.34525   0.12285   0.38927   0.00000  Uiso   1.00
H227   H     0.29623   0.09037   0.42428   0.00000  Uiso   1.00
H228   H     0.49062   0.32686   0.63373   0.00000  Uiso   1.00
H229   H     0.29852   0.46733   0.52527   0.00000  Uiso   1.00
H230   H     0.02371   0.37534   0.66882   0.00000  Uiso   1.00
H231   H     0.08973   0.38474   0.65738   0.00000  Uiso   1.00
H232   H     0.12285   0.34528   0.61073   0.00000  Uiso   1.00
H233   H     0.09037   0.29625   0.57571   0.00000  Uiso   1.00
H234   H     0.00939   0.32687   0.36628   0.00000  Uiso   1.00
H235   H     0.47630   0.37535   0.33120   0.00000  Uiso   1.00
H236   H     0.41028   0.38473   0.34262   0.00000  Uiso   1.00
H237   H     0.37715   0.34525   0.38926   0.00000  Uiso   1.00
H238   H     0.40964   0.29623   0.42428   0.00000  Uiso   1.00
H239   H     0.17312   0.49064   0.63371   0.00000  Uiso   1.00
H240   H     0.29853   0.03264   0.47474   0.00000  Uiso   1.00
H241   H     0.12466   0.02375   0.66879   0.00000  Uiso   1.00
H242   H     0.11530   0.08978   0.65737   0.00000  Uiso   1.00
H243   H     0.15479   0.12288   0.61073   0.00000  Uiso   1.00
H244   H     0.20381   0.09038   0.57572   0.00000  Uiso   1.00
H245   H     0.17313   0.00940   0.36629   0.00000  Uiso   1.00
H246   H     0.12465   0.47631   0.33119   0.00000  Uiso   1.00
H247   H     0.11527   0.41029   0.34261   0.00000  Uiso   1.00
H248   H     0.15474   0.37716   0.38925   0.00000  Uiso   1.00
H249   H     0.20376   0.40964   0.42427   0.00000  Uiso   1.00
H250   H     0.03266   0.29853   0.52527   0.00000  Uiso   1.00
H251   H     0.46736   0.29854   0.47473   0.00000  Uiso   1.00
H252   H     0.20148   0.03266   0.52526   0.00000  Uiso   1.00
H253   H     0.20146   0.46735   0.47473   0.00000  Uiso   1.00
H254   H     0.11889   0.42795   0.20553   0.00000  Uiso   1.00
H255   H     0.38113   0.07211   0.79450   0.00000  Uiso   1.00
H256   H     0.07205   0.11888   0.20555   0.00000  Uiso   1.00
H257   H     0.28264   0.45146   0.97473   0.00000  Uiso   1.00
H258   H     0.42788   0.38112   0.79452   0.00000  Uiso   1.00
H259   H     0.38110   0.07207   0.20552   0.00000  Uiso   1.00
H260   H     0.11888   0.42788   0.79452   0.00000  Uiso   1.00
H261   H     0.42796   0.38112   0.20555   0.00000  Uiso   1.00
H262   H     0.07212   0.11888   0.79451   0.00000  Uiso   1.00
H263   H     0.11888   0.07204   0.79444   0.00000  Uiso   1.00
H264   H     0.38112   0.42788   0.20549   0.00000  Uiso   1.00
H265   H     0.07205   0.38112   0.79445   0.00000  Uiso   1.00
H266   H     0.42786   0.11890   0.20545   0.00000  Uiso   1.00
H267   H     0.38112   0.42795   0.79445   0.00000  Uiso   1.00
H268   H     0.04853   0.21734   0.02527   0.00000  Uiso   1.00
H269   H     0.11888   0.07212   0.20548   0.00000  Uiso   1.00
H270   H     0.42797   0.11887   0.79443   0.00000  Uiso   1.00
H271   H     0.07213   0.38111   0.20547   0.00000  Uiso   1.00
H272   H     0.36887   0.17797   0.70557   0.00000  Uiso   1.00
H273   H     0.13111   0.32213   0.29453   0.00000  Uiso   1.00
H274   H     0.32205   0.36888   0.70555   0.00000  Uiso   1.00
H275   H     0.17788   0.13112   0.29452   0.00000  Uiso   1.00
H276   H     0.13112   0.32205   0.70555   0.00000  Uiso   1.00
H277   H     0.36890   0.17786   0.29455   0.00000  Uiso   1.00
H278   H     0.17796   0.13112   0.70556   0.00000  Uiso   1.00
H279   H     0.04852   0.28266   0.97474   0.00000  Uiso   1.00
H280   H     0.32212   0.36888   0.29452   0.00000  Uiso   1.00
H281   H     0.36888   0.32205   0.29445   0.00000  Uiso   1.00
H282   H     0.13112   0.17788   0.70549   0.00000  Uiso   1.00
H283   H     0.32207   0.13110   0.29448   0.00000  Uiso   1.00
H284   H     0.17788   0.36888   0.70548   0.00000  Uiso   1.00
H285   H     0.13112   0.17795   0.29445   0.00000  Uiso   1.00
H286   H     0.36888   0.32212   0.70548   0.00000  Uiso   1.00
H287   H     0.17795   0.36889   0.29446   0.00000  Uiso   1.00
H288   H     0.32211   0.13113   0.70550   0.00000  Uiso   1.00
H289   H     0.25941   0.42313   0.13371   0.00000  Uiso   1.00
H290   H     0.28264   0.04854   0.02527   0.00000  Uiso   1.00
H291   H     0.22632   0.37465   0.16881   0.00000  Uiso   1.00
H292   H     0.16030   0.36526   0.15739   0.00000  Uiso   1.00
H293   H     0.12717   0.40472   0.11075   0.00000  Uiso   1.00
H294   H     0.15964   0.45375   0.07573   0.00000  Uiso   1.00
H295   H     0.24061   0.42313   0.86629   0.00000  Uiso   1.00
H296   H     0.27370   0.37465   0.83120   0.00000  Uiso   1.00
H297   H     0.33972   0.36527   0.84262   0.00000  Uiso   1.00
H298   H     0.37285   0.40474   0.88926   0.00000  Uiso   1.00
H299   H     0.34037   0.45377   0.92427   0.00000  Uiso   1.00
H300   H     0.07687   0.25937   0.13371   0.00000  Uiso   1.00
H301   H     0.21735   0.04854   0.97473   0.00000  Uiso   1.00
H302   H     0.12535   0.22627   0.16879   0.00000  Uiso   1.00
H303   H     0.13472   0.16025   0.15737   0.00000  Uiso   1.00
H304   H     0.09523   0.12713   0.11074   0.00000  Uiso   1.00
H305   H     0.04621   0.15962   0.07573   0.00000  Uiso   1.00
H306   H     0.07688   0.24063   0.86630   0.00000  Uiso   1.00
H307   H     0.12535   0.27374   0.83121   0.00000  Uiso   1.00
H308   H     0.13470   0.33977   0.84263   0.00000  Uiso   1.00
H309   H     0.09521   0.37288   0.88926   0.00000  Uiso   1.00
H310   H     0.04619   0.34039   0.92427   0.00000  Uiso   1.00
H311   H     0.24060   0.07687   0.13371   0.00000  Uiso   1.00
H312   H     0.45147   0.28266   0.02527   0.00000  Uiso   1.00
H313   H     0.27368   0.12535   0.16880   0.00000  Uiso   1.00
H314   H     0.33970   0.13475   0.15738   0.00000  Uiso   1.00
H315   H     0.37283   0.09528   0.11074   0.00000  Uiso   1.00
H316   H     0.34036   0.04625   0.07572   0.00000  Uiso   1.00
H317   H     0.25939   0.07687   0.86629   0.00000  Uiso   1.00
H318   H     0.22630   0.12535   0.83120   0.00000  Uiso   1.00
H319   H     0.16028   0.13473   0.84261   0.00000  Uiso   1.00
H320   H     0.12715   0.09525   0.88925   0.00000  Uiso   1.00
H321   H     0.15963   0.04623   0.92427   0.00000  Uiso   1.00
H322   H     0.42312   0.24063   0.13371   0.00000  Uiso   1.00
H323   H     0.45147   0.21734   0.97473   0.00000  Uiso   1.00
H324   H     0.37465   0.27373   0.16879   0.00000  Uiso   1.00
H325   H     0.36529   0.33975   0.15738   0.00000  Uiso   1.00
H326   H     0.40477   0.37287   0.11074   0.00000  Uiso   1.00
H327   H     0.45380   0.34038   0.07573   0.00000  Uiso   1.00
H328   H     0.42312   0.25937   0.86629   0.00000  Uiso   1.00
H329   H     0.37466   0.22626   0.83120   0.00000  Uiso   1.00
H330   H     0.36530   0.16024   0.84262   0.00000  Uiso   1.00
H331   H     0.40478   0.12712   0.88926   0.00000  Uiso   1.00
H332   H     0.45380   0.15962   0.92427   0.00000  Uiso   1.00
H333   H     0.00936   0.17312   0.63370   0.00000  Uiso   1.00
H334   H     0.46734   0.20148   0.52526   0.00000  Uiso   1.00
H335   H     0.47624   0.12465   0.66878   0.00000  Uiso   1.00
H336   H     0.41021   0.11531   0.65736   0.00000  Uiso   1.00
H337   H     0.37710   0.15482   0.61074   0.00000  Uiso   1.00
H338   H     0.40961   0.20383   0.57573   0.00000  Uiso   1.00
H339   H     0.49061   0.17313   0.36629   0.00000  Uiso   1.00
H340   H     0.02370   0.12465   0.33120   0.00000  Uiso   1.00
H341   H     0.08972   0.11527   0.34262   0.00000  Uiso   1.00
H342   H     0.12285   0.15475   0.38926   0.00000  Uiso   1.00
H343   H     0.09037   0.20377   0.42427   0.00000  Uiso   1.00
H344   H     0.32688   0.00937   0.63370   0.00000  Uiso   1.00
O345   O     0.25000  -0.00000   0.25000   0.00000  Uiso   1.00
O346   O     0.25000   0.46964   0.66317   0.00000  Uiso   1.00
O347   O     0.46964   0.25000   0.33683   0.00000  Uiso   1.00
O348   O     0.03036   0.25000   0.66317   0.00000  Uiso   1.00
O349   O     0.00000   0.21964   0.83683   0.00000  Uiso   1.00
O350   O     0.00000   0.28036   0.16317   0.00000  Uiso   1.00
O351   O     0.28036  -0.00000   0.83683   0.00000  Uiso   1.00
O352   O     0.21964  -0.00000   0.16317   0.00000  Uiso   1.00
O353   O     0.00000   0.28036   0.83683   0.00000  Uiso   1.00
O354   O     0.00000   0.21964   0.16317   0.00000  Uiso   1.00
O355   O     0.21964   0.00000   0.83683   0.00000  Uiso   1.00
O356   O     0.25000  -0.00000   0.75000   0.00000  Uiso   1.00
O357   O     0.28036  -0.00000   0.16317   0.00000  Uiso   1.00
O358   O     0.20726   0.07307   0.27282   0.00000  Uiso   1.00
O359   O     0.29275   0.42693   0.72718   0.00000  Uiso   1.00
O360   O     0.42693   0.20725   0.27282   0.00000  Uiso   1.00
O361   O     0.07307   0.29275   0.72718   0.00000  Uiso   1.00
O362   O     0.29275   0.42693   0.27282   0.00000  Uiso   1.00
O363   O     0.20726   0.07307   0.72718   0.00000  Uiso   1.00
O364   O     0.07307   0.29275   0.27282   0.00000  Uiso   1.00
O365   O     0.42693   0.20725   0.72718   0.00000  Uiso   1.00
O366   O     0.20726   0.42693   0.72718   0.00000  Uiso   1.00
O367   O     0.00000   0.25000   0.25000   0.00000  Uiso   1.00
O368   O     0.29275   0.07307   0.27282   0.00000  Uiso   1.00
O369   O     0.42693   0.29274   0.72718   0.00000  Uiso   1.00
O370   O     0.07307   0.20726   0.27282   0.00000  Uiso   1.00
O371   O     0.29275   0.07307   0.72718   0.00000  Uiso   1.00
O372   O     0.20726   0.42693   0.27282   0.00000  Uiso   1.00
O373   O     0.07307   0.20726   0.72718   0.00000  Uiso   1.00
O374   O     0.42693   0.29274   0.27282   0.00000  Uiso   1.00
O375   O     0.45726   0.32307   0.77282   0.00000  Uiso   1.00
O376   O     0.04275   0.17693   0.22718   0.00000  Uiso   1.00
O377   O     0.17693   0.45726   0.77282   0.00000  Uiso   1.00
O378   O     0.00000   0.25000   0.75000   0.00000  Uiso   1.00
O379   O     0.32307   0.04274   0.22718   0.00000  Uiso   1.00
O380   O     0.04275   0.17693   0.77282   0.00000  Uiso   1.00
O381   O     0.45726   0.32307   0.22718   0.00000  Uiso   1.00
O382   O     0.32307   0.04274   0.77282   0.00000  Uiso   1.00
O383   O     0.17693   0.45726   0.22718   0.00000  Uiso   1.00
O384   O     0.45726   0.17693   0.22718   0.00000  Uiso   1.00
O385   O     0.04275   0.32307   0.77282   0.00000  Uiso   1.00
O386   O     0.17693   0.04274   0.22718   0.00000  Uiso   1.00
O387   O     0.32307   0.45725   0.77282   0.00000  Uiso   1.00
O388   O     0.04275   0.32307   0.22718   0.00000  Uiso   1.00
O389   O     0.25000   0.46964   0.33683   0.00000  Uiso   1.00
O390   O     0.45726   0.17693   0.77282   0.00000  Uiso   1.00
O391   O     0.32307   0.45725   0.22718   0.00000  Uiso   1.00
O392   O     0.17693   0.04274   0.77282   0.00000  Uiso   1.00
O393   O     0.25000   0.03036   0.66317   0.00000  Uiso   1.00
O394   O     0.03036   0.25000   0.33683   0.00000  Uiso   1.00
O395   O     0.46964   0.25000   0.66317   0.00000  Uiso   1.00
O396   O     0.25000   0.03036   0.33683   0.00000  Uiso   1.00
Zn397  Zn    0.20660  -0.00000   0.21760   0.00000  Uiso   1.00
Zn398  Zn    0.04340   0.25000   0.28240   0.00000  Uiso   1.00
Zn399  Zn    0.25000   0.45660   0.71760   0.00000  Uiso   1.00
Zn400  Zn    0.25000   0.04340   0.28240   0.00000  Uiso   1.00
Zn401  Zn    0.04340   0.25000   0.71760   0.00000  Uiso   1.00
Zn402  Zn    0.45660   0.25000   0.28240   0.00000  Uiso   1.00
Zn403  Zn    0.25000   0.04340   0.71760   0.00000  Uiso   1.00
Zn404  Zn    0.25000   0.45660   0.28240   0.00000  Uiso   1.00
Zn405  Zn    0.29340  -0.00000   0.78240   0.00000  Uiso   1.00
Zn406  Zn    0.00000   0.20660   0.21760   0.00000  Uiso   1.00
Zn407  Zn    0.00000   0.29340   0.78240   0.00000  Uiso   1.00
Zn408  Zn    0.29340  -0.00000   0.21760   0.00000  Uiso   1.00
Zn409  Zn    0.20660  -0.00000   0.78240   0.00000  Uiso   1.00
Zn410  Zn    0.00000   0.29340   0.21760   0.00000  Uiso   1.00
Zn411  Zn    0.00000   0.20660   0.78240   0.00000  Uiso   1.00
Zn412  Zn    0.45660   0.25000   0.71760   0.00000  Uiso   1.00
C413   C     0.73147   0.47263   0.04134   0.00000  Uiso   1.00
C414   C     0.51854   0.22264   0.45866   0.00000  Uiso   1.00
C415   C     0.84813   0.40186   0.75000   0.00000  Uiso   1.00
C416   C     0.90184   0.15184   0.25000   0.00000  Uiso   1.00
C417   C     0.59813   0.34814   0.75000   0.00000  Uiso   1.00
C418   C     0.84816   0.40184   0.25000   0.00000  Uiso   1.00
C419   C     0.65187   0.09814   0.75000   0.00000  Uiso   1.00
C420   C     0.59816   0.15184   0.75000   0.00000  Uiso   1.00
C421   C     0.90187   0.34813   0.25000   0.00000  Uiso   1.00
C422   C     0.65184   0.40184   0.75000   0.00000  Uiso   1.00
C423   C     0.84813   0.09813   0.25000   0.00000  Uiso   1.00
C424   C     0.90184   0.34816   0.75000   0.00000  Uiso   1.00
C425   C     0.77735   0.48144   0.54134   0.00000  Uiso   1.00
C426   C     0.59813   0.15186   0.25000   0.00000  Uiso   1.00
C427   C     0.84816   0.09816   0.75000   0.00000  Uiso   1.00
C428   C     0.65187   0.40187   0.25000   0.00000  Uiso   1.00
C429   C     0.75000   0.00000   0.10245   0.00000  Uiso   1.00
C430   C     0.75000   0.00000   0.89755   0.00000  Uiso   1.00
C431   C     0.50000   0.25000   0.10245   0.00000  Uiso   1.00
C432   C     0.50000   0.25000   0.89755   0.00000  Uiso   1.00
C433   C     0.50000   0.25000   0.60245   0.00000  Uiso   1.00
C434   C     0.50000   0.25000   0.39755   0.00000  Uiso   1.00
C435   C     0.75000  -0.00000   0.60245   0.00000  Uiso   1.00
C436   C     0.77736   0.01854   0.45866   0.00000  Uiso   1.00
C437   C     0.75000  -0.00000   0.39755   0.00000  Uiso   1.00
C438   C     0.71187   0.44225   0.10234   0.00000  Uiso   1.00
C439   C     0.73051   0.41947   0.12857   0.00000  Uiso   1.00
C440   C     0.71189   0.39191   0.14842   0.00000  Uiso   1.00
C441   C     0.67468   0.38660   0.14198   0.00000  Uiso   1.00
C442   C     0.65601   0.40885   0.11566   0.00000  Uiso   1.00
C443   C     0.67451   0.43651   0.09580   0.00000  Uiso   1.00
C444   C     0.78814   0.44226   0.89766   0.00000  Uiso   1.00
C445   C     0.76950   0.41948   0.87143   0.00000  Uiso   1.00
C446   C     0.78813   0.39191   0.85158   0.00000  Uiso   1.00
C447   C     0.51855   0.27736   0.54134   0.00000  Uiso   1.00
C448   C     0.82534   0.38661   0.85802   0.00000  Uiso   1.00
C449   C     0.84400   0.40886   0.88434   0.00000  Uiso   1.00
C450   C     0.82550   0.43652   0.90421   0.00000  Uiso   1.00
C451   C     0.55773   0.21185   0.10234   0.00000  Uiso   1.00
C452   C     0.58052   0.23048   0.12857   0.00000  Uiso   1.00
C453   C     0.60809   0.21185   0.14841   0.00000  Uiso   1.00
C454   C     0.61338   0.17463   0.14197   0.00000  Uiso   1.00
C455   C     0.59112   0.15598   0.11565   0.00000  Uiso   1.00
C456   C     0.56346   0.17448   0.09579   0.00000  Uiso   1.00
C457   C     0.55773   0.28816   0.89766   0.00000  Uiso   1.00
C458   C     0.98146   0.27737   0.45866   0.00000  Uiso   1.00
C459   C     0.58052   0.26953   0.87144   0.00000  Uiso   1.00
C460   C     0.60808   0.28816   0.85159   0.00000  Uiso   1.00
C461   C     0.61337   0.32538   0.85803   0.00000  Uiso   1.00
C462   C     0.59111   0.34404   0.88434   0.00000  Uiso   1.00
C463   C     0.56345   0.32553   0.90420   0.00000  Uiso   1.00
C464   C     0.78813   0.05775   0.10234   0.00000  Uiso   1.00
C465   C     0.76949   0.08053   0.12857   0.00000  Uiso   1.00
C466   C     0.78811   0.10810   0.14842   0.00000  Uiso   1.00
C467   C     0.82532   0.11340   0.14198   0.00000  Uiso   1.00
C468   C     0.84399   0.09116   0.11566   0.00000  Uiso   1.00
C469   C     0.72264   0.01855   0.54134   0.00000  Uiso   1.00
C470   C     0.82549   0.06349   0.09579   0.00000  Uiso   1.00
C471   C     0.71186   0.05774   0.89766   0.00000  Uiso   1.00
C472   C     0.73050   0.08052   0.87143   0.00000  Uiso   1.00
C473   C     0.71188   0.10809   0.85158   0.00000  Uiso   1.00
C474   C     0.67466   0.11339   0.85802   0.00000  Uiso   1.00
C475   C     0.65600   0.09114   0.88434   0.00000  Uiso   1.00
C476   C     0.67450   0.06347   0.90420   0.00000  Uiso   1.00
C477   C     0.94227   0.28816   0.10234   0.00000  Uiso   1.00
C478   C     0.91948   0.26952   0.12857   0.00000  Uiso   1.00
C479   C     0.89191   0.28815   0.14841   0.00000  Uiso   1.00
C480   C     0.72263   0.48146   0.45866   0.00000  Uiso   1.00
C481   C     0.88663   0.32537   0.14197   0.00000  Uiso   1.00
C482   C     0.90888   0.34403   0.11566   0.00000  Uiso   1.00
C483   C     0.93654   0.32552   0.09580   0.00000  Uiso   1.00
C484   C     0.94227   0.21184   0.89766   0.00000  Uiso   1.00
C485   C     0.91948   0.23047   0.87143   0.00000  Uiso   1.00
C486   C     0.89192   0.21184   0.85158   0.00000  Uiso   1.00
C487   C     0.88663   0.17462   0.85802   0.00000  Uiso   1.00
C488   C     0.90889   0.15597   0.88434   0.00000  Uiso   1.00
C489   C     0.93655   0.17447   0.90420   0.00000  Uiso   1.00
C490   C     0.96183   0.19228   0.60234   0.00000  Uiso   1.00
C491   C     0.73124   0.47225   0.08198   0.00000  Uiso   1.00
C492   C     0.98046   0.16948   0.62856   0.00000  Uiso   1.00
C493   C     0.96182   0.14192   0.64840   0.00000  Uiso   1.00
C494   C     0.92460   0.13665   0.64196   0.00000  Uiso   1.00
C495   C     0.90595   0.15892   0.61565   0.00000  Uiso   1.00
C496   C     0.92447   0.18657   0.59579   0.00000  Uiso   1.00
C497   C     0.53814   0.19226   0.39766   0.00000  Uiso   1.00
C498   C     0.51950   0.16948   0.37143   0.00000  Uiso   1.00
C499   C     0.53813   0.14191   0.35158   0.00000  Uiso   1.00
C500   C     0.57534   0.13661   0.35802   0.00000  Uiso   1.00
C501   C     0.59401   0.15886   0.38434   0.00000  Uiso   1.00
C502   C     0.76877   0.47226   0.91802   0.00000  Uiso   1.00
C503   C     0.57551   0.18653   0.40421   0.00000  Uiso   1.00
C504   C     0.80773   0.46184   0.60234   0.00000  Uiso   1.00
C505   C     0.83052   0.48047   0.62856   0.00000  Uiso   1.00
C506   C     0.85808   0.46184   0.64841   0.00000  Uiso   1.00
C507   C     0.86337   0.42462   0.64197   0.00000  Uiso   1.00
C508   C     0.84111   0.40596   0.61566   0.00000  Uiso   1.00
C509   C     0.81345   0.42447   0.59580   0.00000  Uiso   1.00
C510   C     0.80774   0.03814   0.39766   0.00000  Uiso   1.00
C511   C     0.83053   0.01950   0.37143   0.00000  Uiso   1.00
C512   C     0.85809   0.03813   0.35159   0.00000  Uiso   1.00
C513   C     0.52774   0.23123   0.08198   0.00000  Uiso   1.00
C514   C     0.86339   0.07535   0.35803   0.00000  Uiso   1.00
C515   C     0.84114   0.09400   0.38435   0.00000  Uiso   1.00
C516   C     0.81347   0.07550   0.40421   0.00000  Uiso   1.00
C517   C     0.53815   0.30774   0.60234   0.00000  Uiso   1.00
C518   C     0.51951   0.33052   0.62858   0.00000  Uiso   1.00
C519   C     0.53814   0.35808   0.64843   0.00000  Uiso   1.00
C520   C     0.57535   0.36339   0.64198   0.00000  Uiso   1.00
C521   C     0.59401   0.34115   0.61565   0.00000  Uiso   1.00
C522   C     0.57551   0.31349   0.59579   0.00000  Uiso   1.00
C523   C     0.96186   0.30774   0.39766   0.00000  Uiso   1.00
C524   C     0.76854   0.47263   0.95866   0.00000  Uiso   1.00
C525   C     0.52774   0.26878   0.91802   0.00000  Uiso   1.00
C526   C     0.98050   0.33052   0.37143   0.00000  Uiso   1.00
C527   C     0.96187   0.35809   0.35158   0.00000  Uiso   1.00
C528   C     0.92466   0.36338   0.35802   0.00000  Uiso   1.00
C529   C     0.90600   0.34114   0.38434   0.00000  Uiso   1.00
C530   C     0.92450   0.31347   0.40421   0.00000  Uiso   1.00
C531   C     0.69227   0.03816   0.60234   0.00000  Uiso   1.00
C532   C     0.66948   0.01953   0.62857   0.00000  Uiso   1.00
C533   C     0.64192   0.03817   0.64841   0.00000  Uiso   1.00
C534   C     0.63664   0.07539   0.64197   0.00000  Uiso   1.00
C535   C     0.65889   0.09404   0.61565   0.00000  Uiso   1.00
C536   C     0.76876   0.02775   0.08198   0.00000  Uiso   1.00
C537   C     0.68655   0.07553   0.59579   0.00000  Uiso   1.00
C538   C     0.69226   0.46186   0.39766   0.00000  Uiso   1.00
C539   C     0.66948   0.48050   0.37143   0.00000  Uiso   1.00
C540   C     0.64191   0.46188   0.35158   0.00000  Uiso   1.00
C541   C     0.63661   0.42466   0.35802   0.00000  Uiso   1.00
C542   C     0.65886   0.40600   0.38434   0.00000  Uiso   1.00
C543   C     0.68652   0.42450   0.40420   0.00000  Uiso   1.00
C544   C     0.73123   0.02774   0.91802   0.00000  Uiso   1.00
C545   C     0.97226   0.26877   0.08198   0.00000  Uiso   1.00
C546   C     0.97226   0.23122   0.91802   0.00000  Uiso   1.00
C547   C     0.98122   0.22227   0.58198   0.00000  Uiso   1.00
C548   C     0.51877   0.22226   0.41802   0.00000  Uiso   1.00
C549   C     0.77773   0.48122   0.58198   0.00000  Uiso   1.00
C550   C     0.77774   0.01877   0.41802   0.00000  Uiso   1.00
C551   C     0.51878   0.27774   0.58198   0.00000  Uiso   1.00
C552   C     0.52736   0.23145   0.04134   0.00000  Uiso   1.00
C553   C     0.98123   0.27774   0.41802   0.00000  Uiso   1.00
C554   C     0.72226   0.01878   0.58198   0.00000  Uiso   1.00
C555   C     0.72226   0.48123   0.41802   0.00000  Uiso   1.00
C556   C     0.75000   0.00000   0.02121   0.00000  Uiso   1.00
C557   C     0.75000  -0.00000   0.97879   0.00000  Uiso   1.00
C558   C     0.50000   0.25000   0.02121   0.00000  Uiso   1.00
C559   C     0.50000   0.25000   0.97879   0.00000  Uiso   1.00
C560   C     0.50000   0.25000   0.52120   0.00000  Uiso   1.00
C561   C     0.50001   0.25000   0.47879   0.00000  Uiso   1.00
C562   C     0.75000  -0.00000   0.52121   0.00000  Uiso   1.00
C563   C     0.52736   0.26855   0.95866   0.00000  Uiso   1.00
C564   C     0.75000  -0.00000   0.47879   0.00000  Uiso   1.00
C565   C     0.75000  -0.00000   0.35509   0.00000  Uiso   1.00
C566   C     0.75000   0.00000   0.64491   0.00000  Uiso   1.00
C567   C     0.50000   0.25000   0.35509   0.00000  Uiso   1.00
C568   C     0.50000   0.25000   0.64491   0.00000  Uiso   1.00
C569   C     0.50000   0.25000   0.85509   0.00000  Uiso   1.00
C570   C     0.50000   0.25000   0.14491   0.00000  Uiso   1.00
C571   C     0.75000   0.00000   0.85509   0.00000  Uiso   1.00
C572   C     0.75000  -0.00000   0.14491   0.00000  Uiso   1.00
C573   C     0.67990   0.07010   0.25000   0.00000  Uiso   1.00
C574   C     0.76853   0.02737   0.04134   0.00000  Uiso   1.00
C575   C     0.82009   0.42991   0.75000   0.00000  Uiso   1.00
C576   C     0.92990   0.17990   0.25000   0.00000  Uiso   1.00
C577   C     0.57009   0.32009   0.75000   0.00000  Uiso   1.00
C578   C     0.82010   0.42990   0.25000   0.00000  Uiso   1.00
C579   C     0.67991   0.07009   0.75000   0.00000  Uiso   1.00
C580   C     0.57010   0.32010   0.25000   0.00000  Uiso   1.00
C581   C     0.92991   0.17991   0.75000   0.00000  Uiso   1.00
C582   C     0.67990   0.42990   0.75000   0.00000  Uiso   1.00
C583   C     0.82009   0.07009   0.25000   0.00000  Uiso   1.00
C584   C     0.92990   0.32010   0.75000   0.00000  Uiso   1.00
C585   C     0.73146   0.02737   0.95866   0.00000  Uiso   1.00
C586   C     0.57009   0.17991   0.25000   0.00000  Uiso   1.00
C587   C     0.82010   0.07010   0.75000   0.00000  Uiso   1.00
C588   C     0.67991   0.42991   0.25000   0.00000  Uiso   1.00
C589   C     0.57010   0.17990   0.75000   0.00000  Uiso   1.00
C590   C     0.92991   0.32009   0.25000   0.00000  Uiso   1.00
C591   C     0.62178   0.40497   0.22509   0.00000  Uiso   1.00
C592   C     0.87823   0.09508   0.77495   0.00000  Uiso   1.00
C593   C     0.59503   0.12177   0.22509   0.00000  Uiso   1.00
C594   C     0.90491   0.37822   0.77496   0.00000  Uiso   1.00
C595   C     0.87822   0.09504   0.22508   0.00000  Uiso   1.00
C596   C     0.97264   0.26855   0.04134   0.00000  Uiso   1.00
C597   C     0.62178   0.40491   0.77496   0.00000  Uiso   1.00
C598   C     0.90497   0.37823   0.22510   0.00000  Uiso   1.00
C599   C     0.59509   0.12177   0.77496   0.00000  Uiso   1.00
C600   C     0.62177   0.09502   0.77490   0.00000  Uiso   1.00
C601   C     0.87823   0.40491   0.22504   0.00000  Uiso   1.00
C602   C     0.59503   0.37823   0.77490   0.00000  Uiso   1.00
C603   C     0.90490   0.12179   0.22502   0.00000  Uiso   1.00
C604   C     0.87823   0.40497   0.77491   0.00000  Uiso   1.00
C605   C     0.62178   0.09509   0.22504   0.00000  Uiso   1.00
C606   C     0.90498   0.12177   0.77489   0.00000  Uiso   1.00
C607   C     0.97264   0.23145   0.95866   0.00000  Uiso   1.00
C608   C     0.59510   0.37822   0.22503   0.00000  Uiso   1.00
C609   C     0.87177   0.15498   0.72511   0.00000  Uiso   1.00
C610   C     0.62822   0.34510   0.27497   0.00000  Uiso   1.00
C611   C     0.84503   0.37177   0.72510   0.00000  Uiso   1.00
C612   C     0.65491   0.12822   0.27496   0.00000  Uiso   1.00
C613   C     0.62823   0.34503   0.72509   0.00000  Uiso   1.00
C614   C     0.87179   0.15490   0.27498   0.00000  Uiso   1.00
C615   C     0.65498   0.12823   0.72510   0.00000  Uiso   1.00
C616   C     0.84509   0.37178   0.27496   0.00000  Uiso   1.00
C617   C     0.87177   0.34503   0.27491   0.00000  Uiso   1.00
C618   C     0.98145   0.22265   0.54133   0.00000  Uiso   1.00
C619   C     0.62823   0.15491   0.72505   0.00000  Uiso   1.00
C620   C     0.84504   0.12822   0.27492   0.00000  Uiso   1.00
C621   C     0.65491   0.37178   0.72504   0.00000  Uiso   1.00
C622   C     0.62823   0.15497   0.27491   0.00000  Uiso   1.00
C623   C     0.87177   0.34509   0.72504   0.00000  Uiso   1.00
C624   C     0.65497   0.37178   0.27491   0.00000  Uiso   1.00
C625   C     0.84508   0.12823   0.72505   0.00000  Uiso   1.00
C626   C     0.59816   0.34816   0.25000   0.00000  Uiso   1.00
C627   C     0.90187   0.15187   0.75000   0.00000  Uiso   1.00
C628   C     0.65184   0.09816   0.25000   0.00000  Uiso   1.00
H629   H     0.71736   0.45146   0.02527   0.00000  Uiso   1.00
H630   H     0.53265   0.20147   0.47473   0.00000  Uiso   1.00
H631   H     0.87535   0.47626   0.66878   0.00000  Uiso   1.00
H632   H     0.88471   0.41024   0.65737   0.00000  Uiso   1.00
H633   H     0.84521   0.37712   0.61075   0.00000  Uiso   1.00
H634   H     0.79619   0.40961   0.57573   0.00000  Uiso   1.00
H635   H     0.82687   0.49061   0.36629   0.00000  Uiso   1.00
H636   H     0.87536   0.02370   0.33121   0.00000  Uiso   1.00
H637   H     0.88473   0.08972   0.34263   0.00000  Uiso   1.00
H638   H     0.84525   0.12285   0.38927   0.00000  Uiso   1.00
H639   H     0.79623   0.09037   0.42428   0.00000  Uiso   1.00
H640   H     0.99062   0.32686   0.63373   0.00000  Uiso   1.00
H641   H     0.79852   0.46733   0.52527   0.00000  Uiso   1.00
H642   H     0.52371   0.37534   0.66882   0.00000  Uiso   1.00
H643   H     0.58973   0.38474   0.65738   0.00000  Uiso   1.00
H644   H     0.62285   0.34528   0.61073   0.00000  Uiso   1.00
H645   H     0.59037   0.29625   0.57571   0.00000  Uiso   1.00
H646   H     0.50939   0.32687   0.36628   0.00000  Uiso   1.00
H647   H     0.97630   0.37535   0.33120   0.00000  Uiso   1.00
H648   H     0.91028   0.38473   0.34262   0.00000  Uiso   1.00
H649   H     0.87715   0.34525   0.38926   0.00000  Uiso   1.00
H650   H     0.90964   0.29623   0.42428   0.00000  Uiso   1.00
H651   H     0.67312   0.49064   0.63371   0.00000  Uiso   1.00
H652   H     0.79853   0.03264   0.47474   0.00000  Uiso   1.00
H653   H     0.62466   0.02375   0.66879   0.00000  Uiso   1.00
H654   H     0.61530   0.08978   0.65737   0.00000  Uiso   1.00
H655   H     0.65479   0.12288   0.61073   0.00000  Uiso   1.00
H656   H     0.70381   0.09038   0.57572   0.00000  Uiso   1.00
H657   H     0.67313   0.00940   0.36629   0.00000  Uiso   1.00
H658   H     0.62465   0.47631   0.33119   0.00000  Uiso   1.00
H659   H     0.61527   0.41029   0.34261   0.00000  Uiso   1.00
H660   H     0.65474   0.37716   0.38925   0.00000  Uiso   1.00
H661   H     0.70376   0.40964   0.42427   0.00000  Uiso   1.00
H662   H     0.53266   0.29853   0.52527   0.00000  Uiso   1.00
H663   H     0.96736   0.29854   0.47473   0.00000  Uiso   1.00
H664   H     0.70148   0.03266   0.52526   0.00000  Uiso   1.00
H665   H     0.70146   0.46735   0.47473   0.00000  Uiso   1.00
H666   H     0.61889   0.42795   0.20553   0.00000  Uiso   1.00
H667   H     0.88113   0.07211   0.79450   0.00000  Uiso   1.00
H668   H     0.57205   0.11888   0.20555   0.00000  Uiso   1.00
H669   H     0.78264   0.45146   0.97473   0.00000  Uiso   1.00
H670   H     0.92788   0.38112   0.79452   0.00000  Uiso   1.00
H671   H     0.88110   0.07207   0.20552   0.00000  Uiso   1.00
H672   H     0.61888   0.42788   0.79452   0.00000  Uiso   1.00
H673   H     0.92796   0.38112   0.20555   0.00000  Uiso   1.00
H674   H     0.57212   0.11888   0.79451   0.00000  Uiso   1.00
H675   H     0.61888   0.07204   0.79444   0.00000  Uiso   1.00
H676   H     0.88112   0.42788   0.20549   0.00000  Uiso   1.00
H677   H     0.57205   0.38112   0.79445   0.00000  Uiso   1.00
H678   H     0.92786   0.11890   0.20545   0.00000  Uiso   1.00
H679   H     0.88112   0.42795   0.79445   0.00000  Uiso   1.00
H680   H     0.54853   0.21734   0.02527   0.00000  Uiso   1.00
H681   H     0.61888   0.07212   0.20548   0.00000  Uiso   1.00
H682   H     0.92797   0.11887   0.79443   0.00000  Uiso   1.00
H683   H     0.57213   0.38111   0.20547   0.00000  Uiso   1.00
H684   H     0.86887   0.17797   0.70557   0.00000  Uiso   1.00
H685   H     0.63111   0.32213   0.29453   0.00000  Uiso   1.00
H686   H     0.82205   0.36888   0.70555   0.00000  Uiso   1.00
H687   H     0.67788   0.13112   0.29452   0.00000  Uiso   1.00
H688   H     0.63112   0.32205   0.70555   0.00000  Uiso   1.00
H689   H     0.86890   0.17786   0.29455   0.00000  Uiso   1.00
H690   H     0.67796   0.13112   0.70556   0.00000  Uiso   1.00
H691   H     0.54852   0.28266   0.97474   0.00000  Uiso   1.00
H692   H     0.82212   0.36888   0.29452   0.00000  Uiso   1.00
H693   H     0.86888   0.32205   0.29445   0.00000  Uiso   1.00
H694   H     0.63112   0.17788   0.70549   0.00000  Uiso   1.00
H695   H     0.82207   0.13110   0.29448   0.00000  Uiso   1.00
H696   H     0.67788   0.36888   0.70548   0.00000  Uiso   1.00
H697   H     0.63112   0.17795   0.29445   0.00000  Uiso   1.00
H698   H     0.86888   0.32212   0.70548   0.00000  Uiso   1.00
H699   H     0.67795   0.36889   0.29446   0.00000  Uiso   1.00
H700   H     0.82211   0.13113   0.70550   0.00000  Uiso   1.00
H701   H     0.75941   0.42313   0.13371   0.00000  Uiso   1.00
H702   H     0.78264   0.04854   0.02527   0.00000  Uiso   1.00
H703   H     0.72632   0.37465   0.16881   0.00000  Uiso   1.00
H704   H     0.66030   0.36526   0.15739   0.00000  Uiso   1.00
H705   H     0.62717   0.40472   0.11075   0.00000  Uiso   1.00
H706   H     0.65964   0.45375   0.07573   0.00000  Uiso   1.00
H707   H     0.74061   0.42313   0.86629   0.00000  Uiso   1.00
H708   H     0.77370   0.37465   0.83120   0.00000  Uiso   1.00
H709   H     0.83972   0.36527   0.84262   0.00000  Uiso   1.00
H710   H     0.87285   0.40474   0.88926   0.00000  Uiso   1.00
H711   H     0.84037   0.45377   0.92427   0.00000  Uiso   1.00
H712   H     0.57687   0.25937   0.13371   0.00000  Uiso   1.00
H713   H     0.71735   0.04854   0.97473   0.00000  Uiso   1.00
H714   H     0.62535   0.22627   0.16879   0.00000  Uiso   1.00
H715   H     0.63472   0.16025   0.15737   0.00000  Uiso   1.00
H716   H     0.59523   0.12713   0.11074   0.00000  Uiso   1.00
H717   H     0.54621   0.15962   0.07573   0.00000  Uiso   1.00
H718   H     0.57688   0.24063   0.86630   0.00000  Uiso   1.00
H719   H     0.62535   0.27374   0.83121   0.00000  Uiso   1.00
H720   H     0.63470   0.33977   0.84263   0.00000  Uiso   1.00
H721   H     0.59521   0.37288   0.88926   0.00000  Uiso   1.00
H722   H     0.54619   0.34039   0.92427   0.00000  Uiso   1.00
H723   H     0.74060   0.07687   0.13371   0.00000  Uiso   1.00
H724   H     0.95147   0.28266   0.02527   0.00000  Uiso   1.00
H725   H     0.77368   0.12535   0.16880   0.00000  Uiso   1.00
H726   H     0.83970   0.13475   0.15738   0.00000  Uiso   1.00
H727   H     0.87283   0.09528   0.11074   0.00000  Uiso   1.00
H728   H     0.84036   0.04625   0.07572   0.00000  Uiso   1.00
H729   H     0.75939   0.07687   0.86629   0.00000  Uiso   1.00
H730   H     0.72630   0.12535   0.83120   0.00000  Uiso   1.00
H731   H     0.66028   0.13473   0.84261   0.00000  Uiso   1.00
H732   H     0.62715   0.09525   0.88925   0.00000  Uiso   1.00
H733   H     0.65963   0.04623   0.92427   0.00000  Uiso   1.00
H734   H     0.92312   0.24063   0.13371   0.00000  Uiso   1.00
H735   H     0.95147   0.21734   0.97473   0.00000  Uiso   1.00
H736   H     0.87465   0.27373   0.16879   0.00000  Uiso   1.00
H737   H     0.86529   0.33975   0.15738   0.00000  Uiso   1.00
H738   H     0.90477   0.37287   0.11074   0.00000  Uiso   1.00
H739   H     0.95380   0.34038   0.07573   0.00000  Uiso   1.00
H740   H     0.92312   0.25937   0.86629   0.00000  Uiso   1.00
H741   H     0.87466   0.22626   0.83120   0.00000  Uiso   1.00
H742   H     0.86530   0.16024   0.84262   0.00000  Uiso   1.00
H743   H     0.90478   0.12712   0.88926   0.00000  Uiso   1.00
H744   H     0.95380   0.15962   0.92427   0.00000  Uiso   1.00
H745   H     0.50936   0.17312   0.63370   0.00000  Uiso   1.00
H746   H     0.96734   0.20148   0.52526   0.00000  Uiso   1.00
H747   H     0.97624   0.12465   0.66878   0.00000  Uiso   1.00
H748   H     0.91021   0.11531   0.65736   0.00000  Uiso   1.00
H749   H     0.87710   0.15482   0.61074   0.00000  Uiso   1.00
H750   H     0.90961   0.20383   0.57573   0.00000  Uiso   1.00
H751   H     0.99061   0.17313   0.36629   0.00000  Uiso   1.00
H752   H     0.52370   0.12465   0.33120   0.00000  Uiso   1.00
H753   H     0.58972   0.11527   0.34262   0.00000  Uiso   1.00
H754   H     0.62285   0.15475   0.38926   0.00000  Uiso   1.00
H755   H     0.59037   0.20377   0.42427   0.00000  Uiso   1.00
H756   H     0.82688   0.00937   0.63370   0.00000  Uiso   1.00
O757   O     0.75000  -0.00000   0.25000   0.00000  Uiso   1.00
O758   O     0.75000   0.46964   0.66317   0.00000  Uiso   1.00
O759   O     0.96964   0.25000   0.33683   0.00000  Uiso   1.00
O760   O     0.53036   0.25000   0.66317   0.00000  Uiso   1.00
O761   O     0.50000   0.21964   0.83683   0.00000  Uiso   1.00
O762   O     0.50000   0.28036   0.16317   0.00000  Uiso   1.00
O763   O     0.78036  -0.00000   0.83683   0.00000  Uiso   1.00
O764   O     0.71964  -0.00000   0.16317   0.00000  Uiso   1.00
O765   O     0.50000   0.28036   0.83683   0.00000  Uiso   1.00
O766   O     0.50000   0.21964   0.16317   0.00000  Uiso   1.00
O767   O     0.71964   0.00000   0.83683   0.00000  Uiso   1.00
O768   O     0.75000  -0.00000   0.75000   0.00000  Uiso   1.00
O769   O     0.78036  -0.00000   0.16317   0.00000  Uiso   1.00
O770   O     0.70726   0.07307   0.27282   0.00000  Uiso   1.00
O771   O     0.79275   0.42693   0.72718   0.00000  Uiso   1.00
O772   O     0.92693   0.20725   0.27282   0.00000  Uiso   1.00
O773   O     0.57307   0.29275   0.72718   0.00000  Uiso   1.00
O774   O     0.79275   0.42693   0.27282   0.00000  Uiso   1.00
O775   O     0.70726   0.07307   0.72718   0.00000  Uiso   1.00
O776   O     0.57307   0.29275   0.27282   0.00000  Uiso   1.00
O777   O     0.92693   0.20725   0.72718   0.00000  Uiso   1.00
O778   O     0.70726   0.42693   0.72718   0.00000  Uiso   1.00
O779   O     0.50000   0.25000   0.25000   0.00000  Uiso   1.00
O780   O     0.79275   0.07307   0.27282   0.00000  Uiso   1.00
O781   O     0.92693   0.29274   0.72718   0.00000  Uiso   1.00
O782   O     0.57307   0.20726   0.27282   0.00000  Uiso   1.00
O783   O     0.79275   0.07307   0.72718   0.00000  Uiso   1.00
O784   O     0.70726   0.42693   0.27282   0.00000  Uiso   1.00
O785   O     0.57307   0.20726   0.72718   0.00000  Uiso   1.00
O786   O     0.92693   0.29274   0.27282   0.00000  Uiso   1.00
O787   O     0.95726   0.32307   0.77282   0.00000  Uiso   1.00
O788   O     0.54275   0.17693   0.22718   0.00000  Uiso   1.00
O789   O     0.67693   0.45726   0.77282   0.00000  Uiso   1.00
O790   O     0.50000   0.25000   0.75000   0.00000  Uiso   1.00
O791   O     0.82307   0.04274   0.22718   0.00000  Uiso   1.00
O792   O     0.54275   0.17693   0.77282   0.00000  Uiso   1.00
O793   O     0.95726   0.32307   0.22718   0.00000  Uiso   1.00
O794   O     0.82307   0.04274   0.77282   0.00000  Uiso   1.00
O795   O     0.67693   0.45726   0.22718   0.00000  Uiso   1.00
O796   O     0.95726   0.17693   0.22718   0.00000  Uiso   1.00
O797   O     0.54275   0.32307   0.77282   0.00000  Uiso   1.00
O798   O     0.67693   0.04274   0.22718   0.00000  Uiso   1.00
O799   O     0.82307   0.45725   0.77282   0.00000  Uiso   1.00
O800   O     0.54275   0.32307   0.22718   0.00000  Uiso   1.00
O801   O     0.75000   0.46964   0.33683   0.00000  Uiso   1.00
O802   O     0.95726   0.17693   0.77282   0.00000  Uiso   1.00
O803   O     0.82307   0.45725   0.22718   0.00000  Uiso   1.00
O804   O     0.67693   0.04274   0.77282   0.00000  Uiso   1.00
O805   O     0.75000   0.03036   0.66317   0.00000  Uiso   1.00
O806   O     0.53036   0.25000   0.33683   0.00000  Uiso   1.00
O807   O     0.96964   0.25000   0.66317   0.00000  Uiso   1.00
O808   O     0.75000   0.03036   0.33683   0.00000  Uiso   1.00
Zn809  Zn    0.70660  -0.00000   0.21760   0.00000  Uiso   1.00
Zn810  Zn    0.54340   0.25000   0.28240   0.00000  Uiso   1.00
Zn811  Zn    0.75000   0.45660   0.71760   0.00000  Uiso   1.00
Zn812  Zn    0.75000   0.04340   0.28240   0.00000  Uiso   1.00
Zn813  Zn    0.54340   0.25000   0.71760   0.00000  Uiso   1.00
Zn814  Zn    0.95660   0.25000   0.28240   0.00000  Uiso   1.00
Zn815  Zn    0.75000   0.04340   0.71760   0.00000  Uiso   1.00
Zn816  Zn    0.75000   0.45660   0.28240   0.00000  Uiso   1.00
Zn817  Zn    0.79340  -0.00000   0.78240   0.00000  Uiso   1.00
Zn818  Zn    0.50000   0.20660   0.21760   0.00000  Uiso   1.00
Zn819  Zn    0.50000   0.29340   0.78240   0.00000  Uiso   1.00
Zn820  Zn    0.79340  -0.00000   0.21760   0.00000  Uiso   1.00
Zn821  Zn    0.70660  -0.00000   0.78240   0.00000  Uiso   1.00
Zn822  Zn    0.50000   0.29340   0.21760   0.00000  Uiso   1.00
Zn823  Zn    0.50000   0.20660   0.78240   0.00000  Uiso   1.00
Zn824  Zn    0.95660   0.25000   0.71760   0.00000  Uiso   1.00
C825   C     0.23147   0.97263   0.04134   0.00000  Uiso   1.00
C826   C     0.01854   0.72264   0.45866   0.00000  Uiso   1.00
C827   C     0.34813   0.90186   0.75000   0.00000  Uiso   1.00
C828   C     0.40184   0.65184   0.25000   0.00000  Uiso   1.00
C829   C     0.09813   0.84814   0.75000   0.00000  Uiso   1.00
C830   C     0.34816   0.90184   0.25000   0.00000  Uiso   1.00
C831   C     0.15187   0.59814   0.75000   0.00000  Uiso   1.00
C832   C     0.09816   0.65184   0.75000   0.00000  Uiso   1.00
C833   C     0.40187   0.84813   0.25000   0.00000  Uiso   1.00
C834   C     0.15184   0.90184   0.75000   0.00000  Uiso   1.00
C835   C     0.34813   0.59813   0.25000   0.00000  Uiso   1.00
C836   C     0.40184   0.84816   0.75000   0.00000  Uiso   1.00
C837   C     0.27735   0.98144   0.54134   0.00000  Uiso   1.00
C838   C     0.09813   0.65186   0.25000   0.00000  Uiso   1.00
C839   C     0.34816   0.59816   0.75000   0.00000  Uiso   1.00
C840   C     0.15187   0.90187   0.25000   0.00000  Uiso   1.00
C841   C     0.25000   0.50000   0.10245   0.00000  Uiso   1.00
C842   C     0.25000   0.50000   0.89755   0.00000  Uiso   1.00
C843   C    -0.00000   0.75000   0.10245   0.00000  Uiso   1.00
C844   C    -0.00000   0.75000   0.89755   0.00000  Uiso   1.00
C845   C     0.00000   0.75000   0.60245   0.00000  Uiso   1.00
C846   C     0.00000   0.75000   0.39755   0.00000  Uiso   1.00
C847   C     0.25000   0.50000   0.60245   0.00000  Uiso   1.00
C848   C     0.27736   0.51854   0.45866   0.00000  Uiso   1.00
C849   C     0.25000   0.50000   0.39755   0.00000  Uiso   1.00
C850   C     0.21187   0.94225   0.10234   0.00000  Uiso   1.00
C851   C     0.23051   0.91947   0.12857   0.00000  Uiso   1.00
C852   C     0.21189   0.89191   0.14842   0.00000  Uiso   1.00
C853   C     0.17468   0.88660   0.14198   0.00000  Uiso   1.00
C854   C     0.15601   0.90885   0.11566   0.00000  Uiso   1.00
C855   C     0.17451   0.93651   0.09580   0.00000  Uiso   1.00
C856   C     0.28814   0.94226   0.89766   0.00000  Uiso   1.00
C857   C     0.26950   0.91948   0.87143   0.00000  Uiso   1.00
C858   C     0.28813   0.89191   0.85158   0.00000  Uiso   1.00
C859   C     0.01855   0.77736   0.54134   0.00000  Uiso   1.00
C860   C     0.32534   0.88661   0.85802   0.00000  Uiso   1.00
C861   C     0.34400   0.90886   0.88434   0.00000  Uiso   1.00
C862   C     0.32550   0.93652   0.90421   0.00000  Uiso   1.00
C863   C     0.05773   0.71185   0.10234   0.00000  Uiso   1.00
C864   C     0.08052   0.73048   0.12857   0.00000  Uiso   1.00
C865   C     0.10809   0.71185   0.14841   0.00000  Uiso   1.00
C866   C     0.11338   0.67463   0.14197   0.00000  Uiso   1.00
C867   C     0.09112   0.65598   0.11565   0.00000  Uiso   1.00
C868   C     0.06346   0.67448   0.09579   0.00000  Uiso   1.00
C869   C     0.05773   0.78816   0.89766   0.00000  Uiso   1.00
C870   C     0.48146   0.77737   0.45866   0.00000  Uiso   1.00
C871   C     0.08052   0.76953   0.87144   0.00000  Uiso   1.00
C872   C     0.10808   0.78816   0.85159   0.00000  Uiso   1.00
C873   C     0.11337   0.82538   0.85803   0.00000  Uiso   1.00
C874   C     0.09111   0.84404   0.88434   0.00000  Uiso   1.00
C875   C     0.06345   0.82553   0.90420   0.00000  Uiso   1.00
C876   C     0.28813   0.55775   0.10234   0.00000  Uiso   1.00
C877   C     0.26949   0.58053   0.12857   0.00000  Uiso   1.00
C878   C     0.28811   0.60810   0.14842   0.00000  Uiso   1.00
C879   C     0.32532   0.61340   0.14198   0.00000  Uiso   1.00
C880   C     0.34399   0.59116   0.11566   0.00000  Uiso   1.00
C881   C     0.22264   0.51855   0.54134   0.00000  Uiso   1.00
C882   C     0.32549   0.56349   0.09579   0.00000  Uiso   1.00
C883   C     0.21186   0.55774   0.89766   0.00000  Uiso   1.00
C884   C     0.23050   0.58052   0.87143   0.00000  Uiso   1.00
C885   C     0.21188   0.60809   0.85158   0.00000  Uiso   1.00
C886   C     0.17466   0.61339   0.85802   0.00000  Uiso   1.00
C887   C     0.15600   0.59114   0.88434   0.00000  Uiso   1.00
C888   C     0.17450   0.56347   0.90420   0.00000  Uiso   1.00
C889   C     0.44227   0.78816   0.10234   0.00000  Uiso   1.00
C890   C     0.41948   0.76952   0.12857   0.00000  Uiso   1.00
C891   C     0.39191   0.78815   0.14841   0.00000  Uiso   1.00
C892   C     0.22263   0.98146   0.45866   0.00000  Uiso   1.00
C893   C     0.38663   0.82537   0.14197   0.00000  Uiso   1.00
C894   C     0.40888   0.84403   0.11566   0.00000  Uiso   1.00
C895   C     0.43654   0.82552   0.09580   0.00000  Uiso   1.00
C896   C     0.44227   0.71184   0.89766   0.00000  Uiso   1.00
C897   C     0.41948   0.73047   0.87143   0.00000  Uiso   1.00
C898   C     0.39192   0.71184   0.85158   0.00000  Uiso   1.00
C899   C     0.38663   0.67462   0.85802   0.00000  Uiso   1.00
C900   C     0.40889   0.65597   0.88434   0.00000  Uiso   1.00
C901   C     0.43655   0.67447   0.90420   0.00000  Uiso   1.00
C902   C     0.46183   0.69228   0.60234   0.00000  Uiso   1.00
C903   C     0.23124   0.97225   0.08198   0.00000  Uiso   1.00
C904   C     0.48046   0.66948   0.62856   0.00000  Uiso   1.00
C905   C     0.46182   0.64192   0.64840   0.00000  Uiso   1.00
C906   C     0.42460   0.63665   0.64196   0.00000  Uiso   1.00
C907   C     0.40595   0.65892   0.61565   0.00000  Uiso   1.00
C908   C     0.42447   0.68657   0.59579   0.00000  Uiso   1.00
C909   C     0.03814   0.69226   0.39766   0.00000  Uiso   1.00
C910   C     0.01950   0.66948   0.37143   0.00000  Uiso   1.00
C911   C     0.03813   0.64191   0.35158   0.00000  Uiso   1.00
C912   C     0.07534   0.63661   0.35802   0.00000  Uiso   1.00
C913   C     0.09401   0.65886   0.38434   0.00000  Uiso   1.00
C914   C     0.26877   0.97226   0.91802   0.00000  Uiso   1.00
C915   C     0.07551   0.68653   0.40421   0.00000  Uiso   1.00
C916   C     0.30773   0.96184   0.60234   0.00000  Uiso   1.00
C917   C     0.33052   0.98047   0.62856   0.00000  Uiso   1.00
C918   C     0.35808   0.96184   0.64841   0.00000  Uiso   1.00
C919   C     0.36337   0.92462   0.64197   0.00000  Uiso   1.00
C920   C     0.34111   0.90596   0.61566   0.00000  Uiso   1.00
C921   C     0.31345   0.92447   0.59580   0.00000  Uiso   1.00
C922   C     0.30774   0.53814   0.39766   0.00000  Uiso   1.00
C923   C     0.33053   0.51950   0.37143   0.00000  Uiso   1.00
C924   C     0.35809   0.53813   0.35159   0.00000  Uiso   1.00
C925   C     0.02774   0.73123   0.08198   0.00000  Uiso   1.00
C926   C     0.36339   0.57535   0.35803   0.00000  Uiso   1.00
C927   C     0.34114   0.59400   0.38435   0.00000  Uiso   1.00
C928   C     0.31347   0.57550   0.40421   0.00000  Uiso   1.00
C929   C     0.03815   0.80774   0.60234   0.00000  Uiso   1.00
C930   C     0.01951   0.83052   0.62858   0.00000  Uiso   1.00
C931   C     0.03814   0.85808   0.64843   0.00000  Uiso   1.00
C932   C     0.07535   0.86339   0.64198   0.00000  Uiso   1.00
C933   C     0.09401   0.84115   0.61565   0.00000  Uiso   1.00
C934   C     0.07551   0.81349   0.59579   0.00000  Uiso   1.00
C935   C     0.46186   0.80774   0.39766   0.00000  Uiso   1.00
C936   C     0.26854   0.97263   0.95866   0.00000  Uiso   1.00
C937   C     0.02774   0.76878   0.91802   0.00000  Uiso   1.00
C938   C     0.48050   0.83052   0.37143   0.00000  Uiso   1.00
C939   C     0.46187   0.85809   0.35158   0.00000  Uiso   1.00
C940   C     0.42466   0.86338   0.35802   0.00000  Uiso   1.00
C941   C     0.40600   0.84114   0.38434   0.00000  Uiso   1.00
C942   C     0.42450   0.81347   0.40421   0.00000  Uiso   1.00
C943   C     0.19227   0.53816   0.60234   0.00000  Uiso   1.00
C944   C     0.16948   0.51953   0.62857   0.00000  Uiso   1.00
C945   C     0.14192   0.53817   0.64841   0.00000  Uiso   1.00
C946   C     0.13664   0.57539   0.64197   0.00000  Uiso   1.00
C947   C     0.15889   0.59404   0.61565   0.00000  Uiso   1.00
C948   C     0.26876   0.52775   0.08198   0.00000  Uiso   1.00
C949   C     0.18655   0.57553   0.59579   0.00000  Uiso   1.00
C950   C     0.19226   0.96186   0.39766   0.00000  Uiso   1.00
C951   C     0.16948   0.98050   0.37143   0.00000  Uiso   1.00
C952   C     0.14191   0.96188   0.35158   0.00000  Uiso   1.00
C953   C     0.13661   0.92466   0.35802   0.00000  Uiso   1.00
C954   C     0.15886   0.90600   0.38434   0.00000  Uiso   1.00
C955   C     0.18652   0.92450   0.40420   0.00000  Uiso   1.00
C956   C     0.23123   0.52774   0.91802   0.00000  Uiso   1.00
C957   C     0.47226   0.76877   0.08198   0.00000  Uiso   1.00
C958   C     0.47226   0.73122   0.91802   0.00000  Uiso   1.00
C959   C     0.48122   0.72227   0.58198   0.00000  Uiso   1.00
C960   C     0.01877   0.72226   0.41802   0.00000  Uiso   1.00
C961   C     0.27773   0.98122   0.58198   0.00000  Uiso   1.00
C962   C     0.27774   0.51877   0.41802   0.00000  Uiso   1.00
C963   C     0.01878   0.77774   0.58198   0.00000  Uiso   1.00
C964   C     0.02736   0.73145   0.04134   0.00000  Uiso   1.00
C965   C     0.48123   0.77774   0.41802   0.00000  Uiso   1.00
C966   C     0.22226   0.51878   0.58198   0.00000  Uiso   1.00
C967   C     0.22226   0.98123   0.41802   0.00000  Uiso   1.00
C968   C     0.25000   0.50000   0.02121   0.00000  Uiso   1.00
C969   C     0.25000   0.50000   0.97879   0.00000  Uiso   1.00
C970   C    -0.00000   0.75000   0.02121   0.00000  Uiso   1.00
C971   C    -0.00000   0.75000   0.97879   0.00000  Uiso   1.00
C972   C     0.00000   0.75000   0.52120   0.00000  Uiso   1.00
C973   C     0.00001   0.75000   0.47879   0.00000  Uiso   1.00
C974   C     0.25000   0.50000   0.52121   0.00000  Uiso   1.00
C975   C     0.02736   0.76855   0.95866   0.00000  Uiso   1.00
C976   C     0.25000   0.50000   0.47879   0.00000  Uiso   1.00
C977   C     0.25000   0.50000   0.35509   0.00000  Uiso   1.00
C978   C     0.25000   0.50000   0.64491   0.00000  Uiso   1.00
C979   C     0.00000   0.75000   0.35509   0.00000  Uiso   1.00
C980   C     0.00000   0.75000   0.64491   0.00000  Uiso   1.00
C981   C     0.00000   0.75000   0.85509   0.00000  Uiso   1.00
C982   C     0.00000   0.75000   0.14491   0.00000  Uiso   1.00
C983   C     0.25000   0.50000   0.85509   0.00000  Uiso   1.00
C984   C     0.25000   0.50000   0.14491   0.00000  Uiso   1.00
C985   C     0.17990   0.57010   0.25000   0.00000  Uiso   1.00
C986   C     0.26853   0.52737   0.04134   0.00000  Uiso   1.00
C987   C     0.32009   0.92991   0.75000   0.00000  Uiso   1.00
C988   C     0.42990   0.67990   0.25000   0.00000  Uiso   1.00
C989   C     0.07009   0.82009   0.75000   0.00000  Uiso   1.00
C990   C     0.32010   0.92990   0.25000   0.00000  Uiso   1.00
C991   C     0.17991   0.57009   0.75000   0.00000  Uiso   1.00
C992   C     0.07010   0.82010   0.25000   0.00000  Uiso   1.00
C993   C     0.42991   0.67991   0.75000   0.00000  Uiso   1.00
C994   C     0.17990   0.92990   0.75000   0.00000  Uiso   1.00
C995   C     0.32009   0.57009   0.25000   0.00000  Uiso   1.00
C996   C     0.42990   0.82010   0.75000   0.00000  Uiso   1.00
C997   C     0.23146   0.52737   0.95866   0.00000  Uiso   1.00
C998   C     0.07009   0.67991   0.25000   0.00000  Uiso   1.00
C999   C     0.32010   0.57010   0.75000   0.00000  Uiso   1.00
C1000  C     0.17991   0.92991   0.25000   0.00000  Uiso   1.00
C1001  C     0.07010   0.67990   0.75000   0.00000  Uiso   1.00
C1002  C     0.42991   0.82009   0.25000   0.00000  Uiso   1.00
C1003  C     0.12178   0.90497   0.22509   0.00000  Uiso   1.00
C1004  C     0.37823   0.59508   0.77495   0.00000  Uiso   1.00
C1005  C     0.09503   0.62177   0.22509   0.00000  Uiso   1.00
C1006  C     0.40491   0.87822   0.77496   0.00000  Uiso   1.00
C1007  C     0.37822   0.59504   0.22508   0.00000  Uiso   1.00
C1008  C     0.47264   0.76855   0.04134   0.00000  Uiso   1.00
C1009  C     0.12178   0.90491   0.77496   0.00000  Uiso   1.00
C1010  C     0.40497   0.87823   0.22510   0.00000  Uiso   1.00
C1011  C     0.09509   0.62177   0.77496   0.00000  Uiso   1.00
C1012  C     0.12177   0.59502   0.77490   0.00000  Uiso   1.00
C1013  C     0.37823   0.90491   0.22504   0.00000  Uiso   1.00
C1014  C     0.09503   0.87823   0.77490   0.00000  Uiso   1.00
C1015  C     0.40490   0.62179   0.22502   0.00000  Uiso   1.00
C1016  C     0.37823   0.90497   0.77491   0.00000  Uiso   1.00
C1017  C     0.12178   0.59509   0.22504   0.00000  Uiso   1.00
C1018  C     0.40498   0.62177   0.77489   0.00000  Uiso   1.00
C1019  C     0.47264   0.73145   0.95866   0.00000  Uiso   1.00
C1020  C     0.09510   0.87822   0.22503   0.00000  Uiso   1.00
C1021  C     0.37177   0.65498   0.72511   0.00000  Uiso   1.00
C1022  C     0.12822   0.84510   0.27497   0.00000  Uiso   1.00
C1023  C     0.34503   0.87177   0.72510   0.00000  Uiso   1.00
C1024  C     0.15491   0.62822   0.27496   0.00000  Uiso   1.00
C1025  C     0.12823   0.84503   0.72509   0.00000  Uiso   1.00
C1026  C     0.37179   0.65490   0.27498   0.00000  Uiso   1.00
C1027  C     0.15498   0.62823   0.72510   0.00000  Uiso   1.00
C1028  C     0.34509   0.87178   0.27496   0.00000  Uiso   1.00
C1029  C     0.37177   0.84503   0.27491   0.00000  Uiso   1.00
C1030  C     0.48145   0.72265   0.54133   0.00000  Uiso   1.00
C1031  C     0.12823   0.65491   0.72505   0.00000  Uiso   1.00
C1032  C     0.34504   0.62822   0.27492   0.00000  Uiso   1.00
C1033  C     0.15491   0.87178   0.72504   0.00000  Uiso   1.00
C1034  C     0.12823   0.65497   0.27491   0.00000  Uiso   1.00
C1035  C     0.37177   0.84509   0.72504   0.00000  Uiso   1.00
C1036  C     0.15497   0.87178   0.27491   0.00000  Uiso   1.00
C1037  C     0.34508   0.62823   0.72505   0.00000  Uiso   1.00
C1038  C     0.09816   0.84816   0.25000   0.00000  Uiso   1.00
C1039  C     0.40187   0.65187   0.75000   0.00000  Uiso   1.00
C1040  C     0.15184   0.59816   0.25000   0.00000  Uiso   1.00
H1041  H     0.21736   0.95146   0.02527   0.00000  Uiso   1.00
H1042  H     0.03265   0.70147   0.47473   0.00000  Uiso   1.00
H1043  H     0.37535   0.97626   0.66878   0.00000  Uiso   1.00
H1044  H     0.38471   0.91024   0.65737   0.00000  Uiso   1.00
H1045  H     0.34521   0.87712   0.61075   0.00000  Uiso   1.00
H1046  H     0.29619   0.90961   0.57573   0.00000  Uiso   1.00
H1047  H     0.32687   0.99061   0.36629   0.00000  Uiso   1.00
H1048  H     0.37536   0.52370   0.33121   0.00000  Uiso   1.00
H1049  H     0.38473   0.58972   0.34263   0.00000  Uiso   1.00
H1050  H     0.34525   0.62285   0.38927   0.00000  Uiso   1.00
H1051  H     0.29623   0.59037   0.42428   0.00000  Uiso   1.00
H1052  H     0.49062   0.82686   0.63373   0.00000  Uiso   1.00
H1053  H     0.29852   0.96733   0.52527   0.00000  Uiso   1.00
H1054  H     0.02371   0.87534   0.66882   0.00000  Uiso   1.00
H1055  H     0.08973   0.88474   0.65738   0.00000  Uiso   1.00
H1056  H     0.12285   0.84528   0.61073   0.00000  Uiso   1.00
H1057  H     0.09037   0.79625   0.57571   0.00000  Uiso   1.00
H1058  H     0.00939   0.82687   0.36628   0.00000  Uiso   1.00
H1059  H     0.47630   0.87535   0.33120   0.00000  Uiso   1.00
H1060  H     0.41028   0.88473   0.34262   0.00000  Uiso   1.00
H1061  H     0.37715   0.84525   0.38926   0.00000  Uiso   1.00
H1062  H     0.40964   0.79623   0.42428   0.00000  Uiso   1.00
H1063  H     0.17312   0.99064   0.63371   0.00000  Uiso   1.00
H1064  H     0.29853   0.53264   0.47474   0.00000  Uiso   1.00
H1065  H     0.12466   0.52375   0.66879   0.00000  Uiso   1.00
H1066  H     0.11530   0.58978   0.65737   0.00000  Uiso   1.00
H1067  H     0.15479   0.62288   0.61073   0.00000  Uiso   1.00
H1068  H     0.20381   0.59038   0.57572   0.00000  Uiso   1.00
H1069  H     0.17313   0.50940   0.36629   0.00000  Uiso   1.00
H1070  H     0.12465   0.97631   0.33119   0.00000  Uiso   1.00
H1071  H     0.11527   0.91029   0.34261   0.00000  Uiso   1.00
H1072  H     0.15474   0.87716   0.38925   0.00000  Uiso   1.00
H1073  H     0.20376   0.90964   0.42427   0.00000  Uiso   1.00
H1074  H     0.03266   0.79853   0.52527   0.00000  Uiso   1.00
H1075  H     0.46736   0.79854   0.47473   0.00000  Uiso   1.00
H1076  H     0.20148   0.53266   0.52526   0.00000  Uiso   1.00
H1077  H     0.20146   0.96735   0.47473   0.00000  Uiso   1.00
H1078  H     0.11889   0.92795   0.20553   0.00000  Uiso   1.00
H1079  H     0.38113   0.57211   0.79450   0.00000  Uiso   1.00
H1080  H     0.07205   0.61888   0.20555   0.00000  Uiso   1.00
H1081  H     0.28264   0.95146   0.97473   0.00000  Uiso   1.00
H1082  H     0.42788   0.88112   0.79452   0.00000  Uiso   1.00
H1083  H     0.38110   0.57207   0.20552   0.00000  Uiso   1.00
H1084  H     0.11888   0.92788   0.79452   0.00000  Uiso   1.00
H1085  H     0.42796   0.88112   0.20555   0.00000  Uiso   1.00
H1086  H     0.07212   0.61888   0.79451   0.00000  Uiso   1.00
H1087  H     0.11888   0.57204   0.79444   0.00000  Uiso   1.00
H1088  H     0.38112   0.92788   0.20549   0.00000  Uiso   1.00
H1089  H     0.07205   0.88112   0.79445   0.00000  Uiso   1.00
H1090  H     0.42786   0.61890   0.20545   0.00000  Uiso   1.00
H1091  H     0.38112   0.92795   0.79445   0.00000  Uiso   1.00
H1092  H     0.04853   0.71734   0.02527   0.00000  Uiso   1.00
H1093  H     0.11888   0.57212   0.20548   0.00000  Uiso   1.00
H1094  H     0.42797   0.61887   0.79443   0.00000  Uiso   1.00
H1095  H     0.07213   0.88111   0.20547   0.00000  Uiso   1.00
H1096  H     0.36887   0.67797   0.70557   0.00000  Uiso   1.00
H1097  H     0.13111   0.82213   0.29453   0.00000  Uiso   1.00
H1098  H     0.32205   0.86888   0.70555   0.00000  Uiso   1.00
H1099  H     0.17788   0.63112   0.29452   0.00000  Uiso   1.00
H1100  H     0.13112   0.82205   0.70555   0.00000  Uiso   1.00
H1101  H     0.36890   0.67786   0.29455   0.00000  Uiso   1.00
H1102  H     0.17796   0.63112   0.70556   0.00000  Uiso   1.00
H1103  H     0.04852   0.78266   0.97474   0.00000  Uiso   1.00
H1104  H     0.32212   0.86888   0.29452   0.00000  Uiso   1.00
H1105  H     0.36888   0.82205   0.29445   0.00000  Uiso   1.00
H1106  H     0.13112   0.67788   0.70549   0.00000  Uiso   1.00
H1107  H     0.32207   0.63110   0.29448   0.00000  Uiso   1.00
H1108  H     0.17788   0.86888   0.70548   0.00000  Uiso   1.00
H1109  H     0.13112   0.67795   0.29445   0.00000  Uiso   1.00
H1110  H     0.36888   0.82212   0.70548   0.00000  Uiso   1.00
H1111  H     0.17795   0.86889   0.29446   0.00000  Uiso   1.00
H1112  H     0.32211   0.63113   0.70550   0.00000  Uiso   1.00
H1113  H     0.25941   0.92313   0.13371   0.00000  Uiso   1.00
H1114  H     0.28264   0.54854   0.02527   0.00000  Uiso   1.00
H1115  H     0.22632   0.87465   0.16881   0.00000  Uiso   1.00
H1116  H     0.16030   0.86526   0.15739   0.00000  Uiso   1.00
H1117  H     0.12717   0.90472   0.11075   0.00000  Uiso   1.00
H1118  H     0.15964   0.95375   0.07573   0.00000  Uiso   1.00
H1119  H     0.24061   0.92313   0.86629   0.00000  Uiso   1.00
H1120  H     0.27370   0.87465   0.83120   0.00000  Uiso   1.00
H1121  H     0.33972   0.86527   0.84262   0.00000  Uiso   1.00
H1122  H     0.37285   0.90474   0.88926   0.00000  Uiso   1.00
H1123  H     0.34037   0.95377   0.92427   0.00000  Uiso   1.00
H1124  H     0.07687   0.75937   0.13371   0.00000  Uiso   1.00
H1125  H     0.21735   0.54854   0.97473   0.00000  Uiso   1.00
H1126  H     0.12535   0.72627   0.16879   0.00000  Uiso   1.00
H1127  H     0.13472   0.66025   0.15737   0.00000  Uiso   1.00
H1128  H     0.09523   0.62713   0.11074   0.00000  Uiso   1.00
H1129  H     0.04621   0.65962   0.07573   0.00000  Uiso   1.00
H1130  H     0.07688   0.74063   0.86630   0.00000  Uiso   1.00
H1131  H     0.12535   0.77374   0.83121   0.00000  Uiso   1.00
H1132  H     0.13470   0.83977   0.84263   0.00000  Uiso   1.00
H1133  H     0.09521   0.87288   0.88926   0.00000  Uiso   1.00
H1134  H     0.04619   0.84039   0.92427   0.00000  Uiso   1.00
H1135  H     0.24060   0.57687   0.13371   0.00000  Uiso   1.00
H1136  H     0.45147   0.78266   0.02527   0.00000  Uiso   1.00
H1137  H     0.27368   0.62535   0.16880   0.00000  Uiso   1.00
H1138  H     0.33970   0.63475   0.15738   0.00000  Uiso   1.00
H1139  H     0.37283   0.59528   0.11074   0.00000  Uiso   1.00
H1140  H     0.34036   0.54625   0.07572   0.00000  Uiso   1.00
H1141  H     0.25939   0.57687   0.86629   0.00000  Uiso   1.00
H1142  H     0.22630   0.62535   0.83120   0.00000  Uiso   1.00
H1143  H     0.16028   0.63473   0.84261   0.00000  Uiso   1.00
H1144  H     0.12715   0.59525   0.88925   0.00000  Uiso   1.00
H1145  H     0.15963   0.54623   0.92427   0.00000  Uiso   1.00
H1146  H     0.42312   0.74063   0.13371   0.00000  Uiso   1.00
H1147  H     0.45147   0.71734   0.97473   0.00000  Uiso   1.00
H1148  H     0.37465   0.77373   0.16879   0.00000  Uiso   1.00
H1149  H     0.36529   0.83975   0.15738   0.00000  Uiso   1.00
H1150  H     0.40477   0.87287   0.11074   0.00000  Uiso   1.00
H1151  H     0.45380   0.84038   0.07573   0.00000  Uiso   1.00
H1152  H     0.42312   0.75937   0.86629   0.00000  Uiso   1.00
H1153  H     0.37466   0.72626   0.83120   0.00000  Uiso   1.00
H1154  H     0.36530   0.66024   0.84262   0.00000  Uiso   1.00
H1155  H     0.40478   0.62712   0.88926   0.00000  Uiso   1.00
H1156  H     0.45380   0.65962   0.92427   0.00000  Uiso   1.00
H1157  H     0.00936   0.67312   0.63370   0.00000  Uiso   1.00
H1158  H     0.46734   0.70148   0.52526   0.00000  Uiso   1.00
H1159  H     0.47624   0.62465   0.66878   0.00000  Uiso   1.00
H1160  H     0.41021   0.61531   0.65736   0.00000  Uiso   1.00
H1161  H     0.37710   0.65482   0.61074   0.00000  Uiso   1.00
H1162  H     0.40961   0.70383   0.57573   0.00000  Uiso   1.00
H1163  H     0.49061   0.67313   0.36629   0.00000  Uiso   1.00
H1164  H     0.02370   0.62465   0.33120   0.00000  Uiso   1.00
H1165  H     0.08972   0.61527   0.34262   0.00000  Uiso   1.00
H1166  H     0.12285   0.65475   0.38926   0.00000  Uiso   1.00
H1167  H     0.09037   0.70377   0.42427   0.00000  Uiso   1.00
H1168  H     0.32688   0.50937   0.63370   0.00000  Uiso   1.00
O1169  O     0.25000   0.50000   0.25000   0.00000  Uiso   1.00
O1170  O     0.25000   0.96964   0.66317   0.00000  Uiso   1.00
O1171  O     0.46964   0.75000   0.33683   0.00000  Uiso   1.00
O1172  O     0.03036   0.75000   0.66317   0.00000  Uiso   1.00
O1173  O     0.00000   0.71964   0.83683   0.00000  Uiso   1.00
O1174  O     0.00000   0.78036   0.16317   0.00000  Uiso   1.00
O1175  O     0.28036   0.50000   0.83683   0.00000  Uiso   1.00
O1176  O     0.21964   0.50000   0.16317   0.00000  Uiso   1.00
O1177  O     0.00000   0.78036   0.83683   0.00000  Uiso   1.00
O1178  O     0.00000   0.71964   0.16317   0.00000  Uiso   1.00
O1179  O     0.21964   0.50000   0.83683   0.00000  Uiso   1.00
O1180  O     0.25000   0.50000   0.75000   0.00000  Uiso   1.00
O1181  O     0.28036   0.50000   0.16317   0.00000  Uiso   1.00
O1182  O     0.20726   0.57307   0.27282   0.00000  Uiso   1.00
O1183  O     0.29275   0.92693   0.72718   0.00000  Uiso   1.00
O1184  O     0.42693   0.70725   0.27282   0.00000  Uiso   1.00
O1185  O     0.07307   0.79275   0.72718   0.00000  Uiso   1.00
O1186  O     0.29275   0.92693   0.27282   0.00000  Uiso   1.00
O1187  O     0.20726   0.57307   0.72718   0.00000  Uiso   1.00
O1188  O     0.07307   0.79275   0.27282   0.00000  Uiso   1.00
O1189  O     0.42693   0.70725   0.72718   0.00000  Uiso   1.00
O1190  O     0.20726   0.92693   0.72718   0.00000  Uiso   1.00
O1191  O     0.00000   0.75000   0.25000   0.00000  Uiso   1.00
O1192  O     0.29275   0.57307   0.27282   0.00000  Uiso   1.00
O1193  O     0.42693   0.79274   0.72718   0.00000  Uiso   1.00
O1194  O     0.07307   0.70726   0.27282   0.00000  Uiso   1.00
O1195  O     0.29275   0.57307   0.72718   0.00000  Uiso   1.00
O1196  O     0.20726   0.92693   0.27282   0.00000  Uiso   1.00
O1197  O     0.07307   0.70726   0.72718   0.00000  Uiso   1.00
O1198  O     0.42693   0.79274   0.27282   0.00000  Uiso   1.00
O1199  O     0.45726   0.82307   0.77282   0.00000  Uiso   1.00
O1200  O     0.04275   0.67693   0.22718   0.00000  Uiso   1.00
O1201  O     0.17693   0.95726   0.77282   0.00000  Uiso   1.00
O1202  O     0.00000   0.75000   0.75000   0.00000  Uiso   1.00
O1203  O     0.32307   0.54274   0.22718   0.00000  Uiso   1.00
O1204  O     0.04275   0.67693   0.77282   0.00000  Uiso   1.00
O1205  O     0.45726   0.82307   0.22718   0.00000  Uiso   1.00
O1206  O     0.32307   0.54274   0.77282   0.00000  Uiso   1.00
O1207  O     0.17693   0.95726   0.22718   0.00000  Uiso   1.00
O1208  O     0.45726   0.67693   0.22718   0.00000  Uiso   1.00
O1209  O     0.04275   0.82307   0.77282   0.00000  Uiso   1.00
O1210  O     0.17693   0.54274   0.22718   0.00000  Uiso   1.00
O1211  O     0.32307   0.95725   0.77282   0.00000  Uiso   1.00
O1212  O     0.04275   0.82307   0.22718   0.00000  Uiso   1.00
O1213  O     0.25000   0.96964   0.33683   0.00000  Uiso   1.00
O1214  O     0.45726   0.67693   0.77282   0.00000  Uiso   1.00
O1215  O     0.32307   0.95725   0.22718   0.00000  Uiso   1.00
O1216  O     0.17693   0.54274   0.77282   0.00000  Uiso   1.00
O1217  O     0.25000   0.53036   0.66317   0.00000  Uiso   1.00
O1218  O     0.03036   0.75000   0.33683   0.00000  Uiso   1.00
O1219  O     0.46964   0.75000   0.66317   0.00000  Uiso   1.00
O1220  O     0.25000   0.53036   0.33683   0.00000  Uiso   1.00
Zn1221 Zn    0.20660   0.50000   0.21760   0.00000  Uiso   1.00
Zn1222 Zn    0.04340   0.75000   0.28240   0.00000  Uiso   1.00
Zn1223 Zn    0.25000   0.95660   0.71760   0.00000  Uiso   1.00
Zn1224 Zn    0.25000   0.54340   0.28240   0.00000  Uiso   1.00
Zn1225 Zn    0.04340   0.75000   0.71760   0.00000  Uiso   1.00
Zn1226 Zn    0.45660   0.75000   0.28240   0.00000  Uiso   1.00
Zn1227 Zn    0.25000   0.54340   0.71760   0.00000  Uiso   1.00
Zn1228 Zn    0.25000   0.95660   0.28240   0.00000  Uiso   1.00
Zn1229 Zn    0.29340   0.50000   0.78240   0.00000  Uiso   1.00
Zn1230 Zn    0.00000   0.70660   0.21760   0.00000  Uiso   1.00
Zn1231 Zn    0.00000   0.79340   0.78240   0.00000  Uiso   1.00
Zn1232 Zn    0.29340   0.50000   0.21760   0.00000  Uiso   1.00
Zn1233 Zn    0.20660   0.50000   0.78240   0.00000  Uiso   1.00
Zn1234 Zn    0.00000   0.79340   0.21760   0.00000  Uiso   1.00
Zn1235 Zn    0.00000   0.70660   0.78240   0.00000  Uiso   1.00
Zn1236 Zn    0.45660   0.75000   0.71760   0.00000  Uiso   1.00
C1237  C     0.73147   0.97263   0.04134   0.00000  Uiso   1.00
C1238  C     0.51854   0.72264   0.45866   0.00000  Uiso   1.00
C1239  C     0.84813   0.90186   0.75000   0.00000  Uiso   1.00
C1240  C     0.90184   0.65184   0.25000   0.00000  Uiso   1.00
C1241  C     0.59813   0.84814   0.75000   0.00000  Uiso   1.00
C1242  C     0.84816   0.90184   0.25000   0.00000  Uiso   1.00
C1243  C     0.65187   0.59814   0.75000   0.00000  Uiso   1.00
C1244  C     0.59816   0.65184   0.75000   0.00000  Uiso   1.00
C1245  C     0.90187   0.84813   0.25000   0.00000  Uiso   1.00
C1246  C     0.65184   0.90184   0.75000   0.00000  Uiso   1.00
C1247  C     0.84813   0.59813   0.25000   0.00000  Uiso   1.00
C1248  C     0.90184   0.84816   0.75000   0.00000  Uiso   1.00
C1249  C     0.77735   0.98144   0.54134   0.00000  Uiso   1.00
C1250  C     0.59813   0.65186   0.25000   0.00000  Uiso   1.00
C1251  C     0.84816   0.59816   0.75000   0.00000  Uiso   1.00
C1252  C     0.65187   0.90187   0.25000   0.00000  Uiso   1.00
C1253  C     0.75000   0.50000   0.10245   0.00000  Uiso   1.00
C1254  C     0.75000   0.50000   0.89755   0.00000  Uiso   1.00
C1255  C     0.50000   0.75000   0.10245   0.00000  Uiso   1.00
C1256  C     0.50000   0.75000   0.89755   0.00000  Uiso   1.00
C1257  C     0.50000   0.75000   0.60245   0.00000  Uiso   1.00
C1258  C     0.50000   0.75000   0.39755   0.00000  Uiso   1.00
C1259  C     0.75000   0.50000   0.60245   0.00000  Uiso   1.00
C1260  C     0.77736   0.51854   0.45866   0.00000  Uiso   1.00
C1261  C     0.75000   0.50000   0.39755   0.00000  Uiso   1.00
C1262  C     0.71187   0.94225   0.10234   0.00000  Uiso   1.00
C1263  C     0.73051   0.91947   0.12857   0.00000  Uiso   1.00
C1264  C     0.71189   0.89191   0.14842   0.00000  Uiso   1.00
C1265  C     0.67468   0.88660   0.14198   0.00000  Uiso   1.00
C1266  C     0.65601   0.90885   0.11566   0.00000  Uiso   1.00
C1267  C     0.67451   0.93651   0.09580   0.00000  Uiso   1.00
C1268  C     0.78814   0.94226   0.89766   0.00000  Uiso   1.00
C1269  C     0.76950   0.91948   0.87143   0.00000  Uiso   1.00
C1270  C     0.78813   0.89191   0.85158   0.00000  Uiso   1.00
C1271  C     0.51855   0.77736   0.54134   0.00000  Uiso   1.00
C1272  C     0.82534   0.88661   0.85802   0.00000  Uiso   1.00
C1273  C     0.84400   0.90886   0.88434   0.00000  Uiso   1.00
C1274  C     0.82550   0.93652   0.90421   0.00000  Uiso   1.00
C1275  C     0.55773   0.71185   0.10234   0.00000  Uiso   1.00
C1276  C     0.58052   0.73048   0.12857   0.00000  Uiso   1.00
C1277  C     0.60809   0.71185   0.14841   0.00000  Uiso   1.00
C1278  C     0.61338   0.67463   0.14197   0.00000  Uiso   1.00
C1279  C     0.59112   0.65598   0.11565   0.00000  Uiso   1.00
C1280  C     0.56346   0.67448   0.09579   0.00000  Uiso   1.00
C1281  C     0.55773   0.78816   0.89766   0.00000  Uiso   1.00
C1282  C     0.98146   0.77737   0.45866   0.00000  Uiso   1.00
C1283  C     0.58052   0.76953   0.87144   0.00000  Uiso   1.00
C1284  C     0.60808   0.78816   0.85159   0.00000  Uiso   1.00
C1285  C     0.61337   0.82538   0.85803   0.00000  Uiso   1.00
C1286  C     0.59111   0.84404   0.88434   0.00000  Uiso   1.00
C1287  C     0.56345   0.82553   0.90420   0.00000  Uiso   1.00
C1288  C     0.78813   0.55775   0.10234   0.00000  Uiso   1.00
C1289  C     0.76949   0.58053   0.12857   0.00000  Uiso   1.00
C1290  C     0.78811   0.60810   0.14842   0.00000  Uiso   1.00
C1291  C     0.82532   0.61340   0.14198   0.00000  Uiso   1.00
C1292  C     0.84399   0.59116   0.11566   0.00000  Uiso   1.00
C1293  C     0.72264   0.51855   0.54134   0.00000  Uiso   1.00
C1294  C     0.82549   0.56349   0.09579   0.00000  Uiso   1.00
C1295  C     0.71186   0.55774   0.89766   0.00000  Uiso   1.00
C1296  C     0.73050   0.58052   0.87143   0.00000  Uiso   1.00
C1297  C     0.71188   0.60809   0.85158   0.00000  Uiso   1.00
C1298  C     0.67466   0.61339   0.85802   0.00000  Uiso   1.00
C1299  C     0.65600   0.59114   0.88434   0.00000  Uiso   1.00
C1300  C     0.67450   0.56347   0.90420   0.00000  Uiso   1.00
C1301  C     0.94227   0.78816   0.10234   0.00000  Uiso   1.00
C1302  C     0.91948   0.76952   0.12857   0.00000  Uiso   1.00
C1303  C     0.89191   0.78815   0.14841   0.00000  Uiso   1.00
C1304  C     0.72263   0.98146   0.45866   0.00000  Uiso   1.00
C1305  C     0.88663   0.82537   0.14197   0.00000  Uiso   1.00
C1306  C     0.90888   0.84403   0.11566   0.00000  Uiso   1.00
C1307  C     0.93654   0.82552   0.09580   0.00000  Uiso   1.00
C1308  C     0.94227   0.71184   0.89766   0.00000  Uiso   1.00
C1309  C     0.91948   0.73047   0.87143   0.00000  Uiso   1.00
C1310  C     0.89192   0.71184   0.85158   0.00000  Uiso   1.00
C1311  C     0.88663   0.67462   0.85802   0.00000  Uiso   1.00
C1312  C     0.90889   0.65597   0.88434   0.00000  Uiso   1.00
C1313  C     0.93655   0.67447   0.90420   0.00000  Uiso   1.00
C1314  C     0.96183   0.69228   0.60234   0.00000  Uiso   1.00
C1315  C     0.73124   0.97225   0.08198   0.00000  Uiso   1.00
C1316  C     0.98046   0.66948   0.62856   0.00000  Uiso   1.00
C1317  C     0.96182   0.64192   0.64840   0.00000  Uiso   1.00
C1318  C     0.92460   0.63665   0.64196   0.00000  Uiso   1.00
C1319  C     0.90595   0.65892   0.61565   0.00000  Uiso   1.00
C1320  C     0.92447   0.68657   0.59579   0.00000  Uiso   1.00
C1321  C     0.53814   0.69226   0.39766   0.00000  Uiso   1.00
C1322  C     0.51950   0.66948   0.37143   0.00000  Uiso   1.00
C1323  C     0.53813   0.64191   0.35158   0.00000  Uiso   1.00
C1324  C     0.57534   0.63661   0.35802   0.00000  Uiso   1.00
C1325  C     0.59401   0.65886   0.38434   0.00000  Uiso   1.00
C1326  C     0.76877   0.97226   0.91802   0.00000  Uiso   1.00
C1327  C     0.57551   0.68653   0.40421   0.00000  Uiso   1.00
C1328  C     0.80773   0.96184   0.60234   0.00000  Uiso   1.00
C1329  C     0.83052   0.98047   0.62856   0.00000  Uiso   1.00
C1330  C     0.85808   0.96184   0.64841   0.00000  Uiso   1.00
C1331  C     0.86337   0.92462   0.64197   0.00000  Uiso   1.00
C1332  C     0.84111   0.90596   0.61566   0.00000  Uiso   1.00
C1333  C     0.81345   0.92447   0.59580   0.00000  Uiso   1.00
C1334  C     0.80774   0.53814   0.39766   0.00000  Uiso   1.00
C1335  C     0.83053   0.51950   0.37143   0.00000  Uiso   1.00
C1336  C     0.85809   0.53813   0.35159   0.00000  Uiso   1.00
C1337  C     0.52774   0.73123   0.08198   0.00000  Uiso   1.00
C1338  C     0.86339   0.57535   0.35803   0.00000  Uiso   1.00
C1339  C     0.84114   0.59400   0.38435   0.00000  Uiso   1.00
C1340  C     0.81347   0.57550   0.40421   0.00000  Uiso   1.00
C1341  C     0.53815   0.80774   0.60234   0.00000  Uiso   1.00
C1342  C     0.51951   0.83052   0.62858   0.00000  Uiso   1.00
C1343  C     0.53814   0.85808   0.64843   0.00000  Uiso   1.00
C1344  C     0.57535   0.86339   0.64198   0.00000  Uiso   1.00
C1345  C     0.59401   0.84115   0.61565   0.00000  Uiso   1.00
C1346  C     0.57551   0.81349   0.59579   0.00000  Uiso   1.00
C1347  C     0.96186   0.80774   0.39766   0.00000  Uiso   1.00
C1348  C     0.76854   0.97263   0.95866   0.00000  Uiso   1.00
C1349  C     0.52774   0.76878   0.91802   0.00000  Uiso   1.00
C1350  C     0.98050   0.83052   0.37143   0.00000  Uiso   1.00
C1351  C     0.96187   0.85809   0.35158   0.00000  Uiso   1.00
C1352  C     0.92466   0.86338   0.35802   0.00000  Uiso   1.00
C1353  C     0.90600   0.84114   0.38434   0.00000  Uiso   1.00
C1354  C     0.92450   0.81347   0.40421   0.00000  Uiso   1.00
C1355  C     0.69227   0.53816   0.60234   0.00000  Uiso   1.00
C1356  C     0.66948   0.51953   0.62857   0.00000  Uiso   1.00
C1357  C     0.64192   0.53817   0.64841   0.00000  Uiso   1.00
C1358  C     0.63664   0.57539   0.64197   0.00000  Uiso   1.00
C1359  C     0.65889   0.59404   0.61565   0.00000  Uiso   1.00
C1360  C     0.76876   0.52775   0.08198   0.00000  Uiso   1.00
C1361  C     0.68655   0.57553   0.59579   0.00000  Uiso   1.00
C1362  C     0.69226   0.96186   0.39766   0.00000  Uiso   1.00
C1363  C     0.66948   0.98050   0.37143   0.00000  Uiso   1.00
C1364  C     0.64191   0.96188   0.35158   0.00000  Uiso   1.00
C1365  C     0.63661   0.92466   0.35802   0.00000  Uiso   1.00
C1366  C     0.65886   0.90600   0.38434   0.00000  Uiso   1.00
C1367  C     0.68652   0.92450   0.40420   0.00000  Uiso   1.00
C1368  C     0.73123   0.52774   0.91802   0.00000  Uiso   1.00
C1369  C     0.97226   0.76877   0.08198   0.00000  Uiso   1.00
C1370  C     0.97226   0.73122   0.91802   0.00000  Uiso   1.00
C1371  C     0.98122   0.72227   0.58198   0.00000  Uiso   1.00
C1372  C     0.51877   0.72226   0.41802   0.00000  Uiso   1.00
C1373  C     0.77773   0.98122   0.58198   0.00000  Uiso   1.00
C1374  C     0.77774   0.51877   0.41802   0.00000  Uiso   1.00
C1375  C     0.51878   0.77774   0.58198   0.00000  Uiso   1.00
C1376  C     0.52736   0.73145   0.04134   0.00000  Uiso   1.00
C1377  C     0.98123   0.77774   0.41802   0.00000  Uiso   1.00
C1378  C     0.72226   0.51878   0.58198   0.00000  Uiso   1.00
C1379  C     0.72226   0.98123   0.41802   0.00000  Uiso   1.00
C1380  C     0.75000   0.50000   0.02121   0.00000  Uiso   1.00
C1381  C     0.75000   0.50000   0.97879   0.00000  Uiso   1.00
C1382  C     0.50000   0.75000   0.02121   0.00000  Uiso   1.00
C1383  C     0.50000   0.75000   0.97879   0.00000  Uiso   1.00
C1384  C     0.50000   0.75000   0.52120   0.00000  Uiso   1.00
C1385  C     0.50001   0.75000   0.47879   0.00000  Uiso   1.00
C1386  C     0.75000   0.50000   0.52121   0.00000  Uiso   1.00
C1387  C     0.52736   0.76855   0.95866   0.00000  Uiso   1.00
C1388  C     0.75000   0.50000   0.47879   0.00000  Uiso   1.00
C1389  C     0.75000   0.50000   0.35509   0.00000  Uiso   1.00
C1390  C     0.75000   0.50000   0.64491   0.00000  Uiso   1.00
C1391  C     0.50000   0.75000   0.35509   0.00000  Uiso   1.00
C1392  C     0.50000   0.75000   0.64491   0.00000  Uiso   1.00
C1393  C     0.50000   0.75000   0.85509   0.00000  Uiso   1.00
C1394  C     0.50000   0.75000   0.14491   0.00000  Uiso   1.00
C1395  C     0.75000   0.50000   0.85509   0.00000  Uiso   1.00
C1396  C     0.75000   0.50000   0.14491   0.00000  Uiso   1.00
C1397  C     0.67990   0.57010   0.25000   0.00000  Uiso   1.00
C1398  C     0.76853   0.52737   0.04134   0.00000  Uiso   1.00
C1399  C     0.82009   0.92991   0.75000   0.00000  Uiso   1.00
C1400  C     0.92990   0.67990   0.25000   0.00000  Uiso   1.00
C1401  C     0.57009   0.82009   0.75000   0.00000  Uiso   1.00
C1402  C     0.82010   0.92990   0.25000   0.00000  Uiso   1.00
C1403  C     0.67991   0.57009   0.75000   0.00000  Uiso   1.00
C1404  C     0.57010   0.82010   0.25000   0.00000  Uiso   1.00
C1405  C     0.92991   0.67991   0.75000   0.00000  Uiso   1.00
C1406  C     0.67990   0.92990   0.75000   0.00000  Uiso   1.00
C1407  C     0.82009   0.57009   0.25000   0.00000  Uiso   1.00
C1408  C     0.92990   0.82010   0.75000   0.00000  Uiso   1.00
C1409  C     0.73146   0.52737   0.95866   0.00000  Uiso   1.00
C1410  C     0.57009   0.67991   0.25000   0.00000  Uiso   1.00
C1411  C     0.82010   0.57010   0.75000   0.00000  Uiso   1.00
C1412  C     0.67991   0.92991   0.25000   0.00000  Uiso   1.00
C1413  C     0.57010   0.67990   0.75000   0.00000  Uiso   1.00
C1414  C     0.92991   0.82009   0.25000   0.00000  Uiso   1.00
C1415  C     0.62178   0.90497   0.22509   0.00000  Uiso   1.00
C1416  C     0.87823   0.59508   0.77495   0.00000  Uiso   1.00
C1417  C     0.59503   0.62177   0.22509   0.00000  Uiso   1.00
C1418  C     0.90491   0.87822   0.77496   0.00000  Uiso   1.00
C1419  C     0.87822   0.59504   0.22508   0.00000  Uiso   1.00
C1420  C     0.97264   0.76855   0.04134   0.00000  Uiso   1.00
C1421  C     0.62178   0.90491   0.77496   0.00000  Uiso   1.00
C1422  C     0.90497   0.87823   0.22510   0.00000  Uiso   1.00
C1423  C     0.59509   0.62177   0.77496   0.00000  Uiso   1.00
C1424  C     0.62177   0.59502   0.77490   0.00000  Uiso   1.00
C1425  C     0.87823   0.90491   0.22504   0.00000  Uiso   1.00
C1426  C     0.59503   0.87823   0.77490   0.00000  Uiso   1.00
C1427  C     0.90490   0.62179   0.22502   0.00000  Uiso   1.00
C1428  C     0.87823   0.90497   0.77491   0.00000  Uiso   1.00
C1429  C     0.62178   0.59509   0.22504   0.00000  Uiso   1.00
C1430  C     0.90498   0.62177   0.77489   0.00000  Uiso   1.00
C1431  C     0.97264   0.73145   0.95866   0.00000  Uiso   1.00
C1432  C     0.59510   0.87822   0.22503   0.00000  Uiso   1.00
C1433  C     0.87177   0.65498   0.72511   0.00000  Uiso   1.00
C1434  C     0.62822   0.84510   0.27497   0.00000  Uiso   1.00
C1435  C     0.84503   0.87177   0.72510   0.00000  Uiso   1.00
C1436  C     0.65491   0.62822   0.27496   0.00000  Uiso   1.00
C1437  C     0.62823   0.84503   0.72509   0.00000  Uiso   1.00
C1438  C     0.87179   0.65490   0.27498   0.00000  Uiso   1.00
C1439  C     0.65498   0.62823   0.72510   0.00000  Uiso   1.00
C1440  C     0.84509   0.87178   0.27496   0.00000  Uiso   1.00
C1441  C     0.87177   0.84503   0.27491   0.00000  Uiso   1.00
C1442  C     0.98145   0.72265   0.54133   0.00000  Uiso   1.00
C1443  C     0.62823   0.65491   0.72505   0.00000  Uiso   1.00
C1444  C     0.84504   0.62822   0.27492   0.00000  Uiso   1.00
C1445  C     0.65491   0.87178   0.72504   0.00000  Uiso   1.00
C1446  C     0.62823   0.65497   0.27491   0.00000  Uiso   1.00
C1447  C     0.87177   0.84509   0.72504   0.00000  Uiso   1.00
C1448  C     0.65497   0.87178   0.27491   0.00000  Uiso   1.00
C1449  C     0.84508   0.62823   0.72505   0.00000  Uiso   1.00
C1450  C     0.59816   0.84816   0.25000   0.00000  Uiso   1.00
C1451  C     0.90187   0.65187   0.75000   0.00000  Uiso   1.00
C1452  C     0.65184   0.59816   0.25000   0.00000  Uiso   1.00
H1453  H     0.71736   0.95146   0.02527   0.00000  Uiso   1.00
H1454  H     0.53265   0.70147   0.47473   0.00000  Uiso   1.00
H1455  H     0.87535   0.97626   0.66878   0.00000  Uiso   1.00
H1456  H     0.88471   0.91024   0.65737   0.00000  Uiso   1.00
H1457  H     0.84521   0.87712   0.61075   0.00000  Uiso   1.00
H1458  H     0.79619   0.90961   0.57573   0.00000  Uiso   1.00
H1459  H     0.82687   0.99061   0.36629   0.00000  Uiso   1.00
H1460  H     0.87536   0.52370   0.33121   0.00000  Uiso   1.00
H1461  H     0.88473   0.58972   0.34263   0.00000  Uiso   1.00
H1462  H     0.84525   0.62285   0.38927   0.00000  Uiso   1.00
H1463  H     0.79623   0.59037   0.42428   0.00000  Uiso   1.00
H1464  H     0.99062   0.82686   0.63373   0.00000  Uiso   1.00
H1465  H     0.79852   0.96733   0.52527   0.00000  Uiso   1.00
H1466  H     0.52371   0.87534   0.66882   0.00000  Uiso   1.00
H1467  H     0.58973   0.88474   0.65738   0.00000  Uiso   1.00
H1468  H     0.62285   0.84528   0.61073   0.00000  Uiso   1.00
H1469  H     0.59037   0.79625   0.57571   0.00000  Uiso   1.00
H1470  H     0.50939   0.82687   0.36628   0.00000  Uiso   1.00
H1471  H     0.97630   0.87535   0.33120   0.00000  Uiso   1.00
H1472  H     0.91028   0.88473   0.34262   0.00000  Uiso   1.00
H1473  H     0.87715   0.84525   0.38926   0.00000  Uiso   1.00
H1474  H     0.90964   0.79623   0.42428   0.00000  Uiso   1.00
H1475  H     0.67312   0.99064   0.63371   0.00000  Uiso   1.00
H1476  H     0.79853   0.53264   0.47474   0.00000  Uiso   1.00
H1477  H     0.62466   0.52375   0.66879   0.00000  Uiso   1.00
H1478  H     0.61530   0.58978   0.65737   0.00000  Uiso   1.00
H1479  H     0.65479   0.62288   0.61073   0.00000  Uiso   1.00
H1480  H     0.70381   0.59038   0.57572   0.00000  Uiso   1.00
H1481  H     0.67313   0.50940   0.36629   0.00000  Uiso   1.00
H1482  H     0.62465   0.97631   0.33119   0.00000  Uiso   1.00
H1483  H     0.61527   0.91029   0.34261   0.00000  Uiso   1.00
H1484  H     0.65474   0.87716   0.38925   0.00000  Uiso   1.00
H1485  H     0.70376   0.90964   0.42427   0.00000  Uiso   1.00
H1486  H     0.53266   0.79853   0.52527   0.00000  Uiso   1.00
H1487  H     0.96736   0.79854   0.47473   0.00000  Uiso   1.00
H1488  H     0.70148   0.53266   0.52526   0.00000  Uiso   1.00
H1489  H     0.70146   0.96735   0.47473   0.00000  Uiso   1.00
H1490  H     0.61889   0.92795   0.20553   0.00000  Uiso   1.00
H1491  H     0.88113   0.57211   0.79450   0.00000  Uiso   1.00
H1492  H     0.57205   0.61888   0.20555   0.00000  Uiso   1.00
H1493  H     0.78264   0.95146   0.97473   0.00000  Uiso   1.00
H1494  H     0.92788   0.88112   0.79452   0.00000  Uiso   1.00
H1495  H     0.88110   0.57207   0.20552   0.00000  Uiso   1.00
H1496  H     0.61888   0.92788   0.79452   0.00000  Uiso   1.00
H1497  H     0.92796   0.88112   0.20555   0.00000  Uiso   1.00
H1498  H     0.57212   0.61888   0.79451   0.00000  Uiso   1.00
H1499  H     0.61888   0.57204   0.79444   0.00000  Uiso   1.00
H1500  H     0.88112   0.92788   0.20549   0.00000  Uiso   1.00
H1501  H     0.57205   0.88112   0.79445   0.00000  Uiso   1.00
H1502  H     0.92786   0.61890   0.20545   0.00000  Uiso   1.00
H1503  H     0.88112   0.92795   0.79445   0.00000  Uiso   1.00
H1504  H     0.54853   0.71734   0.02527   0.00000  Uiso   1.00
H1505  H     0.61888   0.57212   0.20548   0.00000  Uiso   1.00
H1506  H     0.92797   0.61887   0.79443   0.00000  Uiso   1.00
H1507  H     0.57213   0.88111   0.20547   0.00000  Uiso   1.00
H1508  H     0.86887   0.67797   0.70557   0.00000  Uiso   1.00
H1509  H     0.63111   0.82213   0.29453   0.00000  Uiso   1.00
H1510  H     0.82205   0.86888   0.70555   0.00000  Uiso   1.00
H1511  H     0.67788   0.63112   0.29452   0.00000  Uiso   1.00
H1512  H     0.63112   0.82205   0.70555   0.00000  Uiso   1.00
H1513  H     0.86890   0.67786   0.29455   0.00000  Uiso   1.00
H1514  H     0.67796   0.63112   0.70556   0.00000  Uiso   1.00
H1515  H     0.54852   0.78266   0.97474   0.00000  Uiso   1.00
H1516  H     0.82212   0.86888   0.29452   0.00000  Uiso   1.00
H1517  H     0.86888   0.82205   0.29445   0.00000  Uiso   1.00
H1518  H     0.63112   0.67788   0.70549   0.00000  Uiso   1.00
H1519  H     0.82207   0.63110   0.29448   0.00000  Uiso   1.00
H1520  H     0.67788   0.86888   0.70548   0.00000  Uiso   1.00
H1521  H     0.63112   0.67795   0.29445   0.00000  Uiso   1.00
H1522  H     0.86888   0.82212   0.70548   0.00000  Uiso   1.00
H1523  H     0.67795   0.86889   0.29446   0.00000  Uiso   1.00
H1524  H     0.82211   0.63113   0.70550   0.00000  Uiso   1.00
H1525  H     0.75941   0.92313   0.13371   0.00000  Uiso   1.00
H1526  H     0.78264   0.54854   0.02527   0.00000  Uiso   1.00
H1527  H     0.72632   0.87465   0.16881   0.00000  Uiso   1.00
H1528  H     0.66030   0.86526   0.15739   0.00000  Uiso   1.00
H1529  H     0.62717   0.90472   0.11075   0.00000  Uiso   1.00
H1530  H     0.65964   0.95375   0.07573   0.00000  Uiso   1.00
H1531  H     0.74061   0.92313   0.86629   0.00000  Uiso   1.00
H1532  H     0.77370   0.87465   0.83120   0.00000  Uiso   1.00
H1533  H     0.83972   0.86527   0.84262   0.00000  Uiso   1.00
H1534  H     0.87285   0.90474   0.88926   0.00000  Uiso   1.00
H1535  H     0.84037   0.95377   0.92427   0.00000  Uiso   1.00
H1536  H     0.57687   0.75937   0.13371   0.00000  Uiso   1.00
H1537  H     0.71735   0.54854   0.97473   0.00000  Uiso   1.00
H1538  H     0.62535   0.72627   0.16879   0.00000  Uiso   1.00
H1539  H     0.63472   0.66025   0.15737   0.00000  Uiso   1.00
H1540  H     0.59523   0.62713   0.11074   0.00000  Uiso   1.00
H1541  H     0.54621   0.65962   0.07573   0.00000  Uiso   1.00
H1542  H     0.57688   0.74063   0.86630   0.00000  Uiso   1.00
H1543  H     0.62535   0.77374   0.83121   0.00000  Uiso   1.00
H1544  H     0.63470   0.83977   0.84263   0.00000  Uiso   1.00
H1545  H     0.59521   0.87288   0.88926   0.00000  Uiso   1.00
H1546  H     0.54619   0.84039   0.92427   0.00000  Uiso   1.00
H1547  H     0.74060   0.57687   0.13371   0.00000  Uiso   1.00
H1548  H     0.95147   0.78266   0.02527   0.00000  Uiso   1.00
H1549  H     0.77368   0.62535   0.16880   0.00000  Uiso   1.00
H1550  H     0.83970   0.63475   0.15738   0.00000  Uiso   1.00
H1551  H     0.87283   0.59528   0.11074   0.00000  Uiso   1.00
H1552  H     0.84036   0.54625   0.07572   0.00000  Uiso   1.00
H1553  H     0.75939   0.57687   0.86629   0.00000  Uiso   1.00
H1554  H     0.72630   0.62535   0.83120   0.00000  Uiso   1.00
H1555  H     0.66028   0.63473   0.84261   0.00000  Uiso   1.00
H1556  H     0.62715   0.59525   0.88925   0.00000  Uiso   1.00
H1557  H     0.65963   0.54623   0.92427   0.00000  Uiso   1.00
H1558  H     0.92312   0.74063   0.13371   0.00000  Uiso   1.00
H1559  H     0.95147   0.71734   0.97473   0.00000  Uiso   1.00
H1560  H     0.87465   0.77373   0.16879   0.00000  Uiso   1.00
H1561  H     0.86529   0.83975   0.15738   0.00000  Uiso   1.00
H1562  H     0.90477   0.87287   0.11074   0.00000  Uiso   1.00
H1563  H     0.95380   0.84038   0.07573   0.00000  Uiso   1.00
H1564  H     0.92312   0.75937   0.86629   0.00000  Uiso   1.00
H1565  H     0.87466   0.72626   0.83120   0.00000  Uiso   1.00
H1566  H     0.86530   0.66024   0.84262   0.00000  Uiso   1.00
H1567  H     0.90478   0.62712   0.88926   0.00000  Uiso   1.00
H1568  H     0.95380   0.65962   0.92427   0.00000  Uiso   1.00
H1569  H     0.50936   0.67312   0.63370   0.00000  Uiso   1.00
H1570  H     0.96734   0.70148   0.52526   0.00000  Uiso   1.00
H1571  H     0.97624   0.62465   0.66878   0.00000  Uiso   1.00
H1572  H     0.91021   0.61531   0.65736   0.00000  Uiso   1.00
H1573  H     0.87710   0.65482   0.61074   0.00000  Uiso   1.00
H1574  H     0.90961   0.70383   0.57573   0.00000  Uiso   1.00
H1575  H     0.99061   0.67313   0.36629   0.00000  Uiso   1.00
H1576  H     0.52370   0.62465   0.33120   0.00000  Uiso   1.00
H1577  H     0.58972   0.61527   0.34262   0.00000  Uiso   1.00
H1578  H     0.62285   0.65475   0.38926   0.00000  Uiso   1.00
H1579  H     0.59037   0.70377   0.42427   0.00000  Uiso   1.00
H1580  H     0.82688   0.50937   0.63370   0.00000  Uiso   1.00
O1581  O     0.75000   0.50000   0.25000   0.00000  Uiso   1.00
O1582  O     0.75000   0.96964   0.66317   0.00000  Uiso   1.00
O1583  O     0.96964   0.75000   0.33683   0.00000  Uiso   1.00
O1584  O     0.53036   0.75000   0.66317   0.00000  Uiso   1.00
O1585  O     0.50000   0.71964   0.83683   0.00000  Uiso   1.00
O1586  O     0.50000   0.78036   0.16317   0.00000  Uiso   1.00
O1587  O     0.78036   0.50000   0.83683   0.00000  Uiso   1.00
O1588  O     0.71964   0.50000   0.16317   0.00000  Uiso   1.00
O1589  O     0.50000   0.78036   0.83683   0.00000  Uiso   1.00
O1590  O     0.50000   0.71964   0.16317   0.00000  Uiso   1.00
O1591  O     0.71964   0.50000   0.83683   0.00000  Uiso   1.00
O1592  O     0.75000   0.50000   0.75000   0.00000  Uiso   1.00
O1593  O     0.78036   0.50000   0.16317   0.00000  Uiso   1.00
O1594  O     0.70726   0.57307   0.27282   0.00000  Uiso   1.00
O1595  O     0.79275   0.92693   0.72718   0.00000  Uiso   1.00
O1596  O     0.92693   0.70725   0.27282   0.00000  Uiso   1.00
O1597  O     0.57307   0.79275   0.72718   0.00000  Uiso   1.00
O1598  O     0.79275   0.92693   0.27282   0.00000  Uiso   1.00
O1599  O     0.70726   0.57307   0.72718   0.00000  Uiso   1.00
O1600  O     0.57307   0.79275   0.27282   0.00000  Uiso   1.00
O1601  O     0.92693   0.70725   0.72718   0.00000  Uiso   1.00
O1602  O     0.70726   0.92693   0.72718   0.00000  Uiso   1.00
O1603  O     0.50000   0.75000   0.25000   0.00000  Uiso   1.00
O1604  O     0.79275   0.57307   0.27282   0.00000  Uiso   1.00
O1605  O     0.92693   0.79274   0.72718   0.00000  Uiso   1.00
O1606  O     0.57307   0.70726   0.27282   0.00000  Uiso   1.00
O1607  O     0.79275   0.57307   0.72718   0.00000  Uiso   1.00
O1608  O     0.70726   0.92693   0.27282   0.00000  Uiso   1.00
O1609  O     0.57307   0.70726   0.72718   0.00000  Uiso   1.00
O1610  O     0.92693   0.79274   0.27282   0.00000  Uiso   1.00
O1611  O     0.95726   0.82307   0.77282   0.00000  Uiso   1.00
O1612  O     0.54275   0.67693   0.22718   0.00000  Uiso   1.00
O1613  O     0.67693   0.95726   0.77282   0.00000  Uiso   1.00
O1614  O     0.50000   0.75000   0.75000   0.00000  Uiso   1.00
O1615  O     0.82307   0.54274   0.22718   0.00000  Uiso   1.00
O1616  O     0.54275   0.67693   0.77282   0.00000  Uiso   1.00
O1617  O     0.95726   0.82307   0.22718   0.00000  Uiso   1.00
O1618  O     0.82307   0.54274   0.77282   0.00000  Uiso   1.00
O1619  O     0.67693   0.95726   0.22718   0.00000  Uiso   1.00
O1620  O     0.95726   0.67693   0.22718   0.00000  Uiso   1.00
O1621  O     0.54275   0.82307   0.77282   0.00000  Uiso   1.00
O1622  O     0.67693   0.54274   0.22718   0.00000  Uiso   1.00
O1623  O     0.82307   0.95725   0.77282   0.00000  Uiso   1.00
O1624  O     0.54275   0.82307   0.22718   0.00000  Uiso   1.00
O1625  O     0.75000   0.96964   0.33683   0.00000  Uiso   1.00
O1626  O     0.95726   0.67693   0.77282   0.00000  Uiso   1.00
O1627  O     0.82307   0.95725   0.22718   0.00000  Uiso   1.00
O1628  O     0.67693   0.54274   0.77282   0.00000  Uiso   1.00
O1629  O     0.75000   0.53036   0.66317   0.00000  Uiso   1.00
O1630  O     0.53036   0.75000   0.33683   0.00000  Uiso   1.00
O1631  O     0.96964   0.75000   0.66317   0.00000  Uiso   1.00
O1632  O     0.75000   0.53036   0.33683   0.00000  Uiso   1.00
Zn1633 Zn    0.70660   0.50000   0.21760   0.00000  Uiso   1.00
Zn1634 Zn    0.54340   0.75000   0.28240   0.00000  Uiso   1.00
Zn1635 Zn    0.75000   0.95660   0.71760   0.00000  Uiso   1.00
Zn1636 Zn    0.75000   0.54340   0.28240   0.00000  Uiso   1.00
Zn1637 Zn    0.54340   0.75000   0.71760   0.00000  Uiso   1.00
Zn1638 Zn    0.95660   0.75000   0.28240   0.00000  Uiso   1.00
Zn1639 Zn    0.75000   0.54340   0.71760   0.00000  Uiso   1.00
Zn1640 Zn    0.75000   0.95660   0.28240   0.00000  Uiso   1.00
Zn1641 Zn    0.79340   0.50000   0.78240   0.00000  Uiso   1.00
Zn1642 Zn    0.50000   0.70660   0.21760   0.00000  Uiso   1.00
Zn1643 Zn    0.50000   0.79340   0.78240   0.00000  Uiso   1.00
Zn1644 Zn    0.79340   0.50000   0.21760   0.00000  Uiso   1.00
Zn1645 Zn    0.70660   0.50000   0.78240   0.00000  Uiso   1.00
Zn1646 Zn    0.50000   0.79340   0.21760   0.00000  Uiso   1.00
Zn1647 Zn    0.50000   0.70660   0.78240   0.00000  Uiso   1.00
Zn1648 Zn    0.95660   0.75000   0.71760   0.00000  Uiso   1.00
loop_
_geom_bond_atom_site_label_1
_geom_bond_atom_site_label_2
_geom_bond_distance
_geom_bond_site_symmetry_2
_ccdc_geom_bond_type
C1     C79     1.396   .     A
C1     C968    1.396   .     A
C1     H217    1.085   .     S
C2     H218    1.085   .     S
C2     C149    1.396   .     A
C2     C136    1.396   .     A
C3     C163    1.455   .     S
C3     C192    1.402   .     A
C3     C199    1.402   .     A
C4     C191    1.402   .     A
C4     C202    1.402   .     A
C4     C164    1.456   .     S
C5     C201    1.402   .     A
C5     C190    1.402   .     A
C5     C165    1.455   .     S
C6     C189    1.402   .     A
C6     C166    1.456   .     S
C6     C204    1.402   .     A
C7     C203    1.402   .     A
C7     C167    1.455   .     S
C7     C188    1.402   .     A
C8     C187    1.402   .     A
C8     C207    1.402   .     A
C8     C177    1.456   .     S
C9     C186    1.402   .     A
C9     C178    1.455   .     S
C9     C205    1.402   .     A
C10    C185    1.402   .     A
C10    C170    1.456   .     S
C10    C209    1.402   .     A
C11    C171    1.455   .     S
C11    C183    1.402   .     A
C11    C208    1.402   .     A
C12    C172    1.456   .     S
C12    C211    1.402   .     A
C12    C182    1.402   .     A
C13    C974    1.396   .     A
C13    H229    1.085   .     S
C13    C137    1.396   .     A
C14    C181    1.402   .     A
C14    C174    1.455   .     S
C14    C210    1.402   .     A
C15    C213    1.402   .     A
C15    C175    1.456   .     S
C15    C180    1.402   .     A
C16    C179    1.402   .     A
C16    C212    1.402   .     A
C16    C176    1.455   .     S
C17    C903    1.416   1_545 A
C17    C124    1.416   .     S
C17    C160    1.459   .     S
C18    C159    1.459   .     S
C18    C914    1.416   1_545 A
C18    C132    1.416   .     S
C19    C158    1.459   .     S
C19    C545    1.416   1_455 A
C19    C101    1.416   .     S
C20    C546    1.416   1_455 A
C20    C113    1.416   .     S
C20    C157    1.459   .     S
C21    C139    1.416   .     A
C21    C156    1.459   .     S
C21    C547    1.416   1_455 S
C22    C155    1.459   .     S
C22    C136    1.416   .     A
C22    C553    1.416   1_455 S
C23    C154    1.459   .     S
C23    C961    1.416   1_545 A
C23    C142    1.416   .     S
C24    H240    1.085   .     S
C24    C138    1.396   .     A
C24    C152    1.396   .     S
C25    C153    1.459   .     S
C25    C138    1.416   .     A
C25    C967    1.416   1_545 S
C26    C27     1.407   .     A
C26    C79     1.485   .     S
C26    C31     1.405   .     A
C27    H289    1.083   .     S
C27    C28     1.398   .     A
C28    C29     1.397   .     A
C28    H291    1.082   .     S
C29    C30     1.397   .     A
C29    H292    1.082   .     S
C30    H293    1.082   .     S
C30    C31     1.399   .     A
C31    H294    1.083   .     S
C32    C90     1.485   .     S
C32    C33     1.407   .     A
C32    C38     1.405   .     A
C33    H295    1.083   .     S
C33    C34     1.398   .     A
C34    H296    1.082   .     S
C34    C36     1.397   .     A
C35    C139    1.396   .     A
C35    H250    1.085   .     S
C35    C148    1.396   .     A
C36    C37     1.397   .     A
C36    H297    1.082   .     S
C37    C38     1.399   .     A
C37    H298    1.082   .     S
C38    H299    1.083   .     S
C39    C101    1.485   .     S
C39    C40     1.407   .     A
C39    C44     1.405   .     A
C40    H300    1.083   .     S
C40    C41     1.398   .     A
C41    C42     1.397   .     A
C41    H302    1.082   .     S
C42    H303    1.082   .     S
C42    C43     1.397   .     A
C43    C44     1.399   .     A
C43    H304    1.082   .     S
C44    H305    1.083   .     S
C45    C47     1.407   .     A
C45    C113    1.485   .     S
C45    C51     1.405   .     A
C46    C141    1.396   .     A
C46    H251    1.085   .     S
C46    C561    1.396   .     S
C47    C48     1.398   .     A
C47    H306    1.083   .     S
C48    H307    1.082   .     S
C48    C49     1.397   .     A
C49    H308    1.082   .     S
C49    C50     1.397   .     A
C50    H309    1.082   .     S
C50    C51     1.399   .     A
C51    H310    1.083   .     S
C52    C58     1.405   .     A
C52    C124    1.485   .     S
C52    C53     1.407   .     A
C53    H311    1.083   .     S
C53    C54     1.398   .     A
C54    H313    1.082   .     S
C54    C55     1.397   .     A
C55    C56     1.397   .     A
C55    H314    1.082   .     S
C56    C58     1.399   .     A
C56    H315    1.082   .     S
C57    C142    1.396   .     A
C57    H252    1.085   .     S
C57    C150    1.396   .     S
C58    H316    1.083   .     S
C59    C60     1.407   .     A
C59    C132    1.485   .     S
C59    C64     1.405   .     A
C60    C61     1.398   .     A
C60    H317    1.083   .     S
C61    C62     1.397   .     A
C61    H318    1.082   .     S
C62    H319    1.082   .     S
C62    C63     1.397   .     A
C63    H320    1.082   .     S
C63    C64     1.399   .     A
C64    H321    1.083   .     S
C65    C71     1.405   .     A
C65    C66     1.407   .     A
C65    C133    1.485   .     S
C66    C67     1.398   .     A
C66    H322    1.083   .     S
C67    C69     1.397   .     A
C67    H324    1.082   .     S
C68    C143    1.396   .     A
C68    H253    1.085   .     S
C68    C976    1.396   .     A
C69    H325    1.082   .     S
C69    C70     1.397   .     A
C70    H326    1.082   .     S
C70    C71     1.399   .     A
C71    H327    1.083   .     S
C72    C73     1.407   .     A
C72    C134    1.485   .     S
C72    C77     1.405   .     A
C73    C74     1.398   .     A
C73    H328    1.083   .     S
C74    H329    1.082   .     S
C74    C75     1.397   .     A
C75    C76     1.397   .     A
C75    H330    1.082   .     S
C76    H331    1.082   .     S
C76    C77     1.399   .     A
C77    H332    1.083   .     S
C78    C80     1.407   .     A
C78    C135    1.485   .     S
C78    C84     1.405   .     A
C79    C841    1.416   .     A
C80    C81     1.398   .     A
C80    H745    1.083   .     S
C81    C82     1.397   .     A
C81    H335    1.082   .     S
C82    H336    1.082   .     S
C82    C83     1.397   .     A
C83    C84     1.399   .     A
C83    H337    1.082   .     S
C84    H338    1.083   .     S
C85    C86     1.407   .     A
C85    C136    1.485   .     S
C85    C91     1.405   .     A
C86    C87     1.398   .     A
C86    H751    1.083   1_455 S
C87    C88     1.397   .     A
C87    H340    1.082   .     S
C88    H341    1.082   .     S
C88    C89     1.397   .     A
C89    H342    1.082   .     S
C89    C91     1.399   .     A
C90    C842    1.416   .     A
C90    C112    1.396   .     A
C91    H343    1.083   .     S
C92    C137    1.485   .     S
C92    C97     1.405   .     A
C92    C93     1.407   .     A
C93    C94     1.398   .     A
C93    H1168   1.083   .     S
C94    H219    1.082   .     S
C94    C95     1.397   .     A
C95    H220    1.082   .     S
C95    C96     1.397   .     A
C96    H221    1.082   .     S
C96    C97     1.399   .     A
C97    H222    1.083   .     S
C98    C138    1.485   .     S
C98    C99     1.407   .     A
C98    C104    1.405   .     A
C99    C100    1.398   .     A
C99    H1047   1.083   1_545 S
C100   H224    1.082   .     S
C100   C102    1.397   .     A
C101   C140    1.396   .     A
C102   H225    1.082   .     S
C102   C103    1.397   .     A
C103   C104    1.399   .     A
C103   H226    1.082   .     S
C104   H227    1.083   .     S
C105   C110    1.405   .     A
C105   C139    1.485   .     S
C105   C106    1.407   .     A
C106   C107    1.398   .     A
C106   H640    1.083   1_455 S
C107   C108    1.397   .     A
C107   H230    1.082   .     S
C108   C109    1.397   .     A
C108   H231    1.082   .     S
C109   H232    1.082   .     S
C109   C110    1.399   .     A
C110   H233    1.083   .     S
C111   C118    1.405   .     A
C111   C141    1.485   .     S
C111   C114    1.407   .     A
C112   C969    1.396   .     A
C112   H257    1.085   .     S
C113   C151    1.396   .     A
C114   C115    1.398   .     A
C114   H646    1.083   .     S
C115   C116    1.397   .     A
C115   H235    1.082   .     S
C116   H236    1.082   .     S
C116   C117    1.397   .     A
C117   H237    1.082   .     S
C117   C118    1.399   .     A
C118   H238    1.083   .     S
C119   C142    1.485   .     S
C119   C125    1.405   .     A
C119   C120    1.407   .     A
C120   C121    1.398   .     A
C120   H1063   1.083   1_545 S
C121   H241    1.082   .     S
C121   C122    1.397   .     A
C122   H242    1.082   .     S
C122   C123    1.397   .     A
C123   H243    1.082   .     S
C123   C125    1.399   .     A
C124   C162    1.396   .     A
C125   H244    1.083   .     S
C126   C127    1.407   .     A
C126   C143    1.485   .     S
C126   C131    1.405   .     A
C127   C128    1.398   .     A
C127   H1069   1.083   .     S
C128   C129    1.397   .     A
C128   H246    1.082   .     S
C129   H247    1.082   .     S
C129   C130    1.397   .     A
C130   C131    1.399   .     A
C130   H248    1.082   .     S
C131   H249    1.083   .     S
C132   C173    1.396   .     A
C133   C184    1.396   .     A
C133   C431    1.416   .     A
C134   C432    1.416   .     A
C134   C195    1.396   .     A
C135   C206    1.396   .     A
C135   C433    1.416   .     S
C137   C847    1.416   .     A
C140   H268    1.085   .     S
C140   C146    1.396   .     S
C141   C434    1.416   .     S
C143   C849    1.416   .     S
C144   C825    1.396   1_545 A
C144   C145    1.457   1_554 S
C144   C162    1.396   .     S
C145   C936    1.396   1_545 A
C145   C144    1.457   1_556 S
C145   C173    1.396   .     S
C146   C596    1.396   1_455 A
C146   C147    1.457   1_554 S
C147   C607    1.396   1_455 A
C147   C146    1.457   1_556 S
C147   C151    1.396   .     S
C148   C149    1.457   .     S
C148   C618    1.396   1_455 S
C149   C458    1.396   1_455 S
C150   C837    1.396   1_545 A
C150   C152    1.457   .     S
C151   H279    1.085   .     S
C152   C892    1.396   1_545 A
C153   O396    1.279   .     A
C153   O1213   1.279   1_545 S
C154   O1170   1.279   1_545 A
C154   O393    1.279   .     S
C155   O394    1.279   .     A
C155   O759    1.279   1_455 S
C156   O348    1.278   .     A
C156   O807    1.278   1_455 S
C157   O349    1.279   .     A
C157   O353    1.279   .     A
C158   O354    1.279   .     A
C158   O350    1.279   .     S
C159   O355    1.278   .     A
C159   O351    1.278   .     A
C160   O357    1.278   .     A
C160   O352    1.278   .     A
C161   O358    1.278   .     A
C161   O386    1.278   .     A
C161   C216    1.456   .     S
C162   H290    1.085   .     S
C163   O387    1.278   .     A
C163   O359    1.278   .     A
C164   O360    1.278   .     A
C164   O384    1.278   .     A
C165   O361    1.278   .     A
C165   O385    1.278   .     A
C166   O362    1.278   .     A
C166   O391    1.278   .     A
C167   O392    1.278   .     A
C167   O363    1.278   .     A
C168   O388    1.278   .     A
C168   C214    1.456   .     S
C168   O364    1.278   .     A
C169   O390    1.278   .     A
C169   O365    1.278   .     A
C169   C215    1.455   .     S
C170   O366    1.278   .     A
C170   O377    1.278   .     A
C171   O379    1.278   .     A
C171   O368    1.278   .     A
C172   O369    1.278   .     A
C172   O375    1.278   .     A
C173   H301    1.085   .     S
C174   O376    1.278   .     A
C174   O370    1.278   .     A
C175   O382    1.278   .     A
C175   O371    1.278   .     A
C176   O383    1.278   .     A
C176   O372    1.278   .     A
C177   O380    1.278   .     A
C177   O373    1.278   .     A
C178   O381    1.278   .     A
C178   O374    1.278   .     A
C179   H254    1.083   .     S
C179   C196    1.386   .     A
C180   H255    1.083   .     S
C180   C194    1.386   .     A
C181   H256    1.083   .     S
C181   C193    1.386   .     A
C182   C192    1.386   .     A
C182   H258    1.083   .     S
C183   H259    1.083   .     S
C183   C191    1.386   .     A
C184   C558    1.396   .     A
C184   H312    1.085   .     S
C185   C190    1.386   .     A
C185   H260    1.083   .     S
C186   C189    1.386   .     A
C186   H261    1.083   .     S
C187   H262    1.083   .     S
C187   C188    1.386   .     A
C188   H263    1.083   .     S
C189   H264    1.083   .     S
C190   H265    1.083   .     S
C191   H266    1.083   .     S
C192   H267    1.083   .     S
C193   H269    1.083   .     S
C193   C216    1.402   .     A
C194   C215    1.402   .     A
C194   H270    1.083   .     S
C195   H323    1.085   .     S
C195   C559    1.396   .     A
C196   H271    1.083   .     S
C196   C214    1.402   .     A
C197   C213    1.386   .     A
C197   C215    1.402   .     A
C197   H272    1.083   .     S
C198   C214    1.402   .     A
C198   C212    1.386   .     A
C198   H273    1.083   .     S
C199   C211    1.386   .     A
C199   H274    1.083   .     S
C200   H275    1.083   .     S
C200   C216    1.402   .     A
C200   C210    1.386   .     A
C201   C209    1.386   .     A
C201   H276    1.083   .     S
C202   H277    1.083   .     S
C202   C208    1.386   .     A
C203   H278    1.083   .     S
C203   C207    1.386   .     A
C204   C205    1.386   .     A
C204   H280    1.083   .     S
C205   H281    1.083   .     S
C206   H334    1.085   .     S
C206   C560    1.396   .     S
C207   H282    1.083   .     S
C208   H283    1.083   .     S
C209   H284    1.083   .     S
C210   H285    1.083   .     S
C211   H286    1.083   .     S
C212   H287    1.083   .     S
C213   H288    1.083   .     S
H223   C923    1.083   .     S
H228   C518    1.083   .     S
H234   C526    1.083   1_455 S
H239   C944    1.083   .     S
H245   C951    1.083   1_545 S
H333   C492    1.083   1_455 S
H339   C498    1.083   .     S
H344   C917    1.083   1_545 S
O345   Zn397   1.943   .     S
O345   Zn408   1.943   .     S
O345   Zn400   1.943   .     S
O345   Zn1228  1.943   1_545 S
O346   C978    1.279   .     A
O346   Zn399   1.930   .     S
O347   Zn402   1.930   .     S
O347   C567    1.279   .     S
O348   Zn401   1.930   .     S
O349   Zn411   1.930   .     S
O350   Zn410   1.930   .     S
O351   Zn405   1.930   .     S
O352   Zn397   1.930   .     S
O353   Zn407   1.930   .     S
O354   Zn406   1.930   .     S
O355   Zn409   1.930   .     S
O356   Zn403   1.943   .     S
O356   Zn405   1.943   .     S
O356   Zn409   1.943   .     S
O356   Zn1223  1.943   1_545 S
O357   Zn408   1.930   .     S
O358   Zn400   1.937   .     S
O359   Zn399   1.937   .     S
O360   Zn402   1.937   .     S
O361   Zn401   1.937   .     S
O362   Zn404   1.937   .     S
O363   Zn403   1.937   .     S
O364   Zn398   1.937   .     S
O365   Zn412   1.937   .     S
O366   Zn399   1.937   .     S
O367   Zn406   1.943   .     S
O367   Zn410   1.943   .     S
O367   Zn398   1.943   .     S
O367   Zn814   1.943   1_455 S
O368   Zn400   1.937   .     S
O369   Zn412   1.937   .     S
O370   Zn398   1.937   .     S
O371   Zn403   1.937   .     S
O372   Zn404   1.937   .     S
O373   Zn401   1.937   .     S
O374   Zn402   1.937   .     S
O375   Zn819   1.937   .     S
O376   Zn406   1.937   .     S
O377   Zn1233  1.937   .     S
O378   Zn401   1.943   .     S
O378   Zn407   1.943   .     S
O378   Zn411   1.943   .     S
O378   Zn824   1.943   1_455 S
O379   Zn408   1.937   .     S
O380   Zn411   1.937   .     S
O381   Zn822   1.937   .     S
O382   Zn405   1.937   .     S
O383   Zn1221  1.937   .     S
O384   Zn818   1.937   .     S
O385   Zn407   1.937   .     S
O386   Zn397   1.937   .     S
O387   Zn1229  1.937   .     S
O388   Zn410   1.937   .     S
O389   Zn404   1.930   .     S
O389   C977    1.279   .     S
O390   Zn823   1.937   .     S
O391   Zn1232  1.937   .     S
O392   Zn409   1.937   .     S
O393   Zn403   1.930   .     S
O394   Zn398   1.930   .     S
O395   Zn412   1.930   .     S
O395   C568    1.278   .     S
O396   Zn400   1.930   .     S
Zn397  O1207   1.937   1_545 S
Zn399  O1180   1.943   .     S
Zn402  O779    1.943   .     S
Zn404  O1169   1.943   .     S
Zn405  O1211   1.937   1_545 S
Zn406  O796    1.937   1_455 S
Zn407  O787    1.937   1_455 S
Zn408  O1215   1.937   1_545 S
Zn409  O1201   1.937   1_545 S
Zn410  O793    1.937   1_455 S
Zn411  O802    1.937   1_455 S
Zn412  O790    1.943   .     S
C413   C491    1.396   .     A
C413   C1380   1.396   .     A
C413   H629    1.085   .     S
C414   H630    1.085   .     S
C414   C561    1.396   .     A
C414   C548    1.396   .     A
C415   C575    1.455   .     S
C415   C604    1.402   .     A
C415   C611    1.402   .     A
C416   C603    1.402   .     A
C416   C614    1.402   .     A
C416   C576    1.456   .     S
C417   C613    1.402   .     A
C417   C602    1.402   .     A
C417   C577    1.455   .     S
C418   C601    1.402   .     A
C418   C578    1.456   .     S
C418   C616    1.402   .     A
C419   C615    1.402   .     A
C419   C579    1.455   .     S
C419   C600    1.402   .     A
C420   C599    1.402   .     A
C420   C619    1.402   .     A
C420   C589    1.456   .     S
C421   C598    1.402   .     A
C421   C590    1.455   .     S
C421   C617    1.402   .     A
C422   C597    1.402   .     A
C422   C582    1.456   .     S
C422   C621    1.402   .     A
C423   C583    1.455   .     S
C423   C595    1.402   .     A
C423   C620    1.402   .     A
C424   C584    1.456   .     S
C424   C623    1.402   .     A
C424   C594    1.402   .     A
C425   C1386   1.396   .     A
C425   H641    1.085   .     S
C425   C549    1.396   .     A
C426   C593    1.402   .     A
C426   C586    1.455   .     S
C426   C622    1.402   .     A
C427   C625    1.402   .     A
C427   C587    1.456   .     S
C427   C592    1.402   .     A
C428   C591    1.402   .     A
C428   C624    1.402   .     A
C428   C588    1.455   .     S
C429   C1315   1.416   1_545 A
C429   C536    1.416   .     S
C429   C572    1.459   .     S
C430   C571    1.459   .     S
C430   C1326   1.416   1_545 A
C430   C544    1.416   .     S
C431   C570    1.459   .     S
C431   C513    1.416   .     S
C432   C525    1.416   .     S
C432   C569    1.459   .     S
C433   C551    1.416   .     A
C433   C568    1.459   .     S
C434   C567    1.459   .     S
C434   C548    1.416   .     A
C435   C566    1.459   .     S
C435   C1373   1.416   1_545 A
C435   C554    1.416   .     S
C436   H652    1.085   .     S
C436   C550    1.396   .     A
C436   C564    1.396   .     S
C437   C565    1.459   .     S
C437   C550    1.416   .     A
C437   C1379   1.416   1_545 S
C438   C439    1.407   .     A
C438   C491    1.485   .     S
C438   C443    1.405   .     A
C439   H701    1.083   .     S
C439   C440    1.398   .     A
C440   C441    1.397   .     A
C440   H703    1.082   .     S
C441   C442    1.397   .     A
C441   H704    1.082   .     S
C442   H705    1.082   .     S
C442   C443    1.399   .     A
C443   H706    1.083   .     S
C444   C502    1.485   .     S
C444   C445    1.407   .     A
C444   C450    1.405   .     A
C445   H707    1.083   .     S
C445   C446    1.398   .     A
C446   H708    1.082   .     S
C446   C448    1.397   .     A
C447   C551    1.396   .     A
C447   H662    1.085   .     S
C447   C560    1.396   .     A
C448   C449    1.397   .     A
C448   H709    1.082   .     S
C449   C450    1.399   .     A
C449   H710    1.082   .     S
C450   H711    1.083   .     S
C451   C513    1.485   .     S
C451   C452    1.407   .     A
C451   C456    1.405   .     A
C452   H712    1.083   .     S
C452   C453    1.398   .     A
C453   C454    1.397   .     A
C453   H714    1.082   .     S
C454   H715    1.082   .     S
C454   C455    1.397   .     A
C455   C456    1.399   .     A
C455   H716    1.082   .     S
C456   H717    1.083   .     S
C457   C459    1.407   .     A
C457   C525    1.485   .     S
C457   C463    1.405   .     A
C458   C553    1.396   .     A
C458   H663    1.085   .     S
C458   C149    1.396   1_655 S
C459   C460    1.398   .     A
C459   H718    1.083   .     S
C460   H719    1.082   .     S
C460   C461    1.397   .     A
C461   H720    1.082   .     S
C461   C462    1.397   .     A
C462   H721    1.082   .     S
C462   C463    1.399   .     A
C463   H722    1.083   .     S
C464   C470    1.405   .     A
C464   C536    1.485   .     S
C464   C465    1.407   .     A
C465   H723    1.083   .     S
C465   C466    1.398   .     A
C466   H725    1.082   .     S
C466   C467    1.397   .     A
C467   C468    1.397   .     A
C467   H726    1.082   .     S
C468   C470    1.399   .     A
C468   H727    1.082   .     S
C469   C554    1.396   .     A
C469   H664    1.085   .     S
C469   C562    1.396   .     S
C470   H728    1.083   .     S
C471   C472    1.407   .     A
C471   C544    1.485   .     S
C471   C476    1.405   .     A
C472   C473    1.398   .     A
C472   H729    1.083   .     S
C473   C474    1.397   .     A
C473   H730    1.082   .     S
C474   H731    1.082   .     S
C474   C475    1.397   .     A
C475   H732    1.082   .     S
C475   C476    1.399   .     A
C476   H733    1.083   .     S
C477   C483    1.405   .     A
C477   C478    1.407   .     A
C477   C545    1.485   .     S
C478   C479    1.398   .     A
C478   H734    1.083   .     S
C479   C481    1.397   .     A
C479   H736    1.082   .     S
C480   C555    1.396   .     A
C480   H665    1.085   .     S
C480   C1388   1.396   .     A
C481   H737    1.082   .     S
C481   C482    1.397   .     A
C482   H738    1.082   .     S
C482   C483    1.399   .     A
C483   H739    1.083   .     S
C484   C485    1.407   .     A
C484   C546    1.485   .     S
C484   C489    1.405   .     A
C485   C486    1.398   .     A
C485   H740    1.083   .     S
C486   H741    1.082   .     S
C486   C487    1.397   .     A
C487   C488    1.397   .     A
C487   H742    1.082   .     S
C488   H743    1.082   .     S
C488   C489    1.399   .     A
C489   H744    1.083   .     S
C490   C492    1.407   .     A
C490   C547    1.485   .     S
C490   C496    1.405   .     A
C491   C1253   1.416   .     A
C492   C493    1.398   .     A
C492   H333    1.083   1_655 S
C493   C494    1.397   .     A
C493   H747    1.082   .     S
C494   H748    1.082   .     S
C494   C495    1.397   .     A
C495   C496    1.399   .     A
C495   H749    1.082   .     S
C496   H750    1.083   .     S
C497   C498    1.407   .     A
C497   C548    1.485   .     S
C497   C503    1.405   .     A
C498   C499    1.398   .     A
C499   C500    1.397   .     A
C499   H752    1.082   .     S
C500   H753    1.082   .     S
C500   C501    1.397   .     A
C501   H754    1.082   .     S
C501   C503    1.399   .     A
C502   C1254   1.416   .     A
C502   C524    1.396   .     A
C503   H755    1.083   .     S
C504   C549    1.485   .     S
C504   C509    1.405   .     A
C504   C505    1.407   .     A
C505   C506    1.398   .     A
C505   H1580   1.083   .     S
C506   H631    1.082   .     S
C506   C507    1.397   .     A
C507   H632    1.082   .     S
C507   C508    1.397   .     A
C508   H633    1.082   .     S
C508   C509    1.399   .     A
C509   H634    1.083   .     S
C510   C550    1.485   .     S
C510   C511    1.407   .     A
C510   C516    1.405   .     A
C511   C512    1.398   .     A
C511   H1459   1.083   1_545 S
C512   H636    1.082   .     S
C512   C514    1.397   .     A
C513   C552    1.396   .     A
C514   H637    1.082   .     S
C514   C515    1.397   .     A
C515   C516    1.399   .     A
C515   H638    1.082   .     S
C516   H639    1.083   .     S
C517   C522    1.405   .     A
C517   C551    1.485   .     S
C517   C518    1.407   .     A
C518   C519    1.398   .     A
C519   C520    1.397   .     A
C519   H642    1.082   .     S
C520   C521    1.397   .     A
C520   H643    1.082   .     S
C521   H644    1.082   .     S
C521   C522    1.399   .     A
C522   H645    1.083   .     S
C523   C530    1.405   .     A
C523   C553    1.485   .     S
C523   C526    1.407   .     A
C524   C1381   1.396   .     A
C524   H669    1.085   .     S
C525   C563    1.396   .     A
C526   C527    1.398   .     A
C526   H234    1.083   1_655 S
C527   C528    1.397   .     A
C527   H647    1.082   .     S
C528   H648    1.082   .     S
C528   C529    1.397   .     A
C529   H649    1.082   .     S
C529   C530    1.399   .     A
C530   H650    1.083   .     S
C531   C554    1.485   .     S
C531   C537    1.405   .     A
C531   C532    1.407   .     A
C532   C533    1.398   .     A
C532   H1475   1.083   1_545 S
C533   H653    1.082   .     S
C533   C534    1.397   .     A
C534   H654    1.082   .     S
C534   C535    1.397   .     A
C535   H655    1.082   .     S
C535   C537    1.399   .     A
C536   C574    1.396   .     A
C537   H656    1.083   .     S
C538   C539    1.407   .     A
C538   C555    1.485   .     S
C538   C543    1.405   .     A
C539   C540    1.398   .     A
C539   H1481   1.083   .     S
C540   C541    1.397   .     A
C540   H658    1.082   .     S
C541   H659    1.082   .     S
C541   C542    1.397   .     A
C542   C543    1.399   .     A
C542   H660    1.082   .     S
C543   H661    1.083   .     S
C544   C585    1.396   .     A
C545   C596    1.396   .     A
C545   C19     1.416   1_655 A
C546   C20     1.416   1_655 A
C546   C607    1.396   .     A
C547   C618    1.396   .     A
C547   C21     1.416   1_655 S
C549   C1259   1.416   .     A
C552   H680    1.085   .     S
C552   C558    1.396   .     S
C553   C22     1.416   1_655 S
C555   C1261   1.416   .     S
C556   C1237   1.396   1_545 A
C556   C557    1.457   1_554 S
C556   C574    1.396   .     S
C557   C1348   1.396   1_545 A
C557   C556    1.457   1_556 S
C557   C585    1.396   .     S
C558   C559    1.457   1_554 S
C559   C558    1.457   1_556 S
C559   C563    1.396   .     S
C560   C561    1.457   .     S
C562   C1249   1.396   1_545 A
C562   C564    1.457   .     S
C563   H691    1.085   .     S
C564   C1304   1.396   1_545 A
C565   O808    1.279   .     A
C565   O1625   1.279   1_545 S
C566   O1582   1.279   1_545 A
C566   O805    1.279   .     S
C567   O806    1.279   .     A
C568   O760    1.278   .     A
C569   O761    1.279   .     A
C569   O765    1.279   .     A
C570   O766    1.279   .     A
C570   O762    1.279   .     S
C571   O767    1.278   .     A
C571   O763    1.278   .     A
C572   O769    1.278   .     A
C572   O764    1.278   .     A
C573   O770    1.278   .     A
C573   O798    1.278   .     A
C573   C628    1.456   .     S
C574   H702    1.085   .     S
C575   O799    1.278   .     A
C575   O771    1.278   .     A
C576   O772    1.278   .     A
C576   O796    1.278   .     A
C577   O773    1.278   .     A
C577   O797    1.278   .     A
C578   O774    1.278   .     A
C578   O803    1.278   .     A
C579   O804    1.278   .     A
C579   O775    1.278   .     A
C580   O800    1.278   .     A
C580   C626    1.456   .     S
C580   O776    1.278   .     A
C581   O802    1.278   .     A
C581   O777    1.278   .     A
C581   C627    1.455   .     S
C582   O778    1.278   .     A
C582   O789    1.278   .     A
C583   O791    1.278   .     A
C583   O780    1.278   .     A
C584   O781    1.278   .     A
C584   O787    1.278   .     A
C585   H713    1.085   .     S
C586   O788    1.278   .     A
C586   O782    1.278   .     A
C587   O794    1.278   .     A
C587   O783    1.278   .     A
C588   O795    1.278   .     A
C588   O784    1.278   .     A
C589   O792    1.278   .     A
C589   O785    1.278   .     A
C590   O793    1.278   .     A
C590   O786    1.278   .     A
C591   H666    1.083   .     S
C591   C608    1.386   .     A
C592   H667    1.083   .     S
C592   C606    1.386   .     A
C593   H668    1.083   .     S
C593   C605    1.386   .     A
C594   C604    1.386   .     A
C594   H670    1.083   .     S
C595   H671    1.083   .     S
C595   C603    1.386   .     A
C596   C146    1.396   1_655 A
C596   H724    1.085   .     S
C597   C602    1.386   .     A
C597   H672    1.083   .     S
C598   C601    1.386   .     A
C598   H673    1.083   .     S
C599   H674    1.083   .     S
C599   C600    1.386   .     A
C600   H675    1.083   .     S
C601   H676    1.083   .     S
C602   H677    1.083   .     S
C603   H678    1.083   .     S
C604   H679    1.083   .     S
C605   H681    1.083   .     S
C605   C628    1.402   .     A
C606   C627    1.402   .     A
C606   H682    1.083   .     S
C607   H735    1.085   .     S
C607   C147    1.396   1_655 A
C608   H683    1.083   .     S
C608   C626    1.402   .     A
C609   C625    1.386   .     A
C609   C627    1.402   .     A
C609   H684    1.083   .     S
C610   C626    1.402   .     A
C610   C624    1.386   .     A
C610   H685    1.083   .     S
C611   C623    1.386   .     A
C611   H686    1.083   .     S
C612   H687    1.083   .     S
C612   C628    1.402   .     A
C612   C622    1.386   .     A
C613   C621    1.386   .     A
C613   H688    1.083   .     S
C614   H689    1.083   .     S
C614   C620    1.386   .     A
C615   H690    1.083   .     S
C615   C619    1.386   .     A
C616   C617    1.386   .     A
C616   H692    1.083   .     S
C617   H693    1.083   .     S
C618   H746    1.085   .     S
C618   C148    1.396   1_655 S
C619   H694    1.083   .     S
C620   H695    1.083   .     S
C621   H696    1.083   .     S
C622   H697    1.083   .     S
C623   H698    1.083   .     S
C624   H699    1.083   .     S
C625   H700    1.083   .     S
H635   C1335   1.083   .     S
H640   C106    1.083   1_655 S
H651   C1356   1.083   .     S
H657   C1363   1.083   1_545 S
H751   C86     1.083   1_655 S
H756   C1329   1.083   1_545 S
O757   Zn809   1.943   .     S
O757   Zn820   1.943   .     S
O757   Zn812   1.943   .     S
O757   Zn1640  1.943   1_545 S
O758   C1390   1.279   .     A
O758   Zn811   1.930   .     S
O759   Zn814   1.930   .     S
O759   C155    1.279   1_655 S
O760   Zn813   1.930   .     S
O761   Zn823   1.930   .     S
O762   Zn822   1.930   .     S
O763   Zn817   1.930   .     S
O764   Zn809   1.930   .     S
O765   Zn819   1.930   .     S
O766   Zn818   1.930   .     S
O767   Zn821   1.930   .     S
O768   Zn815   1.943   .     S
O768   Zn817   1.943   .     S
O768   Zn821   1.943   .     S
O768   Zn1635  1.943   1_545 S
O769   Zn820   1.930   .     S
O770   Zn812   1.937   .     S
O771   Zn811   1.937   .     S
O772   Zn814   1.937   .     S
O773   Zn813   1.937   .     S
O774   Zn816   1.937   .     S
O775   Zn815   1.937   .     S
O776   Zn810   1.937   .     S
O777   Zn824   1.937   .     S
O778   Zn811   1.937   .     S
O779   Zn818   1.943   .     S
O779   Zn822   1.943   .     S
O779   Zn810   1.943   .     S
O780   Zn812   1.937   .     S
O781   Zn824   1.937   .     S
O782   Zn810   1.937   .     S
O783   Zn815   1.937   .     S
O784   Zn816   1.937   .     S
O785   Zn813   1.937   .     S
O786   Zn814   1.937   .     S
O787   Zn407   1.937   1_655 S
O788   Zn818   1.937   .     S
O789   Zn1645  1.937   .     S
O790   Zn813   1.943   .     S
O790   Zn819   1.943   .     S
O790   Zn823   1.943   .     S
O791   Zn820   1.937   .     S
O792   Zn823   1.937   .     S
O793   Zn410   1.937   1_655 S
O794   Zn817   1.937   .     S
O795   Zn1633  1.937   .     S
O796   Zn406   1.937   1_655 S
O797   Zn819   1.937   .     S
O798   Zn809   1.937   .     S
O799   Zn1641  1.937   .     S
O800   Zn822   1.937   .     S
O801   Zn816   1.930   .     S
O801   C1389   1.279   .     S
O802   Zn411   1.937   1_655 S
O803   Zn1644  1.937   .     S
O804   Zn821   1.937   .     S
O805   Zn815   1.930   .     S
O806   Zn810   1.930   .     S
O807   Zn824   1.930   .     S
O807   C156    1.278   1_655 S
O808   Zn812   1.930   .     S
Zn809  O1619   1.937   1_545 S
Zn811  O1592   1.943   .     S
Zn814  O367    1.943   1_655 S
Zn816  O1581   1.943   .     S
Zn817  O1623   1.937   1_545 S
Zn820  O1627   1.937   1_545 S
Zn821  O1613   1.937   1_545 S
Zn824  O378    1.943   1_655 S
C825   C903    1.396   .     A
C825   C144    1.396   1_565 A
C825   H1041   1.085   .     S
C826   H1042   1.085   .     S
C826   C973    1.396   .     A
C826   C960    1.396   .     A
C827   C987    1.455   .     S
C827   C1016   1.402   .     A
C827   C1023   1.402   .     A
C828   C1015   1.402   .     A
C828   C1026   1.402   .     A
C828   C988    1.456   .     S
C829   C1025   1.402   .     A
C829   C1014   1.402   .     A
C829   C989    1.455   .     S
C830   C1013   1.402   .     A
C830   C990    1.456   .     S
C830   C1028   1.402   .     A
C831   C1027   1.402   .     A
C831   C991    1.455   .     S
C831   C1012   1.402   .     A
C832   C1011   1.402   .     A
C832   C1031   1.402   .     A
C832   C1001   1.456   .     S
C833   C1010   1.402   .     A
C833   C1002   1.455   .     S
C833   C1029   1.402   .     A
C834   C1009   1.402   .     A
C834   C994    1.456   .     S
C834   C1033   1.402   .     A
C835   C995    1.455   .     S
C835   C1007   1.402   .     A
C835   C1032   1.402   .     A
C836   C996    1.456   .     S
C836   C1035   1.402   .     A
C836   C1006   1.402   .     A
C837   C150    1.396   1_565 A
C837   H1053   1.085   .     S
C837   C961    1.396   .     A
C838   C1005   1.402   .     A
C838   C998    1.455   .     S
C838   C1034   1.402   .     A
C839   C1037   1.402   .     A
C839   C999    1.456   .     S
C839   C1004   1.402   .     A
C840   C1003   1.402   .     A
C840   C1036   1.402   .     A
C840   C1000   1.455   .     S
C841   C948    1.416   .     S
C841   C984    1.459   .     S
C842   C983    1.459   .     S
C842   C956    1.416   .     S
C843   C982    1.459   .     S
C843   C1369   1.416   1_455 A
C843   C925    1.416   .     S
C844   C1370   1.416   1_455 A
C844   C937    1.416   .     S
C844   C981    1.459   .     S
C845   C963    1.416   .     A
C845   C980    1.459   .     S
C845   C1371   1.416   1_455 S
C846   C979    1.459   .     S
C846   C960    1.416   .     A
C846   C1377   1.416   1_455 S
C847   C978    1.459   .     S
C847   C966    1.416   .     S
C848   H1064   1.085   .     S
C848   C962    1.396   .     A
C848   C976    1.396   .     S
C849   C977    1.459   .     S
C849   C962    1.416   .     A
C850   C851    1.407   .     A
C850   C903    1.485   .     S
C850   C855    1.405   .     A
C851   H1113   1.083   .     S
C851   C852    1.398   .     A
C852   C853    1.397   .     A
C852   H1115   1.082   .     S
C853   C854    1.397   .     A
C853   H1116   1.082   .     S
C854   H1117   1.082   .     S
C854   C855    1.399   .     A
C855   H1118   1.083   .     S
C856   C914    1.485   .     S
C856   C857    1.407   .     A
C856   C862    1.405   .     A
C857   H1119   1.083   .     S
C857   C858    1.398   .     A
C858   H1120   1.082   .     S
C858   C860    1.397   .     A
C859   C963    1.396   .     A
C859   H1074   1.085   .     S
C859   C972    1.396   .     A
C860   C861    1.397   .     A
C860   H1121   1.082   .     S
C861   C862    1.399   .     A
C861   H1122   1.082   .     S
C862   H1123   1.083   .     S
C863   C925    1.485   .     S
C863   C864    1.407   .     A
C863   C868    1.405   .     A
C864   H1124   1.083   .     S
C864   C865    1.398   .     A
C865   C866    1.397   .     A
C865   H1126   1.082   .     S
C866   H1127   1.082   .     S
C866   C867    1.397   .     A
C867   C868    1.399   .     A
C867   H1128   1.082   .     S
C868   H1129   1.083   .     S
C869   C871    1.407   .     A
C869   C937    1.485   .     S
C869   C875    1.405   .     A
C870   C965    1.396   .     A
C870   H1075   1.085   .     S
C870   C1385   1.396   .     S
C871   C872    1.398   .     A
C871   H1130   1.083   .     S
C872   H1131   1.082   .     S
C872   C873    1.397   .     A
C873   H1132   1.082   .     S
C873   C874    1.397   .     A
C874   H1133   1.082   .     S
C874   C875    1.399   .     A
C875   H1134   1.083   .     S
C876   C882    1.405   .     A
C876   C948    1.485   .     S
C876   C877    1.407   .     A
C877   H1135   1.083   .     S
C877   C878    1.398   .     A
C878   H1137   1.082   .     S
C878   C879    1.397   .     A
C879   C880    1.397   .     A
C879   H1138   1.082   .     S
C880   C882    1.399   .     A
C880   H1139   1.082   .     S
C881   C966    1.396   .     A
C881   H1076   1.085   .     S
C881   C974    1.396   .     S
C882   H1140   1.083   .     S
C883   C884    1.407   .     A
C883   C956    1.485   .     S
C883   C888    1.405   .     A
C884   C885    1.398   .     A
C884   H1141   1.083   .     S
C885   C886    1.397   .     A
C885   H1142   1.082   .     S
C886   H1143   1.082   .     S
C886   C887    1.397   .     A
C887   H1144   1.082   .     S
C887   C888    1.399   .     A
C888   H1145   1.083   .     S
C889   C895    1.405   .     A
C889   C890    1.407   .     A
C889   C957    1.485   .     S
C890   C891    1.398   .     A
C890   H1146   1.083   .     S
C891   C893    1.397   .     A
C891   H1148   1.082   .     S
C892   C967    1.396   .     A
C892   H1077   1.085   .     S
C892   C152    1.396   1_565 A
C893   H1149   1.082   .     S
C893   C894    1.397   .     A
C894   H1150   1.082   .     S
C894   C895    1.399   .     A
C895   H1151   1.083   .     S
C896   C897    1.407   .     A
C896   C958    1.485   .     S
C896   C901    1.405   .     A
C897   C898    1.398   .     A
C897   H1152   1.083   .     S
C898   H1153   1.082   .     S
C898   C899    1.397   .     A
C899   C900    1.397   .     A
C899   H1154   1.082   .     S
C900   H1155   1.082   .     S
C900   C901    1.399   .     A
C901   H1156   1.083   .     S
C902   C904    1.407   .     A
C902   C959    1.485   .     S
C902   C908    1.405   .     A
C903   C17     1.416   1_565 A
C904   C905    1.398   .     A
C904   H1569   1.083   .     S
C905   C906    1.397   .     A
C905   H1159   1.082   .     S
C906   H1160   1.082   .     S
C906   C907    1.397   .     A
C907   C908    1.399   .     A
C907   H1161   1.082   .     S
C908   H1162   1.083   .     S
C909   C910    1.407   .     A
C909   C960    1.485   .     S
C909   C915    1.405   .     A
C910   C911    1.398   .     A
C910   H1575   1.083   1_455 S
C911   C912    1.397   .     A
C911   H1164   1.082   .     S
C912   H1165   1.082   .     S
C912   C913    1.397   .     A
C913   H1166   1.082   .     S
C913   C915    1.399   .     A
C914   C18     1.416   1_565 A
C914   C936    1.396   .     A
C915   H1167   1.083   .     S
C916   C961    1.485   .     S
C916   C921    1.405   .     A
C916   C917    1.407   .     A
C917   C918    1.398   .     A
C917   H344    1.083   1_565 S
C918   H1043   1.082   .     S
C918   C919    1.397   .     A
C919   H1044   1.082   .     S
C919   C920    1.397   .     A
C920   H1045   1.082   .     S
C920   C921    1.399   .     A
C921   H1046   1.083   .     S
C922   C962    1.485   .     S
C922   C923    1.407   .     A
C922   C928    1.405   .     A
C923   C924    1.398   .     A
C924   H1048   1.082   .     S
C924   C926    1.397   .     A
C925   C964    1.396   .     A
C926   H1049   1.082   .     S
C926   C927    1.397   .     A
C927   C928    1.399   .     A
C927   H1050   1.082   .     S
C928   H1051   1.083   .     S
C929   C934    1.405   .     A
C929   C963    1.485   .     S
C929   C930    1.407   .     A
C930   C931    1.398   .     A
C930   H1464   1.083   1_455 S
C931   C932    1.397   .     A
C931   H1054   1.082   .     S
C932   C933    1.397   .     A
C932   H1055   1.082   .     S
C933   H1056   1.082   .     S
C933   C934    1.399   .     A
C934   H1057   1.083   .     S
C935   C942    1.405   .     A
C935   C965    1.485   .     S
C935   C938    1.407   .     A
C936   C145    1.396   1_565 A
C936   H1081   1.085   .     S
C937   C975    1.396   .     A
C938   C939    1.398   .     A
C938   H1470   1.083   .     S
C939   C940    1.397   .     A
C939   H1059   1.082   .     S
C940   H1060   1.082   .     S
C940   C941    1.397   .     A
C941   H1061   1.082   .     S
C941   C942    1.399   .     A
C942   H1062   1.083   .     S
C943   C966    1.485   .     S
C943   C949    1.405   .     A
C943   C944    1.407   .     A
C944   C945    1.398   .     A
C945   H1065   1.082   .     S
C945   C946    1.397   .     A
C946   H1066   1.082   .     S
C946   C947    1.397   .     A
C947   H1067   1.082   .     S
C947   C949    1.399   .     A
C948   C986    1.396   .     A
C949   H1068   1.083   .     S
C950   C951    1.407   .     A
C950   C967    1.485   .     S
C950   C955    1.405   .     A
C951   C952    1.398   .     A
C951   H245    1.083   1_565 S
C952   C953    1.397   .     A
C952   H1070   1.082   .     S
C953   H1071   1.082   .     S
C953   C954    1.397   .     A
C954   C955    1.399   .     A
C954   H1072   1.082   .     S
C955   H1073   1.083   .     S
C956   C997    1.396   .     A
C957   C1008   1.396   .     A
C957   C1255   1.416   .     A
C958   C1256   1.416   .     A
C958   C1019   1.396   .     A
C959   C1030   1.396   .     A
C959   C1257   1.416   .     S
C961   C23     1.416   1_565 A
C964   H1092   1.085   .     S
C964   C970    1.396   .     S
C965   C1258   1.416   .     S
C967   C25     1.416   1_565 S
C968   C969    1.457   1_554 S
C968   C986    1.396   .     S
C969   C968    1.457   1_556 S
C969   C997    1.396   .     S
C970   C1420   1.396   1_455 A
C970   C971    1.457   1_554 S
C971   C1431   1.396   1_455 A
C971   C970    1.457   1_556 S
C971   C975    1.396   .     S
C972   C973    1.457   .     S
C972   C1442   1.396   1_455 S
C973   C1282   1.396   1_455 S
C974   C976    1.457   .     S
C975   H1103   1.085   .     S
C977   O1220   1.279   .     A
C978   O1217   1.279   .     S
C979   O1218   1.279   .     A
C979   O1583   1.279   1_455 S
C980   O1172   1.278   .     A
C980   O1631   1.278   1_455 S
C981   O1173   1.279   .     A
C981   O1177   1.279   .     A
C982   O1178   1.279   .     A
C982   O1174   1.279   .     S
C983   O1179   1.278   .     A
C983   O1175   1.278   .     A
C984   O1181   1.278   .     A
C984   O1176   1.278   .     A
C985   O1182   1.278   .     A
C985   O1210   1.278   .     A
C985   C1040   1.456   .     S
C986   H1114   1.085   .     S
C987   O1211   1.278   .     A
C987   O1183   1.278   .     A
C988   O1184   1.278   .     A
C988   O1208   1.278   .     A
C989   O1185   1.278   .     A
C989   O1209   1.278   .     A
C990   O1186   1.278   .     A
C990   O1215   1.278   .     A
C991   O1216   1.278   .     A
C991   O1187   1.278   .     A
C992   O1212   1.278   .     A
C992   C1038   1.456   .     S
C992   O1188   1.278   .     A
C993   O1214   1.278   .     A
C993   O1189   1.278   .     A
C993   C1039   1.455   .     S
C994   O1190   1.278   .     A
C994   O1201   1.278   .     A
C995   O1203   1.278   .     A
C995   O1192   1.278   .     A
C996   O1193   1.278   .     A
C996   O1199   1.278   .     A
C997   H1125   1.085   .     S
C998   O1200   1.278   .     A
C998   O1194   1.278   .     A
C999   O1206   1.278   .     A
C999   O1195   1.278   .     A
C1000  O1207   1.278   .     A
C1000  O1196   1.278   .     A
C1001  O1204   1.278   .     A
C1001  O1197   1.278   .     A
C1002  O1205   1.278   .     A
C1002  O1198   1.278   .     A
C1003  H1078   1.083   .     S
C1003  C1020   1.386   .     A
C1004  H1079   1.083   .     S
C1004  C1018   1.386   .     A
C1005  H1080   1.083   .     S
C1005  C1017   1.386   .     A
C1006  C1016   1.386   .     A
C1006  H1082   1.083   .     S
C1007  H1083   1.083   .     S
C1007  C1015   1.386   .     A
C1008  C1382   1.396   .     A
C1008  H1136   1.085   .     S
C1009  C1014   1.386   .     A
C1009  H1084   1.083   .     S
C1010  C1013   1.386   .     A
C1010  H1085   1.083   .     S
C1011  H1086   1.083   .     S
C1011  C1012   1.386   .     A
C1012  H1087   1.083   .     S
C1013  H1088   1.083   .     S
C1014  H1089   1.083   .     S
C1015  H1090   1.083   .     S
C1016  H1091   1.083   .     S
C1017  H1093   1.083   .     S
C1017  C1040   1.402   .     A
C1018  C1039   1.402   .     A
C1018  H1094   1.083   .     S
C1019  H1147   1.085   .     S
C1019  C1383   1.396   .     A
C1020  H1095   1.083   .     S
C1020  C1038   1.402   .     A
C1021  C1037   1.386   .     A
C1021  C1039   1.402   .     A
C1021  H1096   1.083   .     S
C1022  C1038   1.402   .     A
C1022  C1036   1.386   .     A
C1022  H1097   1.083   .     S
C1023  C1035   1.386   .     A
C1023  H1098   1.083   .     S
C1024  H1099   1.083   .     S
C1024  C1040   1.402   .     A
C1024  C1034   1.386   .     A
C1025  C1033   1.386   .     A
C1025  H1100   1.083   .     S
C1026  H1101   1.083   .     S
C1026  C1032   1.386   .     A
C1027  H1102   1.083   .     S
C1027  C1031   1.386   .     A
C1028  C1029   1.386   .     A
C1028  H1104   1.083   .     S
C1029  H1105   1.083   .     S
C1030  H1158   1.085   .     S
C1030  C1384   1.396   .     S
C1031  H1106   1.083   .     S
C1032  H1107   1.083   .     S
C1033  H1108   1.083   .     S
C1034  H1109   1.083   .     S
C1035  H1110   1.083   .     S
C1036  H1111   1.083   .     S
C1037  H1112   1.083   .     S
H1047  C99     1.083   1_565 S
H1052  C1342   1.083   .     S
H1058  C1350   1.083   1_455 S
H1063  C120    1.083   1_565 S
H1157  C1316   1.083   1_455 S
H1163  C1322   1.083   .     S
O1169  Zn1221  1.943   .     S
O1169  Zn1232  1.943   .     S
O1169  Zn1224  1.943   .     S
O1170  C154    1.279   1_565 A
O1170  Zn1223  1.930   .     S
O1171  Zn1226  1.930   .     S
O1171  C1391   1.279   .     S
O1172  Zn1225  1.930   .     S
O1173  Zn1235  1.930   .     S
O1174  Zn1234  1.930   .     S
O1175  Zn1229  1.930   .     S
O1176  Zn1221  1.930   .     S
O1177  Zn1231  1.930   .     S
O1178  Zn1230  1.930   .     S
O1179  Zn1233  1.930   .     S
O1180  Zn1227  1.943   .     S
O1180  Zn1229  1.943   .     S
O1180  Zn1233  1.943   .     S
O1181  Zn1232  1.930   .     S
O1182  Zn1224  1.937   .     S
O1183  Zn1223  1.937   .     S
O1184  Zn1226  1.937   .     S
O1185  Zn1225  1.937   .     S
O1186  Zn1228  1.937   .     S
O1187  Zn1227  1.937   .     S
O1188  Zn1222  1.937   .     S
O1189  Zn1236  1.937   .     S
O1190  Zn1223  1.937   .     S
O1191  Zn1230  1.943   .     S
O1191  Zn1234  1.943   .     S
O1191  Zn1222  1.943   .     S
O1191  Zn1638  1.943   1_455 S
O1192  Zn1224  1.937   .     S
O1193  Zn1236  1.937   .     S
O1194  Zn1222  1.937   .     S
O1195  Zn1227  1.937   .     S
O1196  Zn1228  1.937   .     S
O1197  Zn1225  1.937   .     S
O1198  Zn1226  1.937   .     S
O1199  Zn1643  1.937   .     S
O1200  Zn1230  1.937   .     S
O1201  Zn409   1.937   1_565 S
O1202  Zn1225  1.943   .     S
O1202  Zn1231  1.943   .     S
O1202  Zn1235  1.943   .     S
O1202  Zn1648  1.943   1_455 S
O1203  Zn1232  1.937   .     S
O1204  Zn1235  1.937   .     S
O1205  Zn1646  1.937   .     S
O1206  Zn1229  1.937   .     S
O1207  Zn397   1.937   1_565 S
O1208  Zn1642  1.937   .     S
O1209  Zn1231  1.937   .     S
O1210  Zn1221  1.937   .     S
O1211  Zn405   1.937   1_565 S
O1212  Zn1234  1.937   .     S
O1213  Zn1228  1.930   .     S
O1213  C153    1.279   1_565 S
O1214  Zn1647  1.937   .     S
O1215  Zn408   1.937   1_565 S
O1216  Zn1233  1.937   .     S
O1217  Zn1227  1.930   .     S
O1218  Zn1222  1.930   .     S
O1219  Zn1236  1.930   .     S
O1219  C1392   1.278   .     S
O1220  Zn1224  1.930   .     S
Zn1223 O356    1.943   1_565 S
Zn1226 O1603   1.943   .     S
Zn1228 O345    1.943   1_565 S
Zn1230 O1620   1.937   1_455 S
Zn1231 O1611   1.937   1_455 S
Zn1234 O1617   1.937   1_455 S
Zn1235 O1626   1.937   1_455 S
Zn1236 O1614   1.943   .     S
C1237  C1315   1.396   .     A
C1237  C556    1.396   1_565 A
C1237  H1453   1.085   .     S
C1238  H1454   1.085   .     S
C1238  C1385   1.396   .     A
C1238  C1372   1.396   .     A
C1239  C1399   1.455   .     S
C1239  C1428   1.402   .     A
C1239  C1435   1.402   .     A
C1240  C1427   1.402   .     A
C1240  C1438   1.402   .     A
C1240  C1400   1.456   .     S
C1241  C1437   1.402   .     A
C1241  C1426   1.402   .     A
C1241  C1401   1.455   .     S
C1242  C1425   1.402   .     A
C1242  C1402   1.456   .     S
C1242  C1440   1.402   .     A
C1243  C1439   1.402   .     A
C1243  C1403   1.455   .     S
C1243  C1424   1.402   .     A
C1244  C1423   1.402   .     A
C1244  C1443   1.402   .     A
C1244  C1413   1.456   .     S
C1245  C1422   1.402   .     A
C1245  C1414   1.455   .     S
C1245  C1441   1.402   .     A
C1246  C1421   1.402   .     A
C1246  C1406   1.456   .     S
C1246  C1445   1.402   .     A
C1247  C1407   1.455   .     S
C1247  C1419   1.402   .     A
C1247  C1444   1.402   .     A
C1248  C1408   1.456   .     S
C1248  C1447   1.402   .     A
C1248  C1418   1.402   .     A
C1249  C562    1.396   1_565 A
C1249  H1465   1.085   .     S
C1249  C1373   1.396   .     A
C1250  C1417   1.402   .     A
C1250  C1410   1.455   .     S
C1250  C1446   1.402   .     A
C1251  C1449   1.402   .     A
C1251  C1411   1.456   .     S
C1251  C1416   1.402   .     A
C1252  C1415   1.402   .     A
C1252  C1448   1.402   .     A
C1252  C1412   1.455   .     S
C1253  C1360   1.416   .     S
C1253  C1396   1.459   .     S
C1254  C1395   1.459   .     S
C1254  C1368   1.416   .     S
C1255  C1394   1.459   .     S
C1255  C1337   1.416   .     S
C1256  C1349   1.416   .     S
C1256  C1393   1.459   .     S
C1257  C1375   1.416   .     A
C1257  C1392   1.459   .     S
C1258  C1391   1.459   .     S
C1258  C1372   1.416   .     A
C1259  C1390   1.459   .     S
C1259  C1378   1.416   .     S
C1260  H1476   1.085   .     S
C1260  C1374   1.396   .     A
C1260  C1388   1.396   .     S
C1261  C1389   1.459   .     S
C1261  C1374   1.416   .     A
C1262  C1263   1.407   .     A
C1262  C1315   1.485   .     S
C1262  C1267   1.405   .     A
C1263  H1525   1.083   .     S
C1263  C1264   1.398   .     A
C1264  C1265   1.397   .     A
C1264  H1527   1.082   .     S
C1265  C1266   1.397   .     A
C1265  H1528   1.082   .     S
C1266  H1529   1.082   .     S
C1266  C1267   1.399   .     A
C1267  H1530   1.083   .     S
C1268  C1326   1.485   .     S
C1268  C1269   1.407   .     A
C1268  C1274   1.405   .     A
C1269  H1531   1.083   .     S
C1269  C1270   1.398   .     A
C1270  H1532   1.082   .     S
C1270  C1272   1.397   .     A
C1271  C1375   1.396   .     A
C1271  H1486   1.085   .     S
C1271  C1384   1.396   .     A
C1272  C1273   1.397   .     A
C1272  H1533   1.082   .     S
C1273  C1274   1.399   .     A
C1273  H1534   1.082   .     S
C1274  H1535   1.083   .     S
C1275  C1337   1.485   .     S
C1275  C1276   1.407   .     A
C1275  C1280   1.405   .     A
C1276  H1536   1.083   .     S
C1276  C1277   1.398   .     A
C1277  C1278   1.397   .     A
C1277  H1538   1.082   .     S
C1278  H1539   1.082   .     S
C1278  C1279   1.397   .     A
C1279  C1280   1.399   .     A
C1279  H1540   1.082   .     S
C1280  H1541   1.083   .     S
C1281  C1283   1.407   .     A
C1281  C1349   1.485   .     S
C1281  C1287   1.405   .     A
C1282  C1377   1.396   .     A
C1282  H1487   1.085   .     S
C1282  C973    1.396   1_655 S
C1283  C1284   1.398   .     A
C1283  H1542   1.083   .     S
C1284  H1543   1.082   .     S
C1284  C1285   1.397   .     A
C1285  H1544   1.082   .     S
C1285  C1286   1.397   .     A
C1286  H1545   1.082   .     S
C1286  C1287   1.399   .     A
C1287  H1546   1.083   .     S
C1288  C1294   1.405   .     A
C1288  C1360   1.485   .     S
C1288  C1289   1.407   .     A
C1289  H1547   1.083   .     S
C1289  C1290   1.398   .     A
C1290  H1549   1.082   .     S
C1290  C1291   1.397   .     A
C1291  C1292   1.397   .     A
C1291  H1550   1.082   .     S
C1292  C1294   1.399   .     A
C1292  H1551   1.082   .     S
C1293  C1378   1.396   .     A
C1293  H1488   1.085   .     S
C1293  C1386   1.396   .     S
C1294  H1552   1.083   .     S
C1295  C1296   1.407   .     A
C1295  C1368   1.485   .     S
C1295  C1300   1.405   .     A
C1296  C1297   1.398   .     A
C1296  H1553   1.083   .     S
C1297  C1298   1.397   .     A
C1297  H1554   1.082   .     S
C1298  H1555   1.082   .     S
C1298  C1299   1.397   .     A
C1299  H1556   1.082   .     S
C1299  C1300   1.399   .     A
C1300  H1557   1.083   .     S
C1301  C1307   1.405   .     A
C1301  C1302   1.407   .     A
C1301  C1369   1.485   .     S
C1302  C1303   1.398   .     A
C1302  H1558   1.083   .     S
C1303  C1305   1.397   .     A
C1303  H1560   1.082   .     S
C1304  C1379   1.396   .     A
C1304  H1489   1.085   .     S
C1304  C564    1.396   1_565 A
C1305  H1561   1.082   .     S
C1305  C1306   1.397   .     A
C1306  H1562   1.082   .     S
C1306  C1307   1.399   .     A
C1307  H1563   1.083   .     S
C1308  C1309   1.407   .     A
C1308  C1370   1.485   .     S
C1308  C1313   1.405   .     A
C1309  C1310   1.398   .     A
C1309  H1564   1.083   .     S
C1310  H1565   1.082   .     S
C1310  C1311   1.397   .     A
C1311  C1312   1.397   .     A
C1311  H1566   1.082   .     S
C1312  H1567   1.082   .     S
C1312  C1313   1.399   .     A
C1313  H1568   1.083   .     S
C1314  C1316   1.407   .     A
C1314  C1371   1.485   .     S
C1314  C1320   1.405   .     A
C1315  C429    1.416   1_565 A
C1316  C1317   1.398   .     A
C1316  H1157   1.083   1_655 S
C1317  C1318   1.397   .     A
C1317  H1571   1.082   .     S
C1318  H1572   1.082   .     S
C1318  C1319   1.397   .     A
C1319  C1320   1.399   .     A
C1319  H1573   1.082   .     S
C1320  H1574   1.083   .     S
C1321  C1322   1.407   .     A
C1321  C1372   1.485   .     S
C1321  C1327   1.405   .     A
C1322  C1323   1.398   .     A
C1323  C1324   1.397   .     A
C1323  H1576   1.082   .     S
C1324  H1577   1.082   .     S
C1324  C1325   1.397   .     A
C1325  H1578   1.082   .     S
C1325  C1327   1.399   .     A
C1326  C430    1.416   1_565 A
C1326  C1348   1.396   .     A
C1327  H1579   1.083   .     S
C1328  C1373   1.485   .     S
C1328  C1333   1.405   .     A
C1328  C1329   1.407   .     A
C1329  C1330   1.398   .     A
C1329  H756    1.083   1_565 S
C1330  H1455   1.082   .     S
C1330  C1331   1.397   .     A
C1331  H1456   1.082   .     S
C1331  C1332   1.397   .     A
C1332  H1457   1.082   .     S
C1332  C1333   1.399   .     A
C1333  H1458   1.083   .     S
C1334  C1374   1.485   .     S
C1334  C1335   1.407   .     A
C1334  C1340   1.405   .     A
C1335  C1336   1.398   .     A
C1336  H1460   1.082   .     S
C1336  C1338   1.397   .     A
C1337  C1376   1.396   .     A
C1338  H1461   1.082   .     S
C1338  C1339   1.397   .     A
C1339  C1340   1.399   .     A
C1339  H1462   1.082   .     S
C1340  H1463   1.083   .     S
C1341  C1346   1.405   .     A
C1341  C1375   1.485   .     S
C1341  C1342   1.407   .     A
C1342  C1343   1.398   .     A
C1343  C1344   1.397   .     A
C1343  H1466   1.082   .     S
C1344  C1345   1.397   .     A
C1344  H1467   1.082   .     S
C1345  H1468   1.082   .     S
C1345  C1346   1.399   .     A
C1346  H1469   1.083   .     S
C1347  C1354   1.405   .     A
C1347  C1377   1.485   .     S
C1347  C1350   1.407   .     A
C1348  C557    1.396   1_565 A
C1348  H1493   1.085   .     S
C1349  C1387   1.396   .     A
C1350  C1351   1.398   .     A
C1350  H1058   1.083   1_655 S
C1351  C1352   1.397   .     A
C1351  H1471   1.082   .     S
C1352  H1472   1.082   .     S
C1352  C1353   1.397   .     A
C1353  H1473   1.082   .     S
C1353  C1354   1.399   .     A
C1354  H1474   1.083   .     S
C1355  C1378   1.485   .     S
C1355  C1361   1.405   .     A
C1355  C1356   1.407   .     A
C1356  C1357   1.398   .     A
C1357  H1477   1.082   .     S
C1357  C1358   1.397   .     A
C1358  H1478   1.082   .     S
C1358  C1359   1.397   .     A
C1359  H1479   1.082   .     S
C1359  C1361   1.399   .     A
C1360  C1398   1.396   .     A
C1361  H1480   1.083   .     S
C1362  C1363   1.407   .     A
C1362  C1379   1.485   .     S
C1362  C1367   1.405   .     A
C1363  C1364   1.398   .     A
C1363  H657    1.083   1_565 S
C1364  C1365   1.397   .     A
C1364  H1482   1.082   .     S
C1365  H1483   1.082   .     S
C1365  C1366   1.397   .     A
C1366  C1367   1.399   .     A
C1366  H1484   1.082   .     S
C1367  H1485   1.083   .     S
C1368  C1409   1.396   .     A
C1369  C1420   1.396   .     A
C1369  C843    1.416   1_655 A
C1370  C844    1.416   1_655 A
C1370  C1431   1.396   .     A
C1371  C1442   1.396   .     A
C1371  C845    1.416   1_655 S
C1373  C435    1.416   1_565 A
C1376  H1504   1.085   .     S
C1376  C1382   1.396   .     S
C1377  C846    1.416   1_655 S
C1379  C437    1.416   1_565 S
C1380  C1381   1.457   1_554 S
C1380  C1398   1.396   .     S
C1381  C1380   1.457   1_556 S
C1381  C1409   1.396   .     S
C1382  C1383   1.457   1_554 S
C1383  C1382   1.457   1_556 S
C1383  C1387   1.396   .     S
C1384  C1385   1.457   .     S
C1386  C1388   1.457   .     S
C1387  H1515   1.085   .     S
C1389  O1632   1.279   .     A
C1390  O1629   1.279   .     S
C1391  O1630   1.279   .     A
C1392  O1584   1.278   .     A
C1393  O1585   1.279   .     A
C1393  O1589   1.279   .     A
C1394  O1590   1.279   .     A
C1394  O1586   1.279   .     S
C1395  O1591   1.278   .     A
C1395  O1587   1.278   .     A
C1396  O1593   1.278   .     A
C1396  O1588   1.278   .     A
C1397  O1594   1.278   .     A
C1397  O1622   1.278   .     A
C1397  C1452   1.456   .     S
C1398  H1526   1.085   .     S
C1399  O1623   1.278   .     A
C1399  O1595   1.278   .     A
C1400  O1596   1.278   .     A
C1400  O1620   1.278   .     A
C1401  O1597   1.278   .     A
C1401  O1621   1.278   .     A
C1402  O1598   1.278   .     A
C1402  O1627   1.278   .     A
C1403  O1628   1.278   .     A
C1403  O1599   1.278   .     A
C1404  O1624   1.278   .     A
C1404  C1450   1.456   .     S
C1404  O1600   1.278   .     A
C1405  O1626   1.278   .     A
C1405  O1601   1.278   .     A
C1405  C1451   1.455   .     S
C1406  O1602   1.278   .     A
C1406  O1613   1.278   .     A
C1407  O1615   1.278   .     A
C1407  O1604   1.278   .     A
C1408  O1605   1.278   .     A
C1408  O1611   1.278   .     A
C1409  H1537   1.085   .     S
C1410  O1612   1.278   .     A
C1410  O1606   1.278   .     A
C1411  O1618   1.278   .     A
C1411  O1607   1.278   .     A
C1412  O1619   1.278   .     A
C1412  O1608   1.278   .     A
C1413  O1616   1.278   .     A
C1413  O1609   1.278   .     A
C1414  O1617   1.278   .     A
C1414  O1610   1.278   .     A
C1415  H1490   1.083   .     S
C1415  C1432   1.386   .     A
C1416  H1491   1.083   .     S
C1416  C1430   1.386   .     A
C1417  H1492   1.083   .     S
C1417  C1429   1.386   .     A
C1418  C1428   1.386   .     A
C1418  H1494   1.083   .     S
C1419  H1495   1.083   .     S
C1419  C1427   1.386   .     A
C1420  C970    1.396   1_655 A
C1420  H1548   1.085   .     S
C1421  C1426   1.386   .     A
C1421  H1496   1.083   .     S
C1422  C1425   1.386   .     A
C1422  H1497   1.083   .     S
C1423  H1498   1.083   .     S
C1423  C1424   1.386   .     A
C1424  H1499   1.083   .     S
C1425  H1500   1.083   .     S
C1426  H1501   1.083   .     S
C1427  H1502   1.083   .     S
C1428  H1503   1.083   .     S
C1429  H1505   1.083   .     S
C1429  C1452   1.402   .     A
C1430  C1451   1.402   .     A
C1430  H1506   1.083   .     S
C1431  H1559   1.085   .     S
C1431  C971    1.396   1_655 A
C1432  H1507   1.083   .     S
C1432  C1450   1.402   .     A
C1433  C1449   1.386   .     A
C1433  C1451   1.402   .     A
C1433  H1508   1.083   .     S
C1434  C1450   1.402   .     A
C1434  C1448   1.386   .     A
C1434  H1509   1.083   .     S
C1435  C1447   1.386   .     A
C1435  H1510   1.083   .     S
C1436  H1511   1.083   .     S
C1436  C1452   1.402   .     A
C1436  C1446   1.386   .     A
C1437  C1445   1.386   .     A
C1437  H1512   1.083   .     S
C1438  H1513   1.083   .     S
C1438  C1444   1.386   .     A
C1439  H1514   1.083   .     S
C1439  C1443   1.386   .     A
C1440  C1441   1.386   .     A
C1440  H1516   1.083   .     S
C1441  H1517   1.083   .     S
C1442  H1570   1.085   .     S
C1442  C972    1.396   1_655 S
C1443  H1518   1.083   .     S
C1444  H1519   1.083   .     S
C1445  H1520   1.083   .     S
C1446  H1521   1.083   .     S
C1447  H1522   1.083   .     S
C1448  H1523   1.083   .     S
C1449  H1524   1.083   .     S
H1459  C511    1.083   1_565 S
H1464  C930    1.083   1_655 S
H1475  C532    1.083   1_565 S
H1575  C910    1.083   1_655 S
O1581  Zn1633  1.943   .     S
O1581  Zn1644  1.943   .     S
O1581  Zn1636  1.943   .     S
O1582  C566    1.279   1_565 A
O1582  Zn1635  1.930   .     S
O1583  Zn1638  1.930   .     S
O1583  C979    1.279   1_655 S
O1584  Zn1637  1.930   .     S
O1585  Zn1647  1.930   .     S
O1586  Zn1646  1.930   .     S
O1587  Zn1641  1.930   .     S
O1588  Zn1633  1.930   .     S
O1589  Zn1643  1.930   .     S
O1590  Zn1642  1.930   .     S
O1591  Zn1645  1.930   .     S
O1592  Zn1639  1.943   .     S
O1592  Zn1641  1.943   .     S
O1592  Zn1645  1.943   .     S
O1593  Zn1644  1.930   .     S
O1594  Zn1636  1.937   .     S
O1595  Zn1635  1.937   .     S
O1596  Zn1638  1.937   .     S
O1597  Zn1637  1.937   .     S
O1598  Zn1640  1.937   .     S
O1599  Zn1639  1.937   .     S
O1600  Zn1634  1.937   .     S
O1601  Zn1648  1.937   .     S
O1602  Zn1635  1.937   .     S
O1603  Zn1642  1.943   .     S
O1603  Zn1646  1.943   .     S
O1603  Zn1634  1.943   .     S
O1604  Zn1636  1.937   .     S
O1605  Zn1648  1.937   .     S
O1606  Zn1634  1.937   .     S
O1607  Zn1639  1.937   .     S
O1608  Zn1640  1.937   .     S
O1609  Zn1637  1.937   .     S
O1610  Zn1638  1.937   .     S
O1611  Zn1231  1.937   1_655 S
O1612  Zn1642  1.937   .     S
O1613  Zn821   1.937   1_565 S
O1614  Zn1637  1.943   .     S
O1614  Zn1643  1.943   .     S
O1614  Zn1647  1.943   .     S
O1615  Zn1644  1.937   .     S
O1616  Zn1647  1.937   .     S
O1617  Zn1234  1.937   1_655 S
O1618  Zn1641  1.937   .     S
O1619  Zn809   1.937   1_565 S
O1620  Zn1230  1.937   1_655 S
O1621  Zn1643  1.937   .     S
O1622  Zn1633  1.937   .     S
O1623  Zn817   1.937   1_565 S
O1624  Zn1646  1.937   .     S
O1625  Zn1640  1.930   .     S
O1625  C565    1.279   1_565 S
O1626  Zn1235  1.937   1_655 S
O1627  Zn820   1.937   1_565 S
O1628  Zn1645  1.937   .     S
O1629  Zn1639  1.930   .     S
O1630  Zn1634  1.930   .     S
O1631  Zn1648  1.930   .     S
O1631  C980    1.278   1_655 S
O1632  Zn1636  1.930   .     S
Zn1635 O768    1.943   1_565 S
Zn1638 O1191   1.943   1_655 S
Zn1640 O757    1.943   1_565 S
Zn1648 O1202   1.943   1_655 S
