data_str_m1_o10_o18_pcu_sym.62
_audit_creation_date              2020-01-03
_audit_creation_method            'Materials Studio'
_symmetry_space_group_name_H-M    'P1'
_symmetry_Int_Tables_number       1
_symmetry_cell_setting            triclinic
loop_
_symmetry_equiv_pos_as_xyz
  x,y,z
_cell_length_a                    32.6232
_cell_length_b                    32.6069
_cell_length_c                    35.8145
_cell_angle_alpha                 98.3292
_cell_angle_beta                  72.8657
_cell_angle_gamma                 98.4292
loop_
_atom_site_label
_atom_site_type_symbol
_atom_site_fract_x
_atom_site_fract_y
_atom_site_fract_z
_atom_site_U_iso_or_equiv
_atom_site_adp_type
_atom_site_occupancy
C1     C     0.05256   0.15988   0.25905   0.00000  Uiso   1.00
C2     C     0.19273   0.12554   0.46135   0.00000  Uiso   1.00
C3     C     0.20966   0.10272   0.48188   0.00000  Uiso   1.00
C4     C     0.28114   0.17332   0.24100   0.00000  Uiso   1.00
C5     C     0.20180   0.11132   0.02244   0.00000  Uiso   1.00
C6     C     0.17619   0.14351   0.04278   0.00000  Uiso   1.00
C7     C     0.22146   0.08978   0.04242   0.00000  Uiso   1.00
C8     C     0.21756   0.10071   0.08225   0.00000  Uiso   1.00
C9     C     0.17893   0.15947   0.08099   0.00000  Uiso   1.00
C10    C     0.32761   0.17467   0.23647   0.00000  Uiso   1.00
C11    C     0.00734   0.15819   0.26274   0.00000  Uiso   1.00
C12    C     0.11406   0.22945   0.42048   0.00000  Uiso   1.00
C13    C     0.17999   0.32212   0.23898   0.00000  Uiso   1.00
C14    C     0.15048   0.01252   0.26288   0.00000  Uiso   1.00
C15    C     0.15632   0.05630   0.25855   0.00000  Uiso   1.00
C16    C     0.17664   0.27764   0.24152   0.00000  Uiso   1.00
C17    C     0.18784   0.14557   0.14414   0.00000  Uiso   1.00
C18    C     0.14515   0.18753   0.35622   0.00000  Uiso   1.00
C19    C     0.13529   0.19517   0.39942   0.00000  Uiso   1.00
C20    C     0.19657   0.13613   0.10164   0.00000  Uiso   1.00
C21    C     0.10377   0.23492   0.46138   0.00000  Uiso   1.00
C22    C     0.14710   0.16726   0.41984   0.00000  Uiso   1.00
C23    C     0.14274   0.17593   0.46052   0.00000  Uiso   1.00
C24    C     0.11753   0.20817   0.48157   0.00000  Uiso   1.00
C25    C     0.16202   0.15350   0.48110   0.00000  Uiso   1.00
C26    C     0.15183   0.16092   0.02285   0.00000  Uiso   1.00
C27    C     0.11737   0.18527   0.04293   0.00000  Uiso   1.00
C28    C     0.10399   0.21146   0.02254   0.00000  Uiso   1.00
F29    F     0.24440   0.05763   0.02325   0.00000  Uiso   1.00
F30    F     0.31275   0.14189   0.29486   0.00000  Uiso   1.00
F31    F     0.08076   0.26674   0.48124   0.00000  Uiso   1.00
F32    F     0.10196   0.25693   0.40174   0.00000  Uiso   1.00
F33    F     0.15765   0.12957   0.40061   0.00000  Uiso   1.00
H34    H     0.08042   0.23246   0.03886   0.00000  Uiso   1.00
H35    H     0.20727   0.00265   0.21711   0.00000  Uiso   1.00
H36    H     0.23148   0.08019   0.46542   0.00000  Uiso   1.00
H37    H     0.20547   0.12123   0.42992   0.00000  Uiso   1.00
H38    H     0.01035   0.20210   0.18846   0.00000  Uiso   1.00
H39    H     0.09760   0.01906   0.30490   0.00000  Uiso   1.00
H40    H     0.17714   0.20926   0.11942   0.00000  Uiso   1.00
H41    H     0.23478   0.08945   0.12748   0.00000  Uiso   1.00
H42    H     0.09606   0.15425   0.08823   0.00000  Uiso   1.00
O43    O     0.16667   0.16667   0.25000   0.00000  Uiso   1.00
O44    O     0.15693   0.12393   0.16625   0.00000  Uiso   1.00
O45    O     0.12687   0.20646   0.33749   0.00000  Uiso   1.00
O46    O     0.21088   0.17493   0.15877   0.00000  Uiso   1.00
O47    O     0.17198   0.16135   0.33749   0.00000  Uiso   1.00
O48    O     0.02501   0.19237   0.20560   0.00000  Uiso   1.00
O49    O     0.11497   0.32942   0.29072   0.00000  Uiso   1.00
O50    O     0.16670   0.19879   0.09618   0.00000  Uiso   1.00
O51    O     0.23588   0.07665   0.10048   0.00000  Uiso   1.00
O52    O     0.09370   0.18208   0.08149   0.00000  Uiso   1.00
O53    O     0.17849   0.08101   0.27820   0.00000  Uiso   1.00
O54    O     0.14581   0.26136   0.26767   0.00000  Uiso   1.00
O55    O     0.07452   0.13251   0.23607   0.00000  Uiso   1.00
O56    O     0.26785   0.19179   0.21806   0.00000  Uiso   1.00
O57    O     0.06990   0.18960   0.27820   0.00000  Uiso   1.00
O58    O     0.25440   0.15277   0.26767   0.00000  Uiso   1.00
O59    O     0.13800   0.06903   0.23607   0.00000  Uiso   1.00
O60    O     0.20437   0.25527   0.21806   0.00000  Uiso   1.00
Zn61   Zn    0.19244   0.14090   0.28277   0.00000  Uiso   1.00
Zn62   Zn    0.13459   0.12378   0.22257   0.00000  Uiso   1.00
Zn63   Zn    0.21166   0.19664   0.21188   0.00000  Uiso   1.00
Zn64   Zn    0.12798   0.20535   0.28277   0.00000  Uiso   1.00
C65    C     0.38589   0.15988   0.25905   0.00000  Uiso   1.00
C66    C     0.52606   0.12554   0.46135   0.00000  Uiso   1.00
C67    C     0.54299   0.10272   0.48188   0.00000  Uiso   1.00
C68    C     0.61447   0.17332   0.24100   0.00000  Uiso   1.00
C69    C     0.53514   0.11132   0.02244   0.00000  Uiso   1.00
C70    C     0.50952   0.14351   0.04278   0.00000  Uiso   1.00
C71    C     0.55479   0.08978   0.04242   0.00000  Uiso   1.00
C72    C     0.55089   0.10071   0.08225   0.00000  Uiso   1.00
C73    C     0.51227   0.15947   0.08099   0.00000  Uiso   1.00
C74    C     0.66094   0.17467   0.23647   0.00000  Uiso   1.00
C75    C     0.34068   0.15819   0.26274   0.00000  Uiso   1.00
C76    C     0.44739   0.22945   0.42048   0.00000  Uiso   1.00
C77    C     0.51332   0.32212   0.23898   0.00000  Uiso   1.00
C78    C     0.48381   0.01252   0.26288   0.00000  Uiso   1.00
C79    C     0.48965   0.05630   0.25855   0.00000  Uiso   1.00
C80    C     0.50997   0.27764   0.24152   0.00000  Uiso   1.00
C81    C     0.52118   0.14557   0.14414   0.00000  Uiso   1.00
C82    C     0.47848   0.18753   0.35622   0.00000  Uiso   1.00
C83    C     0.46863   0.19517   0.39942   0.00000  Uiso   1.00
C84    C     0.52991   0.13613   0.10164   0.00000  Uiso   1.00
C85    C     0.43711   0.23492   0.46138   0.00000  Uiso   1.00
C86    C     0.48043   0.16726   0.41984   0.00000  Uiso   1.00
C87    C     0.47608   0.17593   0.46052   0.00000  Uiso   1.00
C88    C     0.45086   0.20817   0.48157   0.00000  Uiso   1.00
C89    C     0.49535   0.15350   0.48110   0.00000  Uiso   1.00
C90    C     0.48516   0.16092   0.02285   0.00000  Uiso   1.00
C91    C     0.45071   0.18527   0.04293   0.00000  Uiso   1.00
C92    C     0.43732   0.21146   0.02254   0.00000  Uiso   1.00
F93    F     0.57773   0.05763   0.02325   0.00000  Uiso   1.00
F94    F     0.64609   0.14189   0.29486   0.00000  Uiso   1.00
F95    F     0.41409   0.26674   0.48124   0.00000  Uiso   1.00
F96    F     0.43529   0.25693   0.40174   0.00000  Uiso   1.00
F97    F     0.49098   0.12957   0.40061   0.00000  Uiso   1.00
H98    H     0.41376   0.23246   0.03886   0.00000  Uiso   1.00
H99    H     0.54060   0.00265   0.21711   0.00000  Uiso   1.00
H100   H     0.56481   0.08019   0.46542   0.00000  Uiso   1.00
H101   H     0.53881   0.12123   0.42992   0.00000  Uiso   1.00
H102   H     0.34368   0.20210   0.18846   0.00000  Uiso   1.00
H103   H     0.43094   0.01906   0.30490   0.00000  Uiso   1.00
H104   H     0.51047   0.20926   0.11942   0.00000  Uiso   1.00
H105   H     0.56812   0.08945   0.12748   0.00000  Uiso   1.00
H106   H     0.42939   0.15425   0.08823   0.00000  Uiso   1.00
O107   O     0.50000   0.16667   0.25000   0.00000  Uiso   1.00
O108   O     0.49027   0.12393   0.16625   0.00000  Uiso   1.00
O109   O     0.46020   0.20646   0.33749   0.00000  Uiso   1.00
O110   O     0.54421   0.17493   0.15877   0.00000  Uiso   1.00
O111   O     0.50532   0.16135   0.33749   0.00000  Uiso   1.00
O112   O     0.35834   0.19237   0.20560   0.00000  Uiso   1.00
O113   O     0.44830   0.32942   0.29072   0.00000  Uiso   1.00
O114   O     0.50003   0.19879   0.09618   0.00000  Uiso   1.00
O115   O     0.56921   0.07665   0.10048   0.00000  Uiso   1.00
O116   O     0.42703   0.18208   0.08149   0.00000  Uiso   1.00
O117   O     0.51182   0.08101   0.27820   0.00000  Uiso   1.00
O118   O     0.47914   0.26136   0.26767   0.00000  Uiso   1.00
O119   O     0.40785   0.13251   0.23607   0.00000  Uiso   1.00
O120   O     0.60119   0.19179   0.21806   0.00000  Uiso   1.00
O121   O     0.40323   0.18960   0.27820   0.00000  Uiso   1.00
O122   O     0.58773   0.15277   0.26767   0.00000  Uiso   1.00
O123   O     0.47133   0.06903   0.23607   0.00000  Uiso   1.00
O124   O     0.53771   0.25527   0.21806   0.00000  Uiso   1.00
Zn125  Zn    0.52577   0.14090   0.28277   0.00000  Uiso   1.00
Zn126  Zn    0.46792   0.12378   0.22257   0.00000  Uiso   1.00
Zn127  Zn    0.54500   0.19664   0.21188   0.00000  Uiso   1.00
Zn128  Zn    0.46131   0.20535   0.28277   0.00000  Uiso   1.00
C129   C     0.71922   0.15988   0.25905   0.00000  Uiso   1.00
C130   C     0.85940   0.12554   0.46135   0.00000  Uiso   1.00
C131   C     0.87633   0.10272   0.48188   0.00000  Uiso   1.00
C132   C     0.94780   0.17332   0.24100   0.00000  Uiso   1.00
C133   C     0.86847   0.11132   0.02244   0.00000  Uiso   1.00
C134   C     0.84286   0.14351   0.04278   0.00000  Uiso   1.00
C135   C     0.88813   0.08978   0.04242   0.00000  Uiso   1.00
C136   C     0.88423   0.10071   0.08225   0.00000  Uiso   1.00
C137   C     0.84560   0.15947   0.08099   0.00000  Uiso   1.00
C138   C     0.99427   0.17467   0.23647   0.00000  Uiso   1.00
C139   C     0.67401   0.15819   0.26274   0.00000  Uiso   1.00
C140   C     0.78073   0.22945   0.42048   0.00000  Uiso   1.00
C141   C     0.84665   0.32212   0.23898   0.00000  Uiso   1.00
C142   C     0.81715   0.01252   0.26288   0.00000  Uiso   1.00
C143   C     0.82299   0.05630   0.25855   0.00000  Uiso   1.00
C144   C     0.84330   0.27764   0.24152   0.00000  Uiso   1.00
C145   C     0.85451   0.14557   0.14414   0.00000  Uiso   1.00
C146   C     0.81182   0.18753   0.35622   0.00000  Uiso   1.00
C147   C     0.80196   0.19517   0.39942   0.00000  Uiso   1.00
C148   C     0.86324   0.13613   0.10164   0.00000  Uiso   1.00
C149   C     0.77044   0.23492   0.46138   0.00000  Uiso   1.00
C150   C     0.81377   0.16726   0.41984   0.00000  Uiso   1.00
C151   C     0.80941   0.17593   0.46052   0.00000  Uiso   1.00
C152   C     0.78419   0.20817   0.48157   0.00000  Uiso   1.00
C153   C     0.82869   0.15350   0.48110   0.00000  Uiso   1.00
C154   C     0.81850   0.16092   0.02285   0.00000  Uiso   1.00
C155   C     0.78404   0.18527   0.04293   0.00000  Uiso   1.00
C156   C     0.77065   0.21146   0.02254   0.00000  Uiso   1.00
F157   F     0.91107   0.05763   0.02325   0.00000  Uiso   1.00
F158   F     0.97942   0.14189   0.29486   0.00000  Uiso   1.00
F159   F     0.74743   0.26674   0.48124   0.00000  Uiso   1.00
F160   F     0.76862   0.25693   0.40174   0.00000  Uiso   1.00
F161   F     0.82431   0.12957   0.40061   0.00000  Uiso   1.00
H162   H     0.74709   0.23246   0.03886   0.00000  Uiso   1.00
H163   H     0.87394   0.00265   0.21711   0.00000  Uiso   1.00
H164   H     0.89815   0.08019   0.46542   0.00000  Uiso   1.00
H165   H     0.87214   0.12123   0.42992   0.00000  Uiso   1.00
H166   H     0.67702   0.20210   0.18846   0.00000  Uiso   1.00
H167   H     0.76427   0.01906   0.30490   0.00000  Uiso   1.00
H168   H     0.84381   0.20926   0.11942   0.00000  Uiso   1.00
H169   H     0.90145   0.08945   0.12748   0.00000  Uiso   1.00
H170   H     0.76272   0.15425   0.08823   0.00000  Uiso   1.00
O171   O     0.83333   0.16667   0.25000   0.00000  Uiso   1.00
O172   O     0.82360   0.12393   0.16625   0.00000  Uiso   1.00
O173   O     0.79354   0.20646   0.33749   0.00000  Uiso   1.00
O174   O     0.87755   0.17493   0.15877   0.00000  Uiso   1.00
O175   O     0.83865   0.16135   0.33749   0.00000  Uiso   1.00
O176   O     0.69167   0.19237   0.20560   0.00000  Uiso   1.00
O177   O     0.78163   0.32942   0.29072   0.00000  Uiso   1.00
O178   O     0.83336   0.19879   0.09618   0.00000  Uiso   1.00
O179   O     0.90254   0.07665   0.10048   0.00000  Uiso   1.00
O180   O     0.76037   0.18208   0.08149   0.00000  Uiso   1.00
O181   O     0.84515   0.08101   0.27820   0.00000  Uiso   1.00
O182   O     0.81247   0.26136   0.26767   0.00000  Uiso   1.00
O183   O     0.74119   0.13251   0.23607   0.00000  Uiso   1.00
O184   O     0.93452   0.19179   0.21806   0.00000  Uiso   1.00
O185   O     0.73656   0.18960   0.27820   0.00000  Uiso   1.00
O186   O     0.92106   0.15277   0.26767   0.00000  Uiso   1.00
O187   O     0.80467   0.06903   0.23607   0.00000  Uiso   1.00
O188   O     0.87104   0.25527   0.21806   0.00000  Uiso   1.00
Zn189  Zn    0.85910   0.14090   0.28277   0.00000  Uiso   1.00
Zn190  Zn    0.80125   0.12378   0.22257   0.00000  Uiso   1.00
Zn191  Zn    0.87833   0.19664   0.21188   0.00000  Uiso   1.00
Zn192  Zn    0.79465   0.20535   0.28277   0.00000  Uiso   1.00
C193   C     0.05256   0.49322   0.25905   0.00000  Uiso   1.00
C194   C     0.19273   0.45888   0.46135   0.00000  Uiso   1.00
C195   C     0.20966   0.43605   0.48188   0.00000  Uiso   1.00
C196   C     0.28114   0.50665   0.24100   0.00000  Uiso   1.00
C197   C     0.20180   0.44466   0.02244   0.00000  Uiso   1.00
C198   C     0.17619   0.47684   0.04278   0.00000  Uiso   1.00
C199   C     0.22146   0.42311   0.04242   0.00000  Uiso   1.00
C200   C     0.21756   0.43404   0.08225   0.00000  Uiso   1.00
C201   C     0.17893   0.49280   0.08099   0.00000  Uiso   1.00
C202   C     0.32761   0.50800   0.23647   0.00000  Uiso   1.00
C203   C     0.00734   0.49153   0.26274   0.00000  Uiso   1.00
C204   C     0.11406   0.56278   0.42048   0.00000  Uiso   1.00
C205   C     0.17999   0.65546   0.23898   0.00000  Uiso   1.00
C206   C     0.15048   0.34585   0.26288   0.00000  Uiso   1.00
C207   C     0.15632   0.38963   0.25855   0.00000  Uiso   1.00
C208   C     0.17664   0.61097   0.24152   0.00000  Uiso   1.00
C209   C     0.18784   0.47890   0.14414   0.00000  Uiso   1.00
C210   C     0.14515   0.52086   0.35622   0.00000  Uiso   1.00
C211   C     0.13529   0.52851   0.39942   0.00000  Uiso   1.00
C212   C     0.19657   0.46946   0.10164   0.00000  Uiso   1.00
C213   C     0.10377   0.56826   0.46138   0.00000  Uiso   1.00
C214   C     0.14710   0.50060   0.41984   0.00000  Uiso   1.00
C215   C     0.14274   0.50926   0.46052   0.00000  Uiso   1.00
C216   C     0.11753   0.54150   0.48157   0.00000  Uiso   1.00
C217   C     0.16202   0.48684   0.48110   0.00000  Uiso   1.00
C218   C     0.15183   0.49425   0.02285   0.00000  Uiso   1.00
C219   C     0.11737   0.51861   0.04293   0.00000  Uiso   1.00
C220   C     0.10399   0.54480   0.02254   0.00000  Uiso   1.00
F221   F     0.24440   0.39097   0.02325   0.00000  Uiso   1.00
F222   F     0.31275   0.47522   0.29486   0.00000  Uiso   1.00
F223   F     0.08076   0.60008   0.48124   0.00000  Uiso   1.00
F224   F     0.10196   0.59026   0.40174   0.00000  Uiso   1.00
F225   F     0.15765   0.46290   0.40061   0.00000  Uiso   1.00
H226   H     0.08042   0.56580   0.03886   0.00000  Uiso   1.00
H227   H     0.20727   0.33599   0.21711   0.00000  Uiso   1.00
H228   H     0.23148   0.41352   0.46542   0.00000  Uiso   1.00
H229   H     0.20547   0.45456   0.42992   0.00000  Uiso   1.00
H230   H     0.01035   0.53544   0.18846   0.00000  Uiso   1.00
H231   H     0.09760   0.35240   0.30490   0.00000  Uiso   1.00
H232   H     0.17714   0.54260   0.11942   0.00000  Uiso   1.00
H233   H     0.23478   0.42278   0.12748   0.00000  Uiso   1.00
H234   H     0.09606   0.48758   0.08823   0.00000  Uiso   1.00
O235   O     0.16667   0.50000   0.25000   0.00000  Uiso   1.00
O236   O     0.15693   0.45726   0.16625   0.00000  Uiso   1.00
O237   O     0.12687   0.53979   0.33749   0.00000  Uiso   1.00
O238   O     0.21088   0.50826   0.15877   0.00000  Uiso   1.00
O239   O     0.17198   0.49468   0.33749   0.00000  Uiso   1.00
O240   O     0.02501   0.52570   0.20560   0.00000  Uiso   1.00
O241   O     0.11497   0.66275   0.29072   0.00000  Uiso   1.00
O242   O     0.16670   0.53213   0.09618   0.00000  Uiso   1.00
O243   O     0.23588   0.40999   0.10048   0.00000  Uiso   1.00
O244   O     0.09370   0.51542   0.08149   0.00000  Uiso   1.00
O245   O     0.17849   0.41434   0.27820   0.00000  Uiso   1.00
O246   O     0.14581   0.59469   0.26767   0.00000  Uiso   1.00
O247   O     0.07452   0.46584   0.23607   0.00000  Uiso   1.00
O248   O     0.26785   0.52512   0.21806   0.00000  Uiso   1.00
O249   O     0.06990   0.52293   0.27820   0.00000  Uiso   1.00
O250   O     0.25440   0.48610   0.26767   0.00000  Uiso   1.00
O251   O     0.13800   0.40236   0.23607   0.00000  Uiso   1.00
O252   O     0.20437   0.58860   0.21806   0.00000  Uiso   1.00
Zn253  Zn    0.19244   0.47423   0.28277   0.00000  Uiso   1.00
Zn254  Zn    0.13459   0.45711   0.22257   0.00000  Uiso   1.00
Zn255  Zn    0.21166   0.52997   0.21188   0.00000  Uiso   1.00
Zn256  Zn    0.12798   0.53868   0.28277   0.00000  Uiso   1.00
C257   C     0.38589   0.49322   0.25905   0.00000  Uiso   1.00
C258   C     0.52606   0.45888   0.46135   0.00000  Uiso   1.00
C259   C     0.54299   0.43605   0.48188   0.00000  Uiso   1.00
C260   C     0.61447   0.50665   0.24100   0.00000  Uiso   1.00
C261   C     0.53514   0.44466   0.02244   0.00000  Uiso   1.00
C262   C     0.50952   0.47684   0.04278   0.00000  Uiso   1.00
C263   C     0.55479   0.42311   0.04242   0.00000  Uiso   1.00
C264   C     0.55089   0.43404   0.08225   0.00000  Uiso   1.00
C265   C     0.51227   0.49280   0.08099   0.00000  Uiso   1.00
C266   C     0.66094   0.50800   0.23647   0.00000  Uiso   1.00
C267   C     0.34068   0.49153   0.26274   0.00000  Uiso   1.00
C268   C     0.44739   0.56278   0.42048   0.00000  Uiso   1.00
C269   C     0.51332   0.65546   0.23898   0.00000  Uiso   1.00
C270   C     0.48381   0.34585   0.26288   0.00000  Uiso   1.00
C271   C     0.48965   0.38963   0.25855   0.00000  Uiso   1.00
C272   C     0.50997   0.61097   0.24152   0.00000  Uiso   1.00
C273   C     0.52118   0.47890   0.14414   0.00000  Uiso   1.00
C274   C     0.47848   0.52086   0.35622   0.00000  Uiso   1.00
C275   C     0.46863   0.52851   0.39942   0.00000  Uiso   1.00
C276   C     0.52991   0.46946   0.10164   0.00000  Uiso   1.00
C277   C     0.43711   0.56826   0.46138   0.00000  Uiso   1.00
C278   C     0.48043   0.50060   0.41984   0.00000  Uiso   1.00
C279   C     0.47608   0.50926   0.46052   0.00000  Uiso   1.00
C280   C     0.45086   0.54150   0.48157   0.00000  Uiso   1.00
C281   C     0.49535   0.48684   0.48110   0.00000  Uiso   1.00
C282   C     0.48516   0.49425   0.02285   0.00000  Uiso   1.00
C283   C     0.45071   0.51861   0.04293   0.00000  Uiso   1.00
C284   C     0.43732   0.54480   0.02254   0.00000  Uiso   1.00
F285   F     0.57773   0.39097   0.02325   0.00000  Uiso   1.00
F286   F     0.64609   0.47522   0.29486   0.00000  Uiso   1.00
F287   F     0.41409   0.60008   0.48124   0.00000  Uiso   1.00
F288   F     0.43529   0.59026   0.40174   0.00000  Uiso   1.00
F289   F     0.49098   0.46290   0.40061   0.00000  Uiso   1.00
H290   H     0.41376   0.56580   0.03886   0.00000  Uiso   1.00
H291   H     0.54060   0.33599   0.21711   0.00000  Uiso   1.00
H292   H     0.56481   0.41352   0.46542   0.00000  Uiso   1.00
H293   H     0.53881   0.45456   0.42992   0.00000  Uiso   1.00
H294   H     0.34368   0.53544   0.18846   0.00000  Uiso   1.00
H295   H     0.43094   0.35240   0.30490   0.00000  Uiso   1.00
H296   H     0.51047   0.54260   0.11942   0.00000  Uiso   1.00
H297   H     0.56812   0.42278   0.12748   0.00000  Uiso   1.00
H298   H     0.42939   0.48758   0.08823   0.00000  Uiso   1.00
O299   O     0.50000   0.50000   0.25000   0.00000  Uiso   1.00
O300   O     0.49027   0.45726   0.16625   0.00000  Uiso   1.00
O301   O     0.46020   0.53979   0.33749   0.00000  Uiso   1.00
O302   O     0.54421   0.50826   0.15877   0.00000  Uiso   1.00
O303   O     0.50532   0.49468   0.33749   0.00000  Uiso   1.00
O304   O     0.35834   0.52570   0.20560   0.00000  Uiso   1.00
O305   O     0.44830   0.66275   0.29072   0.00000  Uiso   1.00
O306   O     0.50003   0.53213   0.09618   0.00000  Uiso   1.00
O307   O     0.56921   0.40999   0.10048   0.00000  Uiso   1.00
O308   O     0.42703   0.51542   0.08149   0.00000  Uiso   1.00
O309   O     0.51182   0.41434   0.27820   0.00000  Uiso   1.00
O310   O     0.47914   0.59469   0.26767   0.00000  Uiso   1.00
O311   O     0.40785   0.46584   0.23607   0.00000  Uiso   1.00
O312   O     0.60119   0.52512   0.21806   0.00000  Uiso   1.00
O313   O     0.40323   0.52293   0.27820   0.00000  Uiso   1.00
O314   O     0.58773   0.48610   0.26767   0.00000  Uiso   1.00
O315   O     0.47133   0.40236   0.23607   0.00000  Uiso   1.00
O316   O     0.53771   0.58860   0.21806   0.00000  Uiso   1.00
Zn317  Zn    0.52577   0.47423   0.28277   0.00000  Uiso   1.00
Zn318  Zn    0.46792   0.45711   0.22257   0.00000  Uiso   1.00
Zn319  Zn    0.54500   0.52997   0.21188   0.00000  Uiso   1.00
Zn320  Zn    0.46131   0.53868   0.28277   0.00000  Uiso   1.00
C321   C     0.71922   0.49322   0.25905   0.00000  Uiso   1.00
C322   C     0.85940   0.45888   0.46135   0.00000  Uiso   1.00
C323   C     0.87633   0.43605   0.48188   0.00000  Uiso   1.00
C324   C     0.94780   0.50665   0.24100   0.00000  Uiso   1.00
C325   C     0.86847   0.44466   0.02244   0.00000  Uiso   1.00
C326   C     0.84286   0.47684   0.04278   0.00000  Uiso   1.00
C327   C     0.88813   0.42311   0.04242   0.00000  Uiso   1.00
C328   C     0.88423   0.43404   0.08225   0.00000  Uiso   1.00
C329   C     0.84560   0.49280   0.08099   0.00000  Uiso   1.00
C330   C     0.99427   0.50800   0.23647   0.00000  Uiso   1.00
C331   C     0.67401   0.49153   0.26274   0.00000  Uiso   1.00
C332   C     0.78073   0.56278   0.42048   0.00000  Uiso   1.00
C333   C     0.84665   0.65546   0.23898   0.00000  Uiso   1.00
C334   C     0.81715   0.34585   0.26288   0.00000  Uiso   1.00
C335   C     0.82299   0.38963   0.25855   0.00000  Uiso   1.00
C336   C     0.84330   0.61097   0.24152   0.00000  Uiso   1.00
C337   C     0.85451   0.47890   0.14414   0.00000  Uiso   1.00
C338   C     0.81182   0.52086   0.35622   0.00000  Uiso   1.00
C339   C     0.80196   0.52851   0.39942   0.00000  Uiso   1.00
C340   C     0.86324   0.46946   0.10164   0.00000  Uiso   1.00
C341   C     0.77044   0.56826   0.46138   0.00000  Uiso   1.00
C342   C     0.81377   0.50060   0.41984   0.00000  Uiso   1.00
C343   C     0.80941   0.50926   0.46052   0.00000  Uiso   1.00
C344   C     0.78419   0.54150   0.48157   0.00000  Uiso   1.00
C345   C     0.82869   0.48684   0.48110   0.00000  Uiso   1.00
C346   C     0.81850   0.49425   0.02285   0.00000  Uiso   1.00
C347   C     0.78404   0.51861   0.04293   0.00000  Uiso   1.00
C348   C     0.77065   0.54480   0.02254   0.00000  Uiso   1.00
F349   F     0.91107   0.39097   0.02325   0.00000  Uiso   1.00
F350   F     0.97942   0.47522   0.29486   0.00000  Uiso   1.00
F351   F     0.74743   0.60008   0.48124   0.00000  Uiso   1.00
F352   F     0.76862   0.59026   0.40174   0.00000  Uiso   1.00
F353   F     0.82431   0.46290   0.40061   0.00000  Uiso   1.00
H354   H     0.74709   0.56580   0.03886   0.00000  Uiso   1.00
H355   H     0.87394   0.33599   0.21711   0.00000  Uiso   1.00
H356   H     0.89815   0.41352   0.46542   0.00000  Uiso   1.00
H357   H     0.87214   0.45456   0.42992   0.00000  Uiso   1.00
H358   H     0.67702   0.53544   0.18846   0.00000  Uiso   1.00
H359   H     0.76427   0.35240   0.30490   0.00000  Uiso   1.00
H360   H     0.84381   0.54260   0.11942   0.00000  Uiso   1.00
H361   H     0.90145   0.42278   0.12748   0.00000  Uiso   1.00
H362   H     0.76272   0.48758   0.08823   0.00000  Uiso   1.00
O363   O     0.83333   0.50000   0.25000   0.00000  Uiso   1.00
O364   O     0.82360   0.45726   0.16625   0.00000  Uiso   1.00
O365   O     0.79354   0.53979   0.33749   0.00000  Uiso   1.00
O366   O     0.87755   0.50826   0.15877   0.00000  Uiso   1.00
O367   O     0.83865   0.49468   0.33749   0.00000  Uiso   1.00
O368   O     0.69167   0.52570   0.20560   0.00000  Uiso   1.00
O369   O     0.78163   0.66275   0.29072   0.00000  Uiso   1.00
O370   O     0.83336   0.53213   0.09618   0.00000  Uiso   1.00
O371   O     0.90254   0.40999   0.10048   0.00000  Uiso   1.00
O372   O     0.76037   0.51542   0.08149   0.00000  Uiso   1.00
O373   O     0.84515   0.41434   0.27820   0.00000  Uiso   1.00
O374   O     0.81247   0.59469   0.26767   0.00000  Uiso   1.00
O375   O     0.74119   0.46584   0.23607   0.00000  Uiso   1.00
O376   O     0.93452   0.52512   0.21806   0.00000  Uiso   1.00
O377   O     0.73656   0.52293   0.27820   0.00000  Uiso   1.00
O378   O     0.92106   0.48610   0.26767   0.00000  Uiso   1.00
O379   O     0.80467   0.40236   0.23607   0.00000  Uiso   1.00
O380   O     0.87104   0.58860   0.21806   0.00000  Uiso   1.00
Zn381  Zn    0.85910   0.47423   0.28277   0.00000  Uiso   1.00
Zn382  Zn    0.80125   0.45711   0.22257   0.00000  Uiso   1.00
Zn383  Zn    0.87833   0.52997   0.21188   0.00000  Uiso   1.00
Zn384  Zn    0.79465   0.53868   0.28277   0.00000  Uiso   1.00
C385   C     0.05256   0.82655   0.25905   0.00000  Uiso   1.00
C386   C     0.19273   0.79221   0.46135   0.00000  Uiso   1.00
C387   C     0.20966   0.76939   0.48188   0.00000  Uiso   1.00
C388   C     0.28114   0.83999   0.24100   0.00000  Uiso   1.00
C389   C     0.20180   0.77799   0.02244   0.00000  Uiso   1.00
C390   C     0.17619   0.81018   0.04278   0.00000  Uiso   1.00
C391   C     0.22146   0.75644   0.04242   0.00000  Uiso   1.00
C392   C     0.21756   0.76738   0.08225   0.00000  Uiso   1.00
C393   C     0.17893   0.82614   0.08099   0.00000  Uiso   1.00
C394   C     0.32761   0.84133   0.23647   0.00000  Uiso   1.00
C395   C     0.00734   0.82486   0.26274   0.00000  Uiso   1.00
C396   C     0.11406   0.89611   0.42048   0.00000  Uiso   1.00
C397   C     0.17999   0.98879   0.23898   0.00000  Uiso   1.00
C398   C     0.15048   0.67918   0.26288   0.00000  Uiso   1.00
C399   C     0.15632   0.72297   0.25855   0.00000  Uiso   1.00
C400   C     0.17664   0.94430   0.24152   0.00000  Uiso   1.00
C401   C     0.18784   0.81223   0.14414   0.00000  Uiso   1.00
C402   C     0.14515   0.85420   0.35622   0.00000  Uiso   1.00
C403   C     0.13529   0.86184   0.39942   0.00000  Uiso   1.00
C404   C     0.19657   0.80279   0.10164   0.00000  Uiso   1.00
C405   C     0.10377   0.90159   0.46138   0.00000  Uiso   1.00
C406   C     0.14710   0.83393   0.41984   0.00000  Uiso   1.00
C407   C     0.14274   0.84259   0.46052   0.00000  Uiso   1.00
C408   C     0.11753   0.87483   0.48157   0.00000  Uiso   1.00
C409   C     0.16202   0.82017   0.48110   0.00000  Uiso   1.00
C410   C     0.15183   0.82758   0.02285   0.00000  Uiso   1.00
C411   C     0.11737   0.85194   0.04293   0.00000  Uiso   1.00
C412   C     0.10399   0.87813   0.02254   0.00000  Uiso   1.00
F413   F     0.24440   0.72430   0.02325   0.00000  Uiso   1.00
F414   F     0.31275   0.80855   0.29486   0.00000  Uiso   1.00
F415   F     0.08076   0.93341   0.48124   0.00000  Uiso   1.00
F416   F     0.10196   0.92359   0.40174   0.00000  Uiso   1.00
F417   F     0.15765   0.79623   0.40061   0.00000  Uiso   1.00
H418   H     0.08042   0.89913   0.03886   0.00000  Uiso   1.00
H419   H     0.20727   0.66932   0.21711   0.00000  Uiso   1.00
H420   H     0.23148   0.74685   0.46542   0.00000  Uiso   1.00
H421   H     0.20547   0.78789   0.42992   0.00000  Uiso   1.00
H422   H     0.01035   0.86877   0.18846   0.00000  Uiso   1.00
H423   H     0.09760   0.68573   0.30490   0.00000  Uiso   1.00
H424   H     0.17714   0.87593   0.11942   0.00000  Uiso   1.00
H425   H     0.23478   0.75611   0.12748   0.00000  Uiso   1.00
H426   H     0.09606   0.82092   0.08823   0.00000  Uiso   1.00
O427   O     0.16667   0.83333   0.25000   0.00000  Uiso   1.00
O428   O     0.15693   0.79060   0.16625   0.00000  Uiso   1.00
O429   O     0.12687   0.87313   0.33749   0.00000  Uiso   1.00
O430   O     0.21088   0.84159   0.15877   0.00000  Uiso   1.00
O431   O     0.17198   0.82802   0.33749   0.00000  Uiso   1.00
O432   O     0.02501   0.85903   0.20560   0.00000  Uiso   1.00
O433   O     0.11497   0.99608   0.29072   0.00000  Uiso   1.00
O434   O     0.16670   0.86546   0.09618   0.00000  Uiso   1.00
O435   O     0.23588   0.74332   0.10048   0.00000  Uiso   1.00
O436   O     0.09370   0.84875   0.08149   0.00000  Uiso   1.00
O437   O     0.17849   0.74768   0.27820   0.00000  Uiso   1.00
O438   O     0.14581   0.92803   0.26767   0.00000  Uiso   1.00
O439   O     0.07452   0.79917   0.23607   0.00000  Uiso   1.00
O440   O     0.26785   0.85845   0.21806   0.00000  Uiso   1.00
O441   O     0.06990   0.85627   0.27820   0.00000  Uiso   1.00
O442   O     0.25440   0.81944   0.26767   0.00000  Uiso   1.00
O443   O     0.13800   0.73570   0.23607   0.00000  Uiso   1.00
O444   O     0.20437   0.92193   0.21806   0.00000  Uiso   1.00
Zn445  Zn    0.19244   0.80756   0.28277   0.00000  Uiso   1.00
Zn446  Zn    0.13459   0.79044   0.22257   0.00000  Uiso   1.00
Zn447  Zn    0.21166   0.86331   0.21188   0.00000  Uiso   1.00
Zn448  Zn    0.12798   0.87202   0.28277   0.00000  Uiso   1.00
C449   C     0.38589   0.82655   0.25905   0.00000  Uiso   1.00
C450   C     0.52606   0.79221   0.46135   0.00000  Uiso   1.00
C451   C     0.54299   0.76939   0.48188   0.00000  Uiso   1.00
C452   C     0.61447   0.83999   0.24100   0.00000  Uiso   1.00
C453   C     0.53514   0.77799   0.02244   0.00000  Uiso   1.00
C454   C     0.50952   0.81018   0.04278   0.00000  Uiso   1.00
C455   C     0.55479   0.75644   0.04242   0.00000  Uiso   1.00
C456   C     0.55089   0.76738   0.08225   0.00000  Uiso   1.00
C457   C     0.51227   0.82614   0.08099   0.00000  Uiso   1.00
C458   C     0.66094   0.84133   0.23647   0.00000  Uiso   1.00
C459   C     0.34068   0.82486   0.26274   0.00000  Uiso   1.00
C460   C     0.44739   0.89611   0.42048   0.00000  Uiso   1.00
C461   C     0.51332   0.98879   0.23898   0.00000  Uiso   1.00
C462   C     0.48381   0.67918   0.26288   0.00000  Uiso   1.00
C463   C     0.48965   0.72297   0.25855   0.00000  Uiso   1.00
C464   C     0.50997   0.94430   0.24152   0.00000  Uiso   1.00
C465   C     0.52118   0.81223   0.14414   0.00000  Uiso   1.00
C466   C     0.47848   0.85420   0.35622   0.00000  Uiso   1.00
C467   C     0.46863   0.86184   0.39942   0.00000  Uiso   1.00
C468   C     0.52991   0.80279   0.10164   0.00000  Uiso   1.00
C469   C     0.43711   0.90159   0.46138   0.00000  Uiso   1.00
C470   C     0.48043   0.83393   0.41984   0.00000  Uiso   1.00
C471   C     0.47608   0.84259   0.46052   0.00000  Uiso   1.00
C472   C     0.45086   0.87483   0.48157   0.00000  Uiso   1.00
C473   C     0.49535   0.82017   0.48110   0.00000  Uiso   1.00
C474   C     0.48516   0.82758   0.02285   0.00000  Uiso   1.00
C475   C     0.45071   0.85194   0.04293   0.00000  Uiso   1.00
C476   C     0.43732   0.87813   0.02254   0.00000  Uiso   1.00
F477   F     0.57773   0.72430   0.02325   0.00000  Uiso   1.00
F478   F     0.64609   0.80855   0.29486   0.00000  Uiso   1.00
F479   F     0.41409   0.93341   0.48124   0.00000  Uiso   1.00
F480   F     0.43529   0.92359   0.40174   0.00000  Uiso   1.00
F481   F     0.49098   0.79623   0.40061   0.00000  Uiso   1.00
H482   H     0.41376   0.89913   0.03886   0.00000  Uiso   1.00
H483   H     0.54060   0.66932   0.21711   0.00000  Uiso   1.00
H484   H     0.56481   0.74685   0.46542   0.00000  Uiso   1.00
H485   H     0.53881   0.78789   0.42992   0.00000  Uiso   1.00
H486   H     0.34368   0.86877   0.18846   0.00000  Uiso   1.00
H487   H     0.43094   0.68573   0.30490   0.00000  Uiso   1.00
H488   H     0.51047   0.87593   0.11942   0.00000  Uiso   1.00
H489   H     0.56812   0.75611   0.12748   0.00000  Uiso   1.00
H490   H     0.42939   0.82092   0.08823   0.00000  Uiso   1.00
O491   O     0.50000   0.83333   0.25000   0.00000  Uiso   1.00
O492   O     0.49027   0.79060   0.16625   0.00000  Uiso   1.00
O493   O     0.46020   0.87313   0.33749   0.00000  Uiso   1.00
O494   O     0.54421   0.84159   0.15877   0.00000  Uiso   1.00
O495   O     0.50532   0.82802   0.33749   0.00000  Uiso   1.00
O496   O     0.35834   0.85903   0.20560   0.00000  Uiso   1.00
O497   O     0.44830   0.99608   0.29072   0.00000  Uiso   1.00
O498   O     0.50003   0.86546   0.09618   0.00000  Uiso   1.00
O499   O     0.56921   0.74332   0.10048   0.00000  Uiso   1.00
O500   O     0.42703   0.84875   0.08149   0.00000  Uiso   1.00
O501   O     0.51182   0.74768   0.27820   0.00000  Uiso   1.00
O502   O     0.47914   0.92803   0.26767   0.00000  Uiso   1.00
O503   O     0.40785   0.79917   0.23607   0.00000  Uiso   1.00
O504   O     0.60119   0.85845   0.21806   0.00000  Uiso   1.00
O505   O     0.40323   0.85627   0.27820   0.00000  Uiso   1.00
O506   O     0.58773   0.81944   0.26767   0.00000  Uiso   1.00
O507   O     0.47133   0.73570   0.23607   0.00000  Uiso   1.00
O508   O     0.53771   0.92193   0.21806   0.00000  Uiso   1.00
Zn509  Zn    0.52577   0.80756   0.28277   0.00000  Uiso   1.00
Zn510  Zn    0.46792   0.79044   0.22257   0.00000  Uiso   1.00
Zn511  Zn    0.54500   0.86331   0.21188   0.00000  Uiso   1.00
Zn512  Zn    0.46131   0.87202   0.28277   0.00000  Uiso   1.00
C513   C     0.71922   0.82655   0.25905   0.00000  Uiso   1.00
C514   C     0.85940   0.79221   0.46135   0.00000  Uiso   1.00
C515   C     0.87633   0.76939   0.48188   0.00000  Uiso   1.00
C516   C     0.94780   0.83999   0.24100   0.00000  Uiso   1.00
C517   C     0.86847   0.77799   0.02244   0.00000  Uiso   1.00
C518   C     0.84286   0.81018   0.04278   0.00000  Uiso   1.00
C519   C     0.88813   0.75644   0.04242   0.00000  Uiso   1.00
C520   C     0.88423   0.76738   0.08225   0.00000  Uiso   1.00
C521   C     0.84560   0.82614   0.08099   0.00000  Uiso   1.00
C522   C     0.99427   0.84133   0.23647   0.00000  Uiso   1.00
C523   C     0.67401   0.82486   0.26274   0.00000  Uiso   1.00
C524   C     0.78073   0.89611   0.42048   0.00000  Uiso   1.00
C525   C     0.84665   0.98879   0.23898   0.00000  Uiso   1.00
C526   C     0.81715   0.67918   0.26288   0.00000  Uiso   1.00
C527   C     0.82299   0.72297   0.25855   0.00000  Uiso   1.00
C528   C     0.84330   0.94430   0.24152   0.00000  Uiso   1.00
C529   C     0.85451   0.81223   0.14414   0.00000  Uiso   1.00
C530   C     0.81182   0.85420   0.35622   0.00000  Uiso   1.00
C531   C     0.80196   0.86184   0.39942   0.00000  Uiso   1.00
C532   C     0.86324   0.80279   0.10164   0.00000  Uiso   1.00
C533   C     0.77044   0.90159   0.46138   0.00000  Uiso   1.00
C534   C     0.81377   0.83393   0.41984   0.00000  Uiso   1.00
C535   C     0.80941   0.84259   0.46052   0.00000  Uiso   1.00
C536   C     0.78419   0.87483   0.48157   0.00000  Uiso   1.00
C537   C     0.82869   0.82017   0.48110   0.00000  Uiso   1.00
C538   C     0.81850   0.82758   0.02285   0.00000  Uiso   1.00
C539   C     0.78404   0.85194   0.04293   0.00000  Uiso   1.00
C540   C     0.77065   0.87813   0.02254   0.00000  Uiso   1.00
F541   F     0.91107   0.72430   0.02325   0.00000  Uiso   1.00
F542   F     0.97942   0.80855   0.29486   0.00000  Uiso   1.00
F543   F     0.74743   0.93341   0.48124   0.00000  Uiso   1.00
F544   F     0.76862   0.92359   0.40174   0.00000  Uiso   1.00
F545   F     0.82431   0.79623   0.40061   0.00000  Uiso   1.00
H546   H     0.74709   0.89913   0.03886   0.00000  Uiso   1.00
H547   H     0.87394   0.66932   0.21711   0.00000  Uiso   1.00
H548   H     0.89815   0.74685   0.46542   0.00000  Uiso   1.00
H549   H     0.87214   0.78789   0.42992   0.00000  Uiso   1.00
H550   H     0.67702   0.86877   0.18846   0.00000  Uiso   1.00
H551   H     0.76427   0.68573   0.30490   0.00000  Uiso   1.00
H552   H     0.84381   0.87593   0.11942   0.00000  Uiso   1.00
H553   H     0.90145   0.75611   0.12748   0.00000  Uiso   1.00
H554   H     0.76272   0.82092   0.08823   0.00000  Uiso   1.00
O555   O     0.83333   0.83333   0.25000   0.00000  Uiso   1.00
O556   O     0.82360   0.79060   0.16625   0.00000  Uiso   1.00
O557   O     0.79354   0.87313   0.33749   0.00000  Uiso   1.00
O558   O     0.87755   0.84159   0.15877   0.00000  Uiso   1.00
O559   O     0.83865   0.82802   0.33749   0.00000  Uiso   1.00
O560   O     0.69167   0.85903   0.20560   0.00000  Uiso   1.00
O561   O     0.78163   0.99608   0.29072   0.00000  Uiso   1.00
O562   O     0.83336   0.86546   0.09618   0.00000  Uiso   1.00
O563   O     0.90254   0.74332   0.10048   0.00000  Uiso   1.00
O564   O     0.76037   0.84875   0.08149   0.00000  Uiso   1.00
O565   O     0.84515   0.74768   0.27820   0.00000  Uiso   1.00
O566   O     0.81247   0.92803   0.26767   0.00000  Uiso   1.00
O567   O     0.74119   0.79917   0.23607   0.00000  Uiso   1.00
O568   O     0.93452   0.85845   0.21806   0.00000  Uiso   1.00
O569   O     0.73656   0.85627   0.27820   0.00000  Uiso   1.00
O570   O     0.92106   0.81944   0.26767   0.00000  Uiso   1.00
O571   O     0.80467   0.73570   0.23607   0.00000  Uiso   1.00
O572   O     0.87104   0.92193   0.21806   0.00000  Uiso   1.00
Zn573  Zn    0.85910   0.80756   0.28277   0.00000  Uiso   1.00
Zn574  Zn    0.80125   0.79044   0.22257   0.00000  Uiso   1.00
Zn575  Zn    0.87833   0.86331   0.21188   0.00000  Uiso   1.00
Zn576  Zn    0.79465   0.87202   0.28277   0.00000  Uiso   1.00
C577   C     0.05256   0.15988   0.75905   0.00000  Uiso   1.00
C578   C     0.19273   0.12554   0.96135   0.00000  Uiso   1.00
C579   C     0.20966   0.10272   0.98188   0.00000  Uiso   1.00
C580   C     0.28114   0.17332   0.74100   0.00000  Uiso   1.00
C581   C     0.20180   0.11132   0.52244   0.00000  Uiso   1.00
C582   C     0.17619   0.14351   0.54278   0.00000  Uiso   1.00
C583   C     0.22146   0.08978   0.54242   0.00000  Uiso   1.00
C584   C     0.21756   0.10071   0.58225   0.00000  Uiso   1.00
C585   C     0.17893   0.15947   0.58099   0.00000  Uiso   1.00
C586   C     0.32761   0.17467   0.73647   0.00000  Uiso   1.00
C587   C     0.00734   0.15819   0.76274   0.00000  Uiso   1.00
C588   C     0.11406   0.22945   0.92048   0.00000  Uiso   1.00
C589   C     0.17999   0.32212   0.73898   0.00000  Uiso   1.00
C590   C     0.15048   0.01252   0.76288   0.00000  Uiso   1.00
C591   C     0.15632   0.05630   0.75855   0.00000  Uiso   1.00
C592   C     0.17664   0.27764   0.74152   0.00000  Uiso   1.00
C593   C     0.18784   0.14557   0.64414   0.00000  Uiso   1.00
C594   C     0.14515   0.18753   0.85622   0.00000  Uiso   1.00
C595   C     0.13529   0.19517   0.89942   0.00000  Uiso   1.00
C596   C     0.19657   0.13613   0.60164   0.00000  Uiso   1.00
C597   C     0.10377   0.23492   0.96138   0.00000  Uiso   1.00
C598   C     0.14710   0.16726   0.91984   0.00000  Uiso   1.00
C599   C     0.14274   0.17593   0.96052   0.00000  Uiso   1.00
C600   C     0.11753   0.20817   0.98157   0.00000  Uiso   1.00
C601   C     0.16202   0.15350   0.98110   0.00000  Uiso   1.00
C602   C     0.15183   0.16092   0.52285   0.00000  Uiso   1.00
C603   C     0.11737   0.18527   0.54293   0.00000  Uiso   1.00
C604   C     0.10399   0.21146   0.52254   0.00000  Uiso   1.00
F605   F     0.24440   0.05763   0.52325   0.00000  Uiso   1.00
F606   F     0.31275   0.14189   0.79486   0.00000  Uiso   1.00
F607   F     0.08076   0.26674   0.98124   0.00000  Uiso   1.00
F608   F     0.10196   0.25693   0.90174   0.00000  Uiso   1.00
F609   F     0.15765   0.12957   0.90061   0.00000  Uiso   1.00
H610   H     0.08042   0.23246   0.53886   0.00000  Uiso   1.00
H611   H     0.20727   0.00265   0.71711   0.00000  Uiso   1.00
H612   H     0.23148   0.08019   0.96542   0.00000  Uiso   1.00
H613   H     0.20547   0.12123   0.92992   0.00000  Uiso   1.00
H614   H     0.01035   0.20210   0.68846   0.00000  Uiso   1.00
H615   H     0.09760   0.01906   0.80490   0.00000  Uiso   1.00
H616   H     0.17714   0.20926   0.61942   0.00000  Uiso   1.00
H617   H     0.23478   0.08945   0.62748   0.00000  Uiso   1.00
H618   H     0.09606   0.15425   0.58823   0.00000  Uiso   1.00
O619   O     0.16667   0.16667   0.75000   0.00000  Uiso   1.00
O620   O     0.15693   0.12393   0.66625   0.00000  Uiso   1.00
O621   O     0.12687   0.20646   0.83749   0.00000  Uiso   1.00
O622   O     0.21088   0.17493   0.65877   0.00000  Uiso   1.00
O623   O     0.17198   0.16135   0.83749   0.00000  Uiso   1.00
O624   O     0.02501   0.19237   0.70560   0.00000  Uiso   1.00
O625   O     0.11497   0.32942   0.79072   0.00000  Uiso   1.00
O626   O     0.16670   0.19879   0.59618   0.00000  Uiso   1.00
O627   O     0.23588   0.07665   0.60048   0.00000  Uiso   1.00
O628   O     0.09370   0.18208   0.58149   0.00000  Uiso   1.00
O629   O     0.17849   0.08101   0.77820   0.00000  Uiso   1.00
O630   O     0.14581   0.26136   0.76767   0.00000  Uiso   1.00
O631   O     0.07452   0.13251   0.73607   0.00000  Uiso   1.00
O632   O     0.26785   0.19179   0.71806   0.00000  Uiso   1.00
O633   O     0.06990   0.18960   0.77820   0.00000  Uiso   1.00
O634   O     0.25440   0.15277   0.76767   0.00000  Uiso   1.00
O635   O     0.13800   0.06903   0.73607   0.00000  Uiso   1.00
O636   O     0.20437   0.25527   0.71806   0.00000  Uiso   1.00
Zn637  Zn    0.19244   0.14090   0.78277   0.00000  Uiso   1.00
Zn638  Zn    0.13459   0.12378   0.72257   0.00000  Uiso   1.00
Zn639  Zn    0.21166   0.19664   0.71188   0.00000  Uiso   1.00
Zn640  Zn    0.12798   0.20535   0.78277   0.00000  Uiso   1.00
C641   C     0.38589   0.15988   0.75905   0.00000  Uiso   1.00
C642   C     0.52606   0.12554   0.96135   0.00000  Uiso   1.00
C643   C     0.54299   0.10272   0.98188   0.00000  Uiso   1.00
C644   C     0.61447   0.17332   0.74100   0.00000  Uiso   1.00
C645   C     0.53514   0.11132   0.52244   0.00000  Uiso   1.00
C646   C     0.50952   0.14351   0.54278   0.00000  Uiso   1.00
C647   C     0.55479   0.08978   0.54242   0.00000  Uiso   1.00
C648   C     0.55089   0.10071   0.58225   0.00000  Uiso   1.00
C649   C     0.51227   0.15947   0.58099   0.00000  Uiso   1.00
C650   C     0.66094   0.17467   0.73647   0.00000  Uiso   1.00
C651   C     0.34068   0.15819   0.76274   0.00000  Uiso   1.00
C652   C     0.44739   0.22945   0.92048   0.00000  Uiso   1.00
C653   C     0.51332   0.32212   0.73898   0.00000  Uiso   1.00
C654   C     0.48381   0.01252   0.76288   0.00000  Uiso   1.00
C655   C     0.48965   0.05630   0.75855   0.00000  Uiso   1.00
C656   C     0.50997   0.27764   0.74152   0.00000  Uiso   1.00
C657   C     0.52118   0.14557   0.64414   0.00000  Uiso   1.00
C658   C     0.47848   0.18753   0.85622   0.00000  Uiso   1.00
C659   C     0.46863   0.19517   0.89942   0.00000  Uiso   1.00
C660   C     0.52991   0.13613   0.60164   0.00000  Uiso   1.00
C661   C     0.43711   0.23492   0.96138   0.00000  Uiso   1.00
C662   C     0.48043   0.16726   0.91984   0.00000  Uiso   1.00
C663   C     0.47608   0.17593   0.96052   0.00000  Uiso   1.00
C664   C     0.45086   0.20817   0.98157   0.00000  Uiso   1.00
C665   C     0.49535   0.15350   0.98110   0.00000  Uiso   1.00
C666   C     0.48516   0.16092   0.52285   0.00000  Uiso   1.00
C667   C     0.45071   0.18527   0.54293   0.00000  Uiso   1.00
C668   C     0.43732   0.21146   0.52254   0.00000  Uiso   1.00
F669   F     0.57773   0.05763   0.52325   0.00000  Uiso   1.00
F670   F     0.64609   0.14189   0.79486   0.00000  Uiso   1.00
F671   F     0.41409   0.26674   0.98124   0.00000  Uiso   1.00
F672   F     0.43529   0.25693   0.90174   0.00000  Uiso   1.00
F673   F     0.49098   0.12957   0.90061   0.00000  Uiso   1.00
H674   H     0.41376   0.23246   0.53886   0.00000  Uiso   1.00
H675   H     0.54060   0.00265   0.71711   0.00000  Uiso   1.00
H676   H     0.56481   0.08019   0.96542   0.00000  Uiso   1.00
H677   H     0.53881   0.12123   0.92992   0.00000  Uiso   1.00
H678   H     0.34368   0.20210   0.68846   0.00000  Uiso   1.00
H679   H     0.43094   0.01906   0.80490   0.00000  Uiso   1.00
H680   H     0.51047   0.20926   0.61942   0.00000  Uiso   1.00
H681   H     0.56812   0.08945   0.62748   0.00000  Uiso   1.00
H682   H     0.42939   0.15425   0.58823   0.00000  Uiso   1.00
O683   O     0.50000   0.16667   0.75000   0.00000  Uiso   1.00
O684   O     0.49027   0.12393   0.66625   0.00000  Uiso   1.00
O685   O     0.46020   0.20646   0.83749   0.00000  Uiso   1.00
O686   O     0.54421   0.17493   0.65877   0.00000  Uiso   1.00
O687   O     0.50532   0.16135   0.83749   0.00000  Uiso   1.00
O688   O     0.35834   0.19237   0.70560   0.00000  Uiso   1.00
O689   O     0.44830   0.32942   0.79072   0.00000  Uiso   1.00
O690   O     0.50003   0.19879   0.59618   0.00000  Uiso   1.00
O691   O     0.56921   0.07665   0.60048   0.00000  Uiso   1.00
O692   O     0.42703   0.18208   0.58149   0.00000  Uiso   1.00
O693   O     0.51182   0.08101   0.77820   0.00000  Uiso   1.00
O694   O     0.47914   0.26136   0.76767   0.00000  Uiso   1.00
O695   O     0.40785   0.13251   0.73607   0.00000  Uiso   1.00
O696   O     0.60119   0.19179   0.71806   0.00000  Uiso   1.00
O697   O     0.40323   0.18960   0.77820   0.00000  Uiso   1.00
O698   O     0.58773   0.15277   0.76767   0.00000  Uiso   1.00
O699   O     0.47133   0.06903   0.73607   0.00000  Uiso   1.00
O700   O     0.53771   0.25527   0.71806   0.00000  Uiso   1.00
Zn701  Zn    0.52577   0.14090   0.78277   0.00000  Uiso   1.00
Zn702  Zn    0.46792   0.12378   0.72257   0.00000  Uiso   1.00
Zn703  Zn    0.54500   0.19664   0.71188   0.00000  Uiso   1.00
Zn704  Zn    0.46131   0.20535   0.78277   0.00000  Uiso   1.00
C705   C     0.71922   0.15988   0.75905   0.00000  Uiso   1.00
C706   C     0.85940   0.12554   0.96135   0.00000  Uiso   1.00
C707   C     0.87633   0.10272   0.98188   0.00000  Uiso   1.00
C708   C     0.94780   0.17332   0.74100   0.00000  Uiso   1.00
C709   C     0.86847   0.11132   0.52244   0.00000  Uiso   1.00
C710   C     0.84286   0.14351   0.54278   0.00000  Uiso   1.00
C711   C     0.88813   0.08978   0.54242   0.00000  Uiso   1.00
C712   C     0.88423   0.10071   0.58225   0.00000  Uiso   1.00
C713   C     0.84560   0.15947   0.58099   0.00000  Uiso   1.00
C714   C     0.99427   0.17467   0.73647   0.00000  Uiso   1.00
C715   C     0.67401   0.15819   0.76274   0.00000  Uiso   1.00
C716   C     0.78073   0.22945   0.92048   0.00000  Uiso   1.00
C717   C     0.84665   0.32212   0.73898   0.00000  Uiso   1.00
C718   C     0.81715   0.01252   0.76288   0.00000  Uiso   1.00
C719   C     0.82299   0.05630   0.75855   0.00000  Uiso   1.00
C720   C     0.84330   0.27764   0.74152   0.00000  Uiso   1.00
C721   C     0.85451   0.14557   0.64414   0.00000  Uiso   1.00
C722   C     0.81182   0.18753   0.85622   0.00000  Uiso   1.00
C723   C     0.80196   0.19517   0.89942   0.00000  Uiso   1.00
C724   C     0.86324   0.13613   0.60164   0.00000  Uiso   1.00
C725   C     0.77044   0.23492   0.96138   0.00000  Uiso   1.00
C726   C     0.81377   0.16726   0.91984   0.00000  Uiso   1.00
C727   C     0.80941   0.17593   0.96052   0.00000  Uiso   1.00
C728   C     0.78419   0.20817   0.98157   0.00000  Uiso   1.00
C729   C     0.82869   0.15350   0.98110   0.00000  Uiso   1.00
C730   C     0.81850   0.16092   0.52285   0.00000  Uiso   1.00
C731   C     0.78404   0.18527   0.54293   0.00000  Uiso   1.00
C732   C     0.77065   0.21146   0.52254   0.00000  Uiso   1.00
F733   F     0.91107   0.05763   0.52325   0.00000  Uiso   1.00
F734   F     0.97942   0.14189   0.79486   0.00000  Uiso   1.00
F735   F     0.74743   0.26674   0.98124   0.00000  Uiso   1.00
F736   F     0.76862   0.25693   0.90174   0.00000  Uiso   1.00
F737   F     0.82431   0.12957   0.90061   0.00000  Uiso   1.00
H738   H     0.74709   0.23246   0.53886   0.00000  Uiso   1.00
H739   H     0.87394   0.00265   0.71711   0.00000  Uiso   1.00
H740   H     0.89815   0.08019   0.96542   0.00000  Uiso   1.00
H741   H     0.87214   0.12123   0.92992   0.00000  Uiso   1.00
H742   H     0.67702   0.20210   0.68846   0.00000  Uiso   1.00
H743   H     0.76427   0.01906   0.80490   0.00000  Uiso   1.00
H744   H     0.84381   0.20926   0.61942   0.00000  Uiso   1.00
H745   H     0.90145   0.08945   0.62748   0.00000  Uiso   1.00
H746   H     0.76272   0.15425   0.58823   0.00000  Uiso   1.00
O747   O     0.83333   0.16667   0.75000   0.00000  Uiso   1.00
O748   O     0.82360   0.12393   0.66625   0.00000  Uiso   1.00
O749   O     0.79354   0.20646   0.83749   0.00000  Uiso   1.00
O750   O     0.87755   0.17493   0.65877   0.00000  Uiso   1.00
O751   O     0.83865   0.16135   0.83749   0.00000  Uiso   1.00
O752   O     0.69167   0.19237   0.70560   0.00000  Uiso   1.00
O753   O     0.78163   0.32942   0.79072   0.00000  Uiso   1.00
O754   O     0.83336   0.19879   0.59618   0.00000  Uiso   1.00
O755   O     0.90254   0.07665   0.60048   0.00000  Uiso   1.00
O756   O     0.76037   0.18208   0.58149   0.00000  Uiso   1.00
O757   O     0.84515   0.08101   0.77820   0.00000  Uiso   1.00
O758   O     0.81247   0.26136   0.76767   0.00000  Uiso   1.00
O759   O     0.74119   0.13251   0.73607   0.00000  Uiso   1.00
O760   O     0.93452   0.19179   0.71806   0.00000  Uiso   1.00
O761   O     0.73656   0.18960   0.77820   0.00000  Uiso   1.00
O762   O     0.92106   0.15277   0.76767   0.00000  Uiso   1.00
O763   O     0.80467   0.06903   0.73607   0.00000  Uiso   1.00
O764   O     0.87104   0.25527   0.71806   0.00000  Uiso   1.00
Zn765  Zn    0.85910   0.14090   0.78277   0.00000  Uiso   1.00
Zn766  Zn    0.80125   0.12378   0.72257   0.00000  Uiso   1.00
Zn767  Zn    0.87833   0.19664   0.71188   0.00000  Uiso   1.00
Zn768  Zn    0.79465   0.20535   0.78277   0.00000  Uiso   1.00
C769   C     0.05256   0.49322   0.75905   0.00000  Uiso   1.00
C770   C     0.19273   0.45888   0.96135   0.00000  Uiso   1.00
C771   C     0.20966   0.43605   0.98188   0.00000  Uiso   1.00
C772   C     0.28114   0.50665   0.74100   0.00000  Uiso   1.00
C773   C     0.20180   0.44466   0.52244   0.00000  Uiso   1.00
C774   C     0.17619   0.47684   0.54278   0.00000  Uiso   1.00
C775   C     0.22146   0.42311   0.54242   0.00000  Uiso   1.00
C776   C     0.21756   0.43404   0.58225   0.00000  Uiso   1.00
C777   C     0.17893   0.49280   0.58099   0.00000  Uiso   1.00
C778   C     0.32761   0.50800   0.73647   0.00000  Uiso   1.00
C779   C     0.00734   0.49153   0.76274   0.00000  Uiso   1.00
C780   C     0.11406   0.56278   0.92048   0.00000  Uiso   1.00
C781   C     0.17999   0.65546   0.73898   0.00000  Uiso   1.00
C782   C     0.15048   0.34585   0.76288   0.00000  Uiso   1.00
C783   C     0.15632   0.38963   0.75855   0.00000  Uiso   1.00
C784   C     0.17664   0.61097   0.74152   0.00000  Uiso   1.00
C785   C     0.18784   0.47890   0.64414   0.00000  Uiso   1.00
C786   C     0.14515   0.52086   0.85622   0.00000  Uiso   1.00
C787   C     0.13529   0.52851   0.89942   0.00000  Uiso   1.00
C788   C     0.19657   0.46946   0.60164   0.00000  Uiso   1.00
C789   C     0.10377   0.56826   0.96138   0.00000  Uiso   1.00
C790   C     0.14710   0.50060   0.91984   0.00000  Uiso   1.00
C791   C     0.14274   0.50926   0.96052   0.00000  Uiso   1.00
C792   C     0.11753   0.54150   0.98157   0.00000  Uiso   1.00
C793   C     0.16202   0.48684   0.98110   0.00000  Uiso   1.00
C794   C     0.15183   0.49425   0.52285   0.00000  Uiso   1.00
C795   C     0.11737   0.51861   0.54293   0.00000  Uiso   1.00
C796   C     0.10399   0.54480   0.52254   0.00000  Uiso   1.00
F797   F     0.24440   0.39097   0.52325   0.00000  Uiso   1.00
F798   F     0.31275   0.47522   0.79486   0.00000  Uiso   1.00
F799   F     0.08076   0.60008   0.98124   0.00000  Uiso   1.00
F800   F     0.10196   0.59026   0.90174   0.00000  Uiso   1.00
F801   F     0.15765   0.46290   0.90061   0.00000  Uiso   1.00
H802   H     0.08042   0.56580   0.53886   0.00000  Uiso   1.00
H803   H     0.20727   0.33599   0.71711   0.00000  Uiso   1.00
H804   H     0.23148   0.41352   0.96542   0.00000  Uiso   1.00
H805   H     0.20547   0.45456   0.92992   0.00000  Uiso   1.00
H806   H     0.01035   0.53544   0.68846   0.00000  Uiso   1.00
H807   H     0.09760   0.35240   0.80490   0.00000  Uiso   1.00
H808   H     0.17714   0.54260   0.61942   0.00000  Uiso   1.00
H809   H     0.23478   0.42278   0.62748   0.00000  Uiso   1.00
H810   H     0.09606   0.48758   0.58823   0.00000  Uiso   1.00
O811   O     0.16667   0.50000   0.75000   0.00000  Uiso   1.00
O812   O     0.15693   0.45726   0.66625   0.00000  Uiso   1.00
O813   O     0.12687   0.53979   0.83749   0.00000  Uiso   1.00
O814   O     0.21088   0.50826   0.65877   0.00000  Uiso   1.00
O815   O     0.17198   0.49468   0.83749   0.00000  Uiso   1.00
O816   O     0.02501   0.52570   0.70560   0.00000  Uiso   1.00
O817   O     0.11497   0.66275   0.79072   0.00000  Uiso   1.00
O818   O     0.16670   0.53213   0.59618   0.00000  Uiso   1.00
O819   O     0.23588   0.40999   0.60048   0.00000  Uiso   1.00
O820   O     0.09370   0.51542   0.58149   0.00000  Uiso   1.00
O821   O     0.17849   0.41434   0.77820   0.00000  Uiso   1.00
O822   O     0.14581   0.59469   0.76767   0.00000  Uiso   1.00
O823   O     0.07452   0.46584   0.73607   0.00000  Uiso   1.00
O824   O     0.26785   0.52512   0.71806   0.00000  Uiso   1.00
O825   O     0.06990   0.52293   0.77820   0.00000  Uiso   1.00
O826   O     0.25440   0.48610   0.76767   0.00000  Uiso   1.00
O827   O     0.13800   0.40236   0.73607   0.00000  Uiso   1.00
O828   O     0.20437   0.58860   0.71806   0.00000  Uiso   1.00
Zn829  Zn    0.19244   0.47423   0.78277   0.00000  Uiso   1.00
Zn830  Zn    0.13459   0.45711   0.72257   0.00000  Uiso   1.00
Zn831  Zn    0.21166   0.52997   0.71188   0.00000  Uiso   1.00
Zn832  Zn    0.12798   0.53868   0.78277   0.00000  Uiso   1.00
C833   C     0.38589   0.49322   0.75905   0.00000  Uiso   1.00
C834   C     0.52606   0.45888   0.96135   0.00000  Uiso   1.00
C835   C     0.54299   0.43605   0.98188   0.00000  Uiso   1.00
C836   C     0.61447   0.50665   0.74100   0.00000  Uiso   1.00
C837   C     0.53514   0.44466   0.52244   0.00000  Uiso   1.00
C838   C     0.50952   0.47684   0.54278   0.00000  Uiso   1.00
C839   C     0.55479   0.42311   0.54242   0.00000  Uiso   1.00
C840   C     0.55089   0.43404   0.58225   0.00000  Uiso   1.00
C841   C     0.51227   0.49280   0.58099   0.00000  Uiso   1.00
C842   C     0.66094   0.50800   0.73647   0.00000  Uiso   1.00
C843   C     0.34068   0.49153   0.76274   0.00000  Uiso   1.00
C844   C     0.44739   0.56278   0.92048   0.00000  Uiso   1.00
C845   C     0.51332   0.65546   0.73898   0.00000  Uiso   1.00
C846   C     0.48381   0.34585   0.76288   0.00000  Uiso   1.00
C847   C     0.48965   0.38963   0.75855   0.00000  Uiso   1.00
C848   C     0.50997   0.61097   0.74152   0.00000  Uiso   1.00
C849   C     0.52118   0.47890   0.64414   0.00000  Uiso   1.00
C850   C     0.47848   0.52086   0.85622   0.00000  Uiso   1.00
C851   C     0.46863   0.52851   0.89942   0.00000  Uiso   1.00
C852   C     0.52991   0.46946   0.60164   0.00000  Uiso   1.00
C853   C     0.43711   0.56826   0.96138   0.00000  Uiso   1.00
C854   C     0.48043   0.50060   0.91984   0.00000  Uiso   1.00
C855   C     0.47608   0.50926   0.96052   0.00000  Uiso   1.00
C856   C     0.45086   0.54150   0.98157   0.00000  Uiso   1.00
C857   C     0.49535   0.48684   0.98110   0.00000  Uiso   1.00
C858   C     0.48516   0.49425   0.52285   0.00000  Uiso   1.00
C859   C     0.45071   0.51861   0.54293   0.00000  Uiso   1.00
C860   C     0.43732   0.54480   0.52254   0.00000  Uiso   1.00
F861   F     0.57773   0.39097   0.52325   0.00000  Uiso   1.00
F862   F     0.64609   0.47522   0.79486   0.00000  Uiso   1.00
F863   F     0.41409   0.60008   0.98124   0.00000  Uiso   1.00
F864   F     0.43529   0.59026   0.90174   0.00000  Uiso   1.00
F865   F     0.49098   0.46290   0.90061   0.00000  Uiso   1.00
H866   H     0.41376   0.56580   0.53886   0.00000  Uiso   1.00
H867   H     0.54060   0.33599   0.71711   0.00000  Uiso   1.00
H868   H     0.56481   0.41352   0.96542   0.00000  Uiso   1.00
H869   H     0.53881   0.45456   0.92992   0.00000  Uiso   1.00
H870   H     0.34368   0.53544   0.68846   0.00000  Uiso   1.00
H871   H     0.43094   0.35240   0.80490   0.00000  Uiso   1.00
H872   H     0.51047   0.54260   0.61942   0.00000  Uiso   1.00
H873   H     0.56812   0.42278   0.62748   0.00000  Uiso   1.00
H874   H     0.42939   0.48758   0.58823   0.00000  Uiso   1.00
O875   O     0.50000   0.50000   0.75000   0.00000  Uiso   1.00
O876   O     0.49027   0.45726   0.66625   0.00000  Uiso   1.00
O877   O     0.46020   0.53979   0.83749   0.00000  Uiso   1.00
O878   O     0.54421   0.50826   0.65877   0.00000  Uiso   1.00
O879   O     0.50532   0.49468   0.83749   0.00000  Uiso   1.00
O880   O     0.35834   0.52570   0.70560   0.00000  Uiso   1.00
O881   O     0.44830   0.66275   0.79072   0.00000  Uiso   1.00
O882   O     0.50003   0.53213   0.59618   0.00000  Uiso   1.00
O883   O     0.56921   0.40999   0.60048   0.00000  Uiso   1.00
O884   O     0.42703   0.51542   0.58149   0.00000  Uiso   1.00
O885   O     0.51182   0.41434   0.77820   0.00000  Uiso   1.00
O886   O     0.47914   0.59469   0.76767   0.00000  Uiso   1.00
O887   O     0.40785   0.46584   0.73607   0.00000  Uiso   1.00
O888   O     0.60119   0.52512   0.71806   0.00000  Uiso   1.00
O889   O     0.40323   0.52293   0.77820   0.00000  Uiso   1.00
O890   O     0.58773   0.48610   0.76767   0.00000  Uiso   1.00
O891   O     0.47133   0.40236   0.73607   0.00000  Uiso   1.00
O892   O     0.53771   0.58860   0.71806   0.00000  Uiso   1.00
Zn893  Zn    0.52577   0.47423   0.78277   0.00000  Uiso   1.00
Zn894  Zn    0.46792   0.45711   0.72257   0.00000  Uiso   1.00
Zn895  Zn    0.54500   0.52997   0.71188   0.00000  Uiso   1.00
Zn896  Zn    0.46131   0.53868   0.78277   0.00000  Uiso   1.00
C897   C     0.71922   0.49322   0.75905   0.00000  Uiso   1.00
C898   C     0.85940   0.45888   0.96135   0.00000  Uiso   1.00
C899   C     0.87633   0.43605   0.98188   0.00000  Uiso   1.00
C900   C     0.94780   0.50665   0.74100   0.00000  Uiso   1.00
C901   C     0.86847   0.44466   0.52244   0.00000  Uiso   1.00
C902   C     0.84286   0.47684   0.54278   0.00000  Uiso   1.00
C903   C     0.88813   0.42311   0.54242   0.00000  Uiso   1.00
C904   C     0.88423   0.43404   0.58225   0.00000  Uiso   1.00
C905   C     0.84560   0.49280   0.58099   0.00000  Uiso   1.00
C906   C     0.99427   0.50800   0.73647   0.00000  Uiso   1.00
C907   C     0.67401   0.49153   0.76274   0.00000  Uiso   1.00
C908   C     0.78073   0.56278   0.92048   0.00000  Uiso   1.00
C909   C     0.84665   0.65546   0.73898   0.00000  Uiso   1.00
C910   C     0.81715   0.34585   0.76288   0.00000  Uiso   1.00
C911   C     0.82299   0.38963   0.75855   0.00000  Uiso   1.00
C912   C     0.84330   0.61097   0.74152   0.00000  Uiso   1.00
C913   C     0.85451   0.47890   0.64414   0.00000  Uiso   1.00
C914   C     0.81182   0.52086   0.85622   0.00000  Uiso   1.00
C915   C     0.80196   0.52851   0.89942   0.00000  Uiso   1.00
C916   C     0.86324   0.46946   0.60164   0.00000  Uiso   1.00
C917   C     0.77044   0.56826   0.96138   0.00000  Uiso   1.00
C918   C     0.81377   0.50060   0.91984   0.00000  Uiso   1.00
C919   C     0.80941   0.50926   0.96052   0.00000  Uiso   1.00
C920   C     0.78419   0.54150   0.98157   0.00000  Uiso   1.00
C921   C     0.82869   0.48684   0.98110   0.00000  Uiso   1.00
C922   C     0.81850   0.49425   0.52285   0.00000  Uiso   1.00
C923   C     0.78404   0.51861   0.54293   0.00000  Uiso   1.00
C924   C     0.77065   0.54480   0.52254   0.00000  Uiso   1.00
F925   F     0.91107   0.39097   0.52325   0.00000  Uiso   1.00
F926   F     0.97942   0.47522   0.79486   0.00000  Uiso   1.00
F927   F     0.74743   0.60008   0.98124   0.00000  Uiso   1.00
F928   F     0.76862   0.59026   0.90174   0.00000  Uiso   1.00
F929   F     0.82431   0.46290   0.90061   0.00000  Uiso   1.00
H930   H     0.74709   0.56580   0.53886   0.00000  Uiso   1.00
H931   H     0.87394   0.33599   0.71711   0.00000  Uiso   1.00
H932   H     0.89815   0.41352   0.96542   0.00000  Uiso   1.00
H933   H     0.87214   0.45456   0.92992   0.00000  Uiso   1.00
H934   H     0.67702   0.53544   0.68846   0.00000  Uiso   1.00
H935   H     0.76427   0.35240   0.80490   0.00000  Uiso   1.00
H936   H     0.84381   0.54260   0.61942   0.00000  Uiso   1.00
H937   H     0.90145   0.42278   0.62748   0.00000  Uiso   1.00
H938   H     0.76272   0.48758   0.58823   0.00000  Uiso   1.00
O939   O     0.83333   0.50000   0.75000   0.00000  Uiso   1.00
O940   O     0.82360   0.45726   0.66625   0.00000  Uiso   1.00
O941   O     0.79354   0.53979   0.83749   0.00000  Uiso   1.00
O942   O     0.87755   0.50826   0.65877   0.00000  Uiso   1.00
O943   O     0.83865   0.49468   0.83749   0.00000  Uiso   1.00
O944   O     0.69167   0.52570   0.70560   0.00000  Uiso   1.00
O945   O     0.78163   0.66275   0.79072   0.00000  Uiso   1.00
O946   O     0.83336   0.53213   0.59618   0.00000  Uiso   1.00
O947   O     0.90254   0.40999   0.60048   0.00000  Uiso   1.00
O948   O     0.76037   0.51542   0.58149   0.00000  Uiso   1.00
O949   O     0.84515   0.41434   0.77820   0.00000  Uiso   1.00
O950   O     0.81247   0.59469   0.76767   0.00000  Uiso   1.00
O951   O     0.74119   0.46584   0.73607   0.00000  Uiso   1.00
O952   O     0.93452   0.52512   0.71806   0.00000  Uiso   1.00
O953   O     0.73656   0.52293   0.77820   0.00000  Uiso   1.00
O954   O     0.92106   0.48610   0.76767   0.00000  Uiso   1.00
O955   O     0.80467   0.40236   0.73607   0.00000  Uiso   1.00
O956   O     0.87104   0.58860   0.71806   0.00000  Uiso   1.00
Zn957  Zn    0.85910   0.47423   0.78277   0.00000  Uiso   1.00
Zn958  Zn    0.80125   0.45711   0.72257   0.00000  Uiso   1.00
Zn959  Zn    0.87833   0.52997   0.71188   0.00000  Uiso   1.00
Zn960  Zn    0.79465   0.53868   0.78277   0.00000  Uiso   1.00
C961   C     0.05256   0.82655   0.75905   0.00000  Uiso   1.00
C962   C     0.19273   0.79221   0.96135   0.00000  Uiso   1.00
C963   C     0.20966   0.76939   0.98188   0.00000  Uiso   1.00
C964   C     0.28114   0.83999   0.74100   0.00000  Uiso   1.00
C965   C     0.20180   0.77799   0.52244   0.00000  Uiso   1.00
C966   C     0.17619   0.81018   0.54278   0.00000  Uiso   1.00
C967   C     0.22146   0.75644   0.54242   0.00000  Uiso   1.00
C968   C     0.21756   0.76738   0.58225   0.00000  Uiso   1.00
C969   C     0.17893   0.82614   0.58099   0.00000  Uiso   1.00
C970   C     0.32761   0.84133   0.73647   0.00000  Uiso   1.00
C971   C     0.00734   0.82486   0.76274   0.00000  Uiso   1.00
C972   C     0.11406   0.89611   0.92048   0.00000  Uiso   1.00
C973   C     0.17999   0.98879   0.73898   0.00000  Uiso   1.00
C974   C     0.15048   0.67918   0.76288   0.00000  Uiso   1.00
C975   C     0.15632   0.72297   0.75855   0.00000  Uiso   1.00
C976   C     0.17664   0.94430   0.74152   0.00000  Uiso   1.00
C977   C     0.18784   0.81223   0.64414   0.00000  Uiso   1.00
C978   C     0.14515   0.85420   0.85622   0.00000  Uiso   1.00
C979   C     0.13529   0.86184   0.89942   0.00000  Uiso   1.00
C980   C     0.19657   0.80279   0.60164   0.00000  Uiso   1.00
C981   C     0.10377   0.90159   0.96138   0.00000  Uiso   1.00
C982   C     0.14710   0.83393   0.91984   0.00000  Uiso   1.00
C983   C     0.14274   0.84259   0.96052   0.00000  Uiso   1.00
C984   C     0.11753   0.87483   0.98157   0.00000  Uiso   1.00
C985   C     0.16202   0.82017   0.98110   0.00000  Uiso   1.00
C986   C     0.15183   0.82758   0.52285   0.00000  Uiso   1.00
C987   C     0.11737   0.85194   0.54293   0.00000  Uiso   1.00
C988   C     0.10399   0.87813   0.52254   0.00000  Uiso   1.00
F989   F     0.24440   0.72430   0.52325   0.00000  Uiso   1.00
F990   F     0.31275   0.80855   0.79486   0.00000  Uiso   1.00
F991   F     0.08076   0.93341   0.98124   0.00000  Uiso   1.00
F992   F     0.10196   0.92359   0.90174   0.00000  Uiso   1.00
F993   F     0.15765   0.79623   0.90061   0.00000  Uiso   1.00
H994   H     0.08042   0.89913   0.53886   0.00000  Uiso   1.00
H995   H     0.20727   0.66932   0.71711   0.00000  Uiso   1.00
H996   H     0.23148   0.74685   0.96542   0.00000  Uiso   1.00
H997   H     0.20547   0.78789   0.92992   0.00000  Uiso   1.00
H998   H     0.01035   0.86877   0.68846   0.00000  Uiso   1.00
H999   H     0.09760   0.68573   0.80490   0.00000  Uiso   1.00
H1000  H     0.17714   0.87593   0.61942   0.00000  Uiso   1.00
H1001  H     0.23478   0.75611   0.62748   0.00000  Uiso   1.00
H1002  H     0.09606   0.82092   0.58823   0.00000  Uiso   1.00
O1003  O     0.16667   0.83333   0.75000   0.00000  Uiso   1.00
O1004  O     0.15693   0.79060   0.66625   0.00000  Uiso   1.00
O1005  O     0.12687   0.87313   0.83749   0.00000  Uiso   1.00
O1006  O     0.21088   0.84159   0.65877   0.00000  Uiso   1.00
O1007  O     0.17198   0.82802   0.83749   0.00000  Uiso   1.00
O1008  O     0.02501   0.85903   0.70560   0.00000  Uiso   1.00
O1009  O     0.11497   0.99608   0.79072   0.00000  Uiso   1.00
O1010  O     0.16670   0.86546   0.59618   0.00000  Uiso   1.00
O1011  O     0.23588   0.74332   0.60048   0.00000  Uiso   1.00
O1012  O     0.09370   0.84875   0.58149   0.00000  Uiso   1.00
O1013  O     0.17849   0.74768   0.77820   0.00000  Uiso   1.00
O1014  O     0.14581   0.92803   0.76767   0.00000  Uiso   1.00
O1015  O     0.07452   0.79917   0.73607   0.00000  Uiso   1.00
O1016  O     0.26785   0.85845   0.71806   0.00000  Uiso   1.00
O1017  O     0.06990   0.85627   0.77820   0.00000  Uiso   1.00
O1018  O     0.25440   0.81944   0.76767   0.00000  Uiso   1.00
O1019  O     0.13800   0.73570   0.73607   0.00000  Uiso   1.00
O1020  O     0.20437   0.92193   0.71806   0.00000  Uiso   1.00
Zn1021 Zn    0.19244   0.80756   0.78277   0.00000  Uiso   1.00
Zn1022 Zn    0.13459   0.79044   0.72257   0.00000  Uiso   1.00
Zn1023 Zn    0.21166   0.86331   0.71188   0.00000  Uiso   1.00
Zn1024 Zn    0.12798   0.87202   0.78277   0.00000  Uiso   1.00
C1025  C     0.38589   0.82655   0.75905   0.00000  Uiso   1.00
C1026  C     0.52606   0.79221   0.96135   0.00000  Uiso   1.00
C1027  C     0.54299   0.76939   0.98188   0.00000  Uiso   1.00
C1028  C     0.61447   0.83999   0.74100   0.00000  Uiso   1.00
C1029  C     0.53514   0.77799   0.52244   0.00000  Uiso   1.00
C1030  C     0.50952   0.81018   0.54278   0.00000  Uiso   1.00
C1031  C     0.55479   0.75644   0.54242   0.00000  Uiso   1.00
C1032  C     0.55089   0.76738   0.58225   0.00000  Uiso   1.00
C1033  C     0.51227   0.82614   0.58099   0.00000  Uiso   1.00
C1034  C     0.66094   0.84133   0.73647   0.00000  Uiso   1.00
C1035  C     0.34068   0.82486   0.76274   0.00000  Uiso   1.00
C1036  C     0.44739   0.89611   0.92048   0.00000  Uiso   1.00
C1037  C     0.51332   0.98879   0.73898   0.00000  Uiso   1.00
C1038  C     0.48381   0.67918   0.76288   0.00000  Uiso   1.00
C1039  C     0.48965   0.72297   0.75855   0.00000  Uiso   1.00
C1040  C     0.50997   0.94430   0.74152   0.00000  Uiso   1.00
C1041  C     0.52118   0.81223   0.64414   0.00000  Uiso   1.00
C1042  C     0.47848   0.85420   0.85622   0.00000  Uiso   1.00
C1043  C     0.46863   0.86184   0.89942   0.00000  Uiso   1.00
C1044  C     0.52991   0.80279   0.60164   0.00000  Uiso   1.00
C1045  C     0.43711   0.90159   0.96138   0.00000  Uiso   1.00
C1046  C     0.48043   0.83393   0.91984   0.00000  Uiso   1.00
C1047  C     0.47608   0.84259   0.96052   0.00000  Uiso   1.00
C1048  C     0.45086   0.87483   0.98157   0.00000  Uiso   1.00
C1049  C     0.49535   0.82017   0.98110   0.00000  Uiso   1.00
C1050  C     0.48516   0.82758   0.52285   0.00000  Uiso   1.00
C1051  C     0.45071   0.85194   0.54293   0.00000  Uiso   1.00
C1052  C     0.43732   0.87813   0.52254   0.00000  Uiso   1.00
F1053  F     0.57773   0.72430   0.52325   0.00000  Uiso   1.00
F1054  F     0.64609   0.80855   0.79486   0.00000  Uiso   1.00
F1055  F     0.41409   0.93341   0.98124   0.00000  Uiso   1.00
F1056  F     0.43529   0.92359   0.90174   0.00000  Uiso   1.00
F1057  F     0.49098   0.79623   0.90061   0.00000  Uiso   1.00
H1058  H     0.41376   0.89913   0.53886   0.00000  Uiso   1.00
H1059  H     0.54060   0.66932   0.71711   0.00000  Uiso   1.00
H1060  H     0.56481   0.74685   0.96542   0.00000  Uiso   1.00
H1061  H     0.53881   0.78789   0.92992   0.00000  Uiso   1.00
H1062  H     0.34368   0.86877   0.68846   0.00000  Uiso   1.00
H1063  H     0.43094   0.68573   0.80490   0.00000  Uiso   1.00
H1064  H     0.51047   0.87593   0.61942   0.00000  Uiso   1.00
H1065  H     0.56812   0.75611   0.62748   0.00000  Uiso   1.00
H1066  H     0.42939   0.82092   0.58823   0.00000  Uiso   1.00
O1067  O     0.50000   0.83333   0.75000   0.00000  Uiso   1.00
O1068  O     0.49027   0.79060   0.66625   0.00000  Uiso   1.00
O1069  O     0.46020   0.87313   0.83749   0.00000  Uiso   1.00
O1070  O     0.54421   0.84159   0.65877   0.00000  Uiso   1.00
O1071  O     0.50532   0.82802   0.83749   0.00000  Uiso   1.00
O1072  O     0.35834   0.85903   0.70560   0.00000  Uiso   1.00
O1073  O     0.44830   0.99608   0.79072   0.00000  Uiso   1.00
O1074  O     0.50003   0.86546   0.59618   0.00000  Uiso   1.00
O1075  O     0.56921   0.74332   0.60048   0.00000  Uiso   1.00
O1076  O     0.42703   0.84875   0.58149   0.00000  Uiso   1.00
O1077  O     0.51182   0.74768   0.77820   0.00000  Uiso   1.00
O1078  O     0.47914   0.92803   0.76767   0.00000  Uiso   1.00
O1079  O     0.40785   0.79917   0.73607   0.00000  Uiso   1.00
O1080  O     0.60119   0.85845   0.71806   0.00000  Uiso   1.00
O1081  O     0.40323   0.85627   0.77820   0.00000  Uiso   1.00
O1082  O     0.58773   0.81944   0.76767   0.00000  Uiso   1.00
O1083  O     0.47133   0.73570   0.73607   0.00000  Uiso   1.00
O1084  O     0.53771   0.92193   0.71806   0.00000  Uiso   1.00
Zn1085 Zn    0.52577   0.80756   0.78277   0.00000  Uiso   1.00
Zn1086 Zn    0.46792   0.79044   0.72257   0.00000  Uiso   1.00
Zn1087 Zn    0.54500   0.86331   0.71188   0.00000  Uiso   1.00
Zn1088 Zn    0.46131   0.87202   0.78277   0.00000  Uiso   1.00
C1089  C     0.71922   0.82655   0.75905   0.00000  Uiso   1.00
C1090  C     0.85940   0.79221   0.96135   0.00000  Uiso   1.00
C1091  C     0.87633   0.76939   0.98188   0.00000  Uiso   1.00
C1092  C     0.94780   0.83999   0.74100   0.00000  Uiso   1.00
C1093  C     0.86847   0.77799   0.52244   0.00000  Uiso   1.00
C1094  C     0.84286   0.81018   0.54278   0.00000  Uiso   1.00
C1095  C     0.88813   0.75644   0.54242   0.00000  Uiso   1.00
C1096  C     0.88423   0.76738   0.58225   0.00000  Uiso   1.00
C1097  C     0.84560   0.82614   0.58099   0.00000  Uiso   1.00
C1098  C     0.99427   0.84133   0.73647   0.00000  Uiso   1.00
C1099  C     0.67401   0.82486   0.76274   0.00000  Uiso   1.00
C1100  C     0.78073   0.89611   0.92048   0.00000  Uiso   1.00
C1101  C     0.84665   0.98879   0.73898   0.00000  Uiso   1.00
C1102  C     0.81715   0.67918   0.76288   0.00000  Uiso   1.00
C1103  C     0.82299   0.72297   0.75855   0.00000  Uiso   1.00
C1104  C     0.84330   0.94430   0.74152   0.00000  Uiso   1.00
C1105  C     0.85451   0.81223   0.64414   0.00000  Uiso   1.00
C1106  C     0.81182   0.85420   0.85622   0.00000  Uiso   1.00
C1107  C     0.80196   0.86184   0.89942   0.00000  Uiso   1.00
C1108  C     0.86324   0.80279   0.60164   0.00000  Uiso   1.00
C1109  C     0.77044   0.90159   0.96138   0.00000  Uiso   1.00
C1110  C     0.81377   0.83393   0.91984   0.00000  Uiso   1.00
C1111  C     0.80941   0.84259   0.96052   0.00000  Uiso   1.00
C1112  C     0.78419   0.87483   0.98157   0.00000  Uiso   1.00
C1113  C     0.82869   0.82017   0.98110   0.00000  Uiso   1.00
C1114  C     0.81850   0.82758   0.52285   0.00000  Uiso   1.00
C1115  C     0.78404   0.85194   0.54293   0.00000  Uiso   1.00
C1116  C     0.77065   0.87813   0.52254   0.00000  Uiso   1.00
F1117  F     0.91107   0.72430   0.52325   0.00000  Uiso   1.00
F1118  F     0.97942   0.80855   0.79486   0.00000  Uiso   1.00
F1119  F     0.74743   0.93341   0.98124   0.00000  Uiso   1.00
F1120  F     0.76862   0.92359   0.90174   0.00000  Uiso   1.00
F1121  F     0.82431   0.79623   0.90061   0.00000  Uiso   1.00
H1122  H     0.74709   0.89913   0.53886   0.00000  Uiso   1.00
H1123  H     0.87394   0.66932   0.71711   0.00000  Uiso   1.00
H1124  H     0.89815   0.74685   0.96542   0.00000  Uiso   1.00
H1125  H     0.87214   0.78789   0.92992   0.00000  Uiso   1.00
H1126  H     0.67702   0.86877   0.68846   0.00000  Uiso   1.00
H1127  H     0.76427   0.68573   0.80490   0.00000  Uiso   1.00
H1128  H     0.84381   0.87593   0.61942   0.00000  Uiso   1.00
H1129  H     0.90145   0.75611   0.62748   0.00000  Uiso   1.00
H1130  H     0.76272   0.82092   0.58823   0.00000  Uiso   1.00
O1131  O     0.83333   0.83333   0.75000   0.00000  Uiso   1.00
O1132  O     0.82360   0.79060   0.66625   0.00000  Uiso   1.00
O1133  O     0.79354   0.87313   0.83749   0.00000  Uiso   1.00
O1134  O     0.87755   0.84159   0.65877   0.00000  Uiso   1.00
O1135  O     0.83865   0.82802   0.83749   0.00000  Uiso   1.00
O1136  O     0.69167   0.85903   0.70560   0.00000  Uiso   1.00
O1137  O     0.78163   0.99608   0.79072   0.00000  Uiso   1.00
O1138  O     0.83336   0.86546   0.59618   0.00000  Uiso   1.00
O1139  O     0.90254   0.74332   0.60048   0.00000  Uiso   1.00
O1140  O     0.76037   0.84875   0.58149   0.00000  Uiso   1.00
O1141  O     0.84515   0.74768   0.77820   0.00000  Uiso   1.00
O1142  O     0.81247   0.92803   0.76767   0.00000  Uiso   1.00
O1143  O     0.74119   0.79917   0.73607   0.00000  Uiso   1.00
O1144  O     0.93452   0.85845   0.71806   0.00000  Uiso   1.00
O1145  O     0.73656   0.85627   0.77820   0.00000  Uiso   1.00
O1146  O     0.92106   0.81944   0.76767   0.00000  Uiso   1.00
O1147  O     0.80467   0.73570   0.73607   0.00000  Uiso   1.00
O1148  O     0.87104   0.92193   0.71806   0.00000  Uiso   1.00
Zn1149 Zn    0.85910   0.80756   0.78277   0.00000  Uiso   1.00
Zn1150 Zn    0.80125   0.79044   0.72257   0.00000  Uiso   1.00
Zn1151 Zn    0.87833   0.86331   0.71188   0.00000  Uiso   1.00
Zn1152 Zn    0.79465   0.87202   0.78277   0.00000  Uiso   1.00
loop_
_geom_bond_atom_site_label_1
_geom_bond_atom_site_label_2
_geom_bond_distance
_geom_bond_site_symmetry_2
_ccdc_geom_bond_type
C1     O57     1.267   .     A
C1     O55     1.271   .     A
C1     C11     1.435   .     S
C2     C3      1.385   .     A
C2     H37     1.075   .     S
C2     C25     1.414   .     A
C3     H36     1.084   .     S
C3     C581    1.392   .     S
C4     O58     1.283   .     A
C4     C10     1.471   .     S
C4     O56     1.287   .     A
C5     C6      1.417   .     A
C5     C7      1.402   .     A
C5     C579    1.392   1_554 S
C6     C26     1.431   .     A
C6     C9      1.416   .     A
C7     F29     1.360   .     S
C7     C8      1.392   .     A
C8     O51     1.384   .     S
C8     C20     1.416   .     A
C9     C20     1.414   .     A
C9     O50     1.385   .     S
C10    C75     1.344   .     S
C10    O112    1.387   .     S
C11    C138    1.344   1_455 S
C11    F158    1.361   1_455 S
C12    F32     1.358   .     S
C12    C19     1.404   .     A
C12    C21     1.394   .     A
C13    C16     1.453   .     S
C13    C206    1.341   .     S
C13    H227    1.088   .     S
C14    C15     1.437   .     S
C14    C397    1.341   1_545 S
C14    O433    1.384   1_545 S
C15    O59     1.277   .     A
C15    O53     1.278   .     A
C16    O54     1.266   .     A
C16    O60     1.275   .     A
C17    C20     1.458   .     S
C17    O44     1.275   .     A
C17    O46     1.277   .     A
C18    O45     1.285   .     A
C18    O47     1.285   .     A
C18    C19     1.476   .     S
C19    C22     1.405   .     A
C21    F31     1.359   .     S
C21    C24     1.405   .     A
C22    F33     1.357   .     S
C22    C23     1.412   .     A
C23    C24     1.417   .     A
C23    C25     1.427   .     A
C24    C604    1.395   .     S
C25    C602    1.425   .     S
C26    C27     1.425   .     A
C26    C601    1.425   1_554 S
C27    O52     1.380   .     S
C27    C28     1.390   .     A
C28    H34     1.084   .     S
C28    C600    1.395   1_554 S
F30    C75     1.361   .     S
H35    C397    1.088   1_545 S
H38    O48     0.990   .     S
H39    O433    0.992   1_545 S
H40    O50     0.988   .     S
H41    O51     0.989   .     S
H42    O52     0.991   .     S
O43    Zn64    1.930   .     S
O43    Zn63    1.939   .     S
O43    Zn61    1.966   .     S
O43    Zn62    1.948   .     S
O44    Zn62    1.933   .     S
O45    Zn64    1.945   .     S
O46    Zn63    1.937   .     S
O47    Zn61    1.926   .     S
O48    C138    1.387   1_455 S
O49    C206    1.384   .     S
O49    H231    0.992   .     S
O53    Zn61    1.933   .     S
O54    Zn64    1.938   .     S
O55    Zn62    1.929   .     S
O56    Zn63    1.941   .     S
O57    Zn64    1.938   .     S
O58    Zn61    1.928   .     S
O59    Zn62    1.942   .     S
O60    Zn63    1.934   .     S
C65    O121    1.267   .     A
C65    O119    1.271   .     A
C65    C75     1.435   .     S
C66    C67     1.385   .     A
C66    H101    1.075   .     S
C66    C89     1.414   .     A
C67    H100    1.084   .     S
C67    C645    1.392   .     S
C68    O122    1.283   .     A
C68    C74     1.471   .     S
C68    O120    1.287   .     A
C69    C70     1.417   .     A
C69    C71     1.402   .     A
C69    C643    1.392   1_554 S
C70    C90     1.431   .     A
C70    C73     1.416   .     A
C71    F93     1.360   .     S
C71    C72     1.392   .     A
C72    O115    1.384   .     S
C72    C84     1.416   .     A
C73    C84     1.414   .     A
C73    O114    1.385   .     S
C74    C139    1.344   .     S
C74    O176    1.387   .     S
C76    F96     1.358   .     S
C76    C83     1.404   .     A
C76    C85     1.394   .     A
C77    C80     1.453   .     S
C77    C270    1.341   .     S
C77    H291    1.088   .     S
C78    C79     1.437   .     S
C78    C461    1.341   1_545 S
C78    O497    1.384   1_545 S
C79    O123    1.277   .     A
C79    O117    1.278   .     A
C80    O118    1.266   .     A
C80    O124    1.275   .     A
C81    C84     1.458   .     S
C81    O108    1.275   .     A
C81    O110    1.277   .     A
C82    O109    1.285   .     A
C82    O111    1.285   .     A
C82    C83     1.476   .     S
C83    C86     1.405   .     A
C85    F95     1.359   .     S
C85    C88     1.405   .     A
C86    F97     1.357   .     S
C86    C87     1.412   .     A
C87    C88     1.417   .     A
C87    C89     1.427   .     A
C88    C668    1.395   .     S
C89    C666    1.425   .     S
C90    C91     1.425   .     A
C90    C665    1.425   1_554 S
C91    O116    1.380   .     S
C91    C92     1.390   .     A
C92    H98     1.084   .     S
C92    C664    1.395   1_554 S
F94    C139    1.361   .     S
H99    C461    1.088   1_545 S
H102   O112    0.990   .     S
H103   O497    0.992   1_545 S
H104   O114    0.988   .     S
H105   O115    0.989   .     S
H106   O116    0.991   .     S
O107   Zn128   1.930   .     S
O107   Zn127   1.939   .     S
O107   Zn125   1.966   .     S
O107   Zn126   1.948   .     S
O108   Zn126   1.933   .     S
O109   Zn128   1.945   .     S
O110   Zn127   1.937   .     S
O111   Zn125   1.926   .     S
O113   C270    1.384   .     S
O113   H295    0.992   .     S
O117   Zn125   1.933   .     S
O118   Zn128   1.938   .     S
O119   Zn126   1.929   .     S
O120   Zn127   1.941   .     S
O121   Zn128   1.938   .     S
O122   Zn125   1.928   .     S
O123   Zn126   1.942   .     S
O124   Zn127   1.934   .     S
C129   O185    1.267   .     A
C129   O183    1.271   .     A
C129   C139    1.435   .     S
C130   C131    1.385   .     A
C130   H165    1.075   .     S
C130   C153    1.414   .     A
C131   H164    1.084   .     S
C131   C709    1.392   .     S
C132   O186    1.283   .     A
C132   C138    1.471   .     S
C132   O184    1.287   .     A
C133   C134    1.417   .     A
C133   C135    1.402   .     A
C133   C707    1.392   1_554 S
C134   C154    1.431   .     A
C134   C137    1.416   .     A
C135   F157    1.360   .     S
C135   C136    1.392   .     A
C136   O179    1.384   .     S
C136   C148    1.416   .     A
C137   C148    1.414   .     A
C137   O178    1.385   .     S
C138   C11     1.344   1_655 S
C138   O48     1.387   1_655 S
C140   F160    1.358   .     S
C140   C147    1.404   .     A
C140   C149    1.394   .     A
C141   C144    1.453   .     S
C141   C334    1.341   .     S
C141   H355    1.088   .     S
C142   C143    1.437   .     S
C142   C525    1.341   1_545 S
C142   O561    1.384   1_545 S
C143   O187    1.277   .     A
C143   O181    1.278   .     A
C144   O182    1.266   .     A
C144   O188    1.275   .     A
C145   C148    1.458   .     S
C145   O172    1.275   .     A
C145   O174    1.277   .     A
C146   O173    1.285   .     A
C146   O175    1.285   .     A
C146   C147    1.476   .     S
C147   C150    1.405   .     A
C149   F159    1.359   .     S
C149   C152    1.405   .     A
C150   F161    1.357   .     S
C150   C151    1.412   .     A
C151   C152    1.417   .     A
C151   C153    1.427   .     A
C152   C732    1.395   .     S
C153   C730    1.425   .     S
C154   C155    1.425   .     A
C154   C729    1.425   1_554 S
C155   O180    1.380   .     S
C155   C156    1.390   .     A
C156   H162    1.084   .     S
C156   C728    1.395   1_554 S
F158   C11     1.361   1_655 S
H163   C525    1.088   1_545 S
H166   O176    0.990   .     S
H167   O561    0.992   1_545 S
H168   O178    0.988   .     S
H169   O179    0.989   .     S
H170   O180    0.991   .     S
O171   Zn192   1.930   .     S
O171   Zn191   1.939   .     S
O171   Zn189   1.966   .     S
O171   Zn190   1.948   .     S
O172   Zn190   1.933   .     S
O173   Zn192   1.945   .     S
O174   Zn191   1.937   .     S
O175   Zn189   1.926   .     S
O177   C334    1.384   .     S
O177   H359    0.992   .     S
O181   Zn189   1.933   .     S
O182   Zn192   1.938   .     S
O183   Zn190   1.929   .     S
O184   Zn191   1.941   .     S
O185   Zn192   1.938   .     S
O186   Zn189   1.928   .     S
O187   Zn190   1.942   .     S
O188   Zn191   1.934   .     S
C193   O249    1.267   .     A
C193   O247    1.271   .     A
C193   C203    1.435   .     S
C194   C195    1.385   .     A
C194   H229    1.075   .     S
C194   C217    1.414   .     A
C195   H228    1.084   .     S
C195   C773    1.392   .     S
C196   O250    1.283   .     A
C196   C202    1.471   .     S
C196   O248    1.287   .     A
C197   C198    1.417   .     A
C197   C199    1.402   .     A
C197   C771    1.392   1_554 S
C198   C218    1.431   .     A
C198   C201    1.416   .     A
C199   F221    1.360   .     S
C199   C200    1.392   .     A
C200   O243    1.384   .     S
C200   C212    1.416   .     A
C201   C212    1.414   .     A
C201   O242    1.385   .     S
C202   C267    1.344   .     S
C202   O304    1.387   .     S
C203   C330    1.344   1_455 S
C203   F350    1.361   1_455 S
C204   F224    1.358   .     S
C204   C211    1.404   .     A
C204   C213    1.394   .     A
C205   C208    1.453   .     S
C205   C398    1.341   .     S
C205   H419    1.088   .     S
C206   C207    1.437   .     S
C207   O251    1.277   .     A
C207   O245    1.278   .     A
C208   O246    1.266   .     A
C208   O252    1.275   .     A
C209   C212    1.458   .     S
C209   O236    1.275   .     A
C209   O238    1.277   .     A
C210   O237    1.285   .     A
C210   O239    1.285   .     A
C210   C211    1.476   .     S
C211   C214    1.405   .     A
C213   F223    1.359   .     S
C213   C216    1.405   .     A
C214   F225    1.357   .     S
C214   C215    1.412   .     A
C215   C216    1.417   .     A
C215   C217    1.427   .     A
C216   C796    1.395   .     S
C217   C794    1.425   .     S
C218   C219    1.425   .     A
C218   C793    1.425   1_554 S
C219   O244    1.380   .     S
C219   C220    1.390   .     A
C220   H226    1.084   .     S
C220   C792    1.395   1_554 S
F222   C267    1.361   .     S
H230   O240    0.990   .     S
H232   O242    0.988   .     S
H233   O243    0.989   .     S
H234   O244    0.991   .     S
O235   Zn256   1.930   .     S
O235   Zn255   1.939   .     S
O235   Zn253   1.966   .     S
O235   Zn254   1.948   .     S
O236   Zn254   1.933   .     S
O237   Zn256   1.945   .     S
O238   Zn255   1.937   .     S
O239   Zn253   1.926   .     S
O240   C330    1.387   1_455 S
O241   C398    1.384   .     S
O241   H423    0.992   .     S
O245   Zn253   1.933   .     S
O246   Zn256   1.938   .     S
O247   Zn254   1.929   .     S
O248   Zn255   1.941   .     S
O249   Zn256   1.938   .     S
O250   Zn253   1.928   .     S
O251   Zn254   1.942   .     S
O252   Zn255   1.934   .     S
C257   O313    1.267   .     A
C257   O311    1.271   .     A
C257   C267    1.435   .     S
C258   C259    1.385   .     A
C258   H293    1.075   .     S
C258   C281    1.414   .     A
C259   H292    1.084   .     S
C259   C837    1.392   .     S
C260   O314    1.283   .     A
C260   C266    1.471   .     S
C260   O312    1.287   .     A
C261   C262    1.417   .     A
C261   C263    1.402   .     A
C261   C835    1.392   1_554 S
C262   C282    1.431   .     A
C262   C265    1.416   .     A
C263   F285    1.360   .     S
C263   C264    1.392   .     A
C264   O307    1.384   .     S
C264   C276    1.416   .     A
C265   C276    1.414   .     A
C265   O306    1.385   .     S
C266   C331    1.344   .     S
C266   O368    1.387   .     S
C268   F288    1.358   .     S
C268   C275    1.404   .     A
C268   C277    1.394   .     A
C269   C272    1.453   .     S
C269   C462    1.341   .     S
C269   H483    1.088   .     S
C270   C271    1.437   .     S
C271   O315    1.277   .     A
C271   O309    1.278   .     A
C272   O310    1.266   .     A
C272   O316    1.275   .     A
C273   C276    1.458   .     S
C273   O300    1.275   .     A
C273   O302    1.277   .     A
C274   O301    1.285   .     A
C274   O303    1.285   .     A
C274   C275    1.476   .     S
C275   C278    1.405   .     A
C277   F287    1.359   .     S
C277   C280    1.405   .     A
C278   F289    1.357   .     S
C278   C279    1.412   .     A
C279   C280    1.417   .     A
C279   C281    1.427   .     A
C280   C860    1.395   .     S
C281   C858    1.425   .     S
C282   C283    1.425   .     A
C282   C857    1.425   1_554 S
C283   O308    1.380   .     S
C283   C284    1.390   .     A
C284   H290    1.084   .     S
C284   C856    1.395   1_554 S
F286   C331    1.361   .     S
H294   O304    0.990   .     S
H296   O306    0.988   .     S
H297   O307    0.989   .     S
H298   O308    0.991   .     S
O299   Zn320   1.930   .     S
O299   Zn319   1.939   .     S
O299   Zn317   1.966   .     S
O299   Zn318   1.948   .     S
O300   Zn318   1.933   .     S
O301   Zn320   1.945   .     S
O302   Zn319   1.937   .     S
O303   Zn317   1.926   .     S
O305   C462    1.384   .     S
O305   H487    0.992   .     S
O309   Zn317   1.933   .     S
O310   Zn320   1.938   .     S
O311   Zn318   1.929   .     S
O312   Zn319   1.941   .     S
O313   Zn320   1.938   .     S
O314   Zn317   1.928   .     S
O315   Zn318   1.942   .     S
O316   Zn319   1.934   .     S
C321   O377    1.267   .     A
C321   O375    1.271   .     A
C321   C331    1.435   .     S
C322   C323    1.385   .     A
C322   H357    1.075   .     S
C322   C345    1.414   .     A
C323   H356    1.084   .     S
C323   C901    1.392   .     S
C324   O378    1.283   .     A
C324   C330    1.471   .     S
C324   O376    1.287   .     A
C325   C326    1.417   .     A
C325   C327    1.402   .     A
C325   C899    1.392   1_554 S
C326   C346    1.431   .     A
C326   C329    1.416   .     A
C327   F349    1.360   .     S
C327   C328    1.392   .     A
C328   O371    1.384   .     S
C328   C340    1.416   .     A
C329   C340    1.414   .     A
C329   O370    1.385   .     S
C330   C203    1.344   1_655 S
C330   O240    1.387   1_655 S
C332   F352    1.358   .     S
C332   C339    1.404   .     A
C332   C341    1.394   .     A
C333   C336    1.453   .     S
C333   C526    1.341   .     S
C333   H547    1.088   .     S
C334   C335    1.437   .     S
C335   O379    1.277   .     A
C335   O373    1.278   .     A
C336   O374    1.266   .     A
C336   O380    1.275   .     A
C337   C340    1.458   .     S
C337   O364    1.275   .     A
C337   O366    1.277   .     A
C338   O365    1.285   .     A
C338   O367    1.285   .     A
C338   C339    1.476   .     S
C339   C342    1.405   .     A
C341   F351    1.359   .     S
C341   C344    1.405   .     A
C342   F353    1.357   .     S
C342   C343    1.412   .     A
C343   C344    1.417   .     A
C343   C345    1.427   .     A
C344   C924    1.395   .     S
C345   C922    1.425   .     S
C346   C347    1.425   .     A
C346   C921    1.425   1_554 S
C347   O372    1.380   .     S
C347   C348    1.390   .     A
C348   H354    1.084   .     S
C348   C920    1.395   1_554 S
F350   C203    1.361   1_655 S
H358   O368    0.990   .     S
H360   O370    0.988   .     S
H361   O371    0.989   .     S
H362   O372    0.991   .     S
O363   Zn384   1.930   .     S
O363   Zn383   1.939   .     S
O363   Zn381   1.966   .     S
O363   Zn382   1.948   .     S
O364   Zn382   1.933   .     S
O365   Zn384   1.945   .     S
O366   Zn383   1.937   .     S
O367   Zn381   1.926   .     S
O369   C526    1.384   .     S
O369   H551    0.992   .     S
O373   Zn381   1.933   .     S
O374   Zn384   1.938   .     S
O375   Zn382   1.929   .     S
O376   Zn383   1.941   .     S
O377   Zn384   1.938   .     S
O378   Zn381   1.928   .     S
O379   Zn382   1.942   .     S
O380   Zn383   1.934   .     S
C385   O441    1.267   .     A
C385   O439    1.271   .     A
C385   C395    1.435   .     S
C386   C387    1.385   .     A
C386   H421    1.075   .     S
C386   C409    1.414   .     A
C387   H420    1.084   .     S
C387   C965    1.392   .     S
C388   O442    1.283   .     A
C388   C394    1.471   .     S
C388   O440    1.287   .     A
C389   C390    1.417   .     A
C389   C391    1.402   .     A
C389   C963    1.392   1_554 S
C390   C410    1.431   .     A
C390   C393    1.416   .     A
C391   F413    1.360   .     S
C391   C392    1.392   .     A
C392   O435    1.384   .     S
C392   C404    1.416   .     A
C393   C404    1.414   .     A
C393   O434    1.385   .     S
C394   C459    1.344   .     S
C394   O496    1.387   .     S
C395   C522    1.344   1_455 S
C395   F542    1.361   1_455 S
C396   F416    1.358   .     S
C396   C403    1.404   .     A
C396   C405    1.394   .     A
C397   C400    1.453   .     S
C397   C14     1.341   1_565 S
C397   H35     1.088   1_565 S
C398   C399    1.437   .     S
C399   O443    1.277   .     A
C399   O437    1.278   .     A
C400   O438    1.266   .     A
C400   O444    1.275   .     A
C401   C404    1.458   .     S
C401   O428    1.275   .     A
C401   O430    1.277   .     A
C402   O429    1.285   .     A
C402   O431    1.285   .     A
C402   C403    1.476   .     S
C403   C406    1.405   .     A
C405   F415    1.359   .     S
C405   C408    1.405   .     A
C406   F417    1.357   .     S
C406   C407    1.412   .     A
C407   C408    1.417   .     A
C407   C409    1.427   .     A
C408   C988    1.395   .     S
C409   C986    1.425   .     S
C410   C411    1.425   .     A
C410   C985    1.425   1_554 S
C411   O436    1.380   .     S
C411   C412    1.390   .     A
C412   H418    1.084   .     S
C412   C984    1.395   1_554 S
F414   C459    1.361   .     S
H422   O432    0.990   .     S
H424   O434    0.988   .     S
H425   O435    0.989   .     S
H426   O436    0.991   .     S
O427   Zn448   1.930   .     S
O427   Zn447   1.939   .     S
O427   Zn445   1.966   .     S
O427   Zn446   1.948   .     S
O428   Zn446   1.933   .     S
O429   Zn448   1.945   .     S
O430   Zn447   1.937   .     S
O431   Zn445   1.926   .     S
O432   C522    1.387   1_455 S
O433   C14     1.384   1_565 S
O433   H39     0.992   1_565 S
O437   Zn445   1.933   .     S
O438   Zn448   1.938   .     S
O439   Zn446   1.929   .     S
O440   Zn447   1.941   .     S
O441   Zn448   1.938   .     S
O442   Zn445   1.928   .     S
O443   Zn446   1.942   .     S
O444   Zn447   1.934   .     S
C449   O505    1.267   .     A
C449   O503    1.271   .     A
C449   C459    1.435   .     S
C450   C451    1.385   .     A
C450   H485    1.075   .     S
C450   C473    1.414   .     A
C451   H484    1.084   .     S
C451   C1029   1.392   .     S
C452   O506    1.283   .     A
C452   C458    1.471   .     S
C452   O504    1.287   .     A
C453   C454    1.417   .     A
C453   C455    1.402   .     A
C453   C1027   1.392   1_554 S
C454   C474    1.431   .     A
C454   C457    1.416   .     A
C455   F477    1.360   .     S
C455   C456    1.392   .     A
C456   O499    1.384   .     S
C456   C468    1.416   .     A
C457   C468    1.414   .     A
C457   O498    1.385   .     S
C458   C523    1.344   .     S
C458   O560    1.387   .     S
C460   F480    1.358   .     S
C460   C467    1.404   .     A
C460   C469    1.394   .     A
C461   C464    1.453   .     S
C461   C78     1.341   1_565 S
C461   H99     1.088   1_565 S
C462   C463    1.437   .     S
C463   O507    1.277   .     A
C463   O501    1.278   .     A
C464   O502    1.266   .     A
C464   O508    1.275   .     A
C465   C468    1.458   .     S
C465   O492    1.275   .     A
C465   O494    1.277   .     A
C466   O493    1.285   .     A
C466   O495    1.285   .     A
C466   C467    1.476   .     S
C467   C470    1.405   .     A
C469   F479    1.359   .     S
C469   C472    1.405   .     A
C470   F481    1.357   .     S
C470   C471    1.412   .     A
C471   C472    1.417   .     A
C471   C473    1.427   .     A
C472   C1052   1.395   .     S
C473   C1050   1.425   .     S
C474   C475    1.425   .     A
C474   C1049   1.425   1_554 S
C475   O500    1.380   .     S
C475   C476    1.390   .     A
C476   H482    1.084   .     S
C476   C1048   1.395   1_554 S
F478   C523    1.361   .     S
H486   O496    0.990   .     S
H488   O498    0.988   .     S
H489   O499    0.989   .     S
H490   O500    0.991   .     S
O491   Zn512   1.930   .     S
O491   Zn511   1.939   .     S
O491   Zn509   1.966   .     S
O491   Zn510   1.948   .     S
O492   Zn510   1.933   .     S
O493   Zn512   1.945   .     S
O494   Zn511   1.937   .     S
O495   Zn509   1.926   .     S
O497   C78     1.384   1_565 S
O497   H103    0.992   1_565 S
O501   Zn509   1.933   .     S
O502   Zn512   1.938   .     S
O503   Zn510   1.929   .     S
O504   Zn511   1.941   .     S
O505   Zn512   1.938   .     S
O506   Zn509   1.928   .     S
O507   Zn510   1.942   .     S
O508   Zn511   1.934   .     S
C513   O569    1.267   .     A
C513   O567    1.271   .     A
C513   C523    1.435   .     S
C514   C515    1.385   .     A
C514   H549    1.075   .     S
C514   C537    1.414   .     A
C515   H548    1.084   .     S
C515   C1093   1.392   .     S
C516   O570    1.283   .     A
C516   C522    1.471   .     S
C516   O568    1.287   .     A
C517   C518    1.417   .     A
C517   C519    1.402   .     A
C517   C1091   1.392   1_554 S
C518   C538    1.431   .     A
C518   C521    1.416   .     A
C519   F541    1.360   .     S
C519   C520    1.392   .     A
C520   O563    1.384   .     S
C520   C532    1.416   .     A
C521   C532    1.414   .     A
C521   O562    1.385   .     S
C522   C395    1.344   1_655 S
C522   O432    1.387   1_655 S
C524   F544    1.358   .     S
C524   C531    1.404   .     A
C524   C533    1.394   .     A
C525   C528    1.453   .     S
C525   C142    1.341   1_565 S
C525   H163    1.088   1_565 S
C526   C527    1.437   .     S
C527   O571    1.277   .     A
C527   O565    1.278   .     A
C528   O566    1.266   .     A
C528   O572    1.275   .     A
C529   C532    1.458   .     S
C529   O556    1.275   .     A
C529   O558    1.277   .     A
C530   O557    1.285   .     A
C530   O559    1.285   .     A
C530   C531    1.476   .     S
C531   C534    1.405   .     A
C533   F543    1.359   .     S
C533   C536    1.405   .     A
C534   F545    1.357   .     S
C534   C535    1.412   .     A
C535   C536    1.417   .     A
C535   C537    1.427   .     A
C536   C1116   1.395   .     S
C537   C1114   1.425   .     S
C538   C539    1.425   .     A
C538   C1113   1.425   1_554 S
C539   O564    1.380   .     S
C539   C540    1.390   .     A
C540   H546    1.084   .     S
C540   C1112   1.395   1_554 S
F542   C395    1.361   1_655 S
H550   O560    0.990   .     S
H552   O562    0.988   .     S
H553   O563    0.989   .     S
H554   O564    0.991   .     S
O555   Zn576   1.930   .     S
O555   Zn575   1.939   .     S
O555   Zn573   1.966   .     S
O555   Zn574   1.948   .     S
O556   Zn574   1.933   .     S
O557   Zn576   1.945   .     S
O558   Zn575   1.937   .     S
O559   Zn573   1.926   .     S
O561   C142    1.384   1_565 S
O561   H167    0.992   1_565 S
O565   Zn573   1.933   .     S
O566   Zn576   1.938   .     S
O567   Zn574   1.929   .     S
O568   Zn575   1.941   .     S
O569   Zn576   1.938   .     S
O570   Zn573   1.928   .     S
O571   Zn574   1.942   .     S
O572   Zn575   1.934   .     S
C577   O633    1.267   .     A
C577   O631    1.271   .     A
C577   C587    1.435   .     S
C578   C579    1.385   .     A
C578   H613    1.075   .     S
C578   C601    1.414   .     A
C579   H612    1.084   .     S
C579   C5      1.392   1_556 S
C580   O634    1.283   .     A
C580   C586    1.471   .     S
C580   O632    1.287   .     A
C581   C582    1.417   .     A
C581   C583    1.402   .     A
C582   C602    1.431   .     A
C582   C585    1.416   .     A
C583   F605    1.360   .     S
C583   C584    1.392   .     A
C584   O627    1.384   .     S
C584   C596    1.416   .     A
C585   C596    1.414   .     A
C585   O626    1.385   .     S
C586   C651    1.344   .     S
C586   O688    1.387   .     S
C587   C714    1.344   1_455 S
C587   F734    1.361   1_455 S
C588   F608    1.358   .     S
C588   C595    1.404   .     A
C588   C597    1.394   .     A
C589   C592    1.453   .     S
C589   C782    1.341   .     S
C589   H803    1.088   .     S
C590   C591    1.437   .     S
C590   C973    1.341   1_545 S
C590   O1009   1.384   1_545 S
C591   O635    1.277   .     A
C591   O629    1.278   .     A
C592   O630    1.266   .     A
C592   O636    1.275   .     A
C593   C596    1.458   .     S
C593   O620    1.275   .     A
C593   O622    1.277   .     A
C594   O621    1.285   .     A
C594   O623    1.285   .     A
C594   C595    1.476   .     S
C595   C598    1.405   .     A
C597   F607    1.359   .     S
C597   C600    1.405   .     A
C598   F609    1.357   .     S
C598   C599    1.412   .     A
C599   C600    1.417   .     A
C599   C601    1.427   .     A
C600   C28     1.395   1_556 S
C601   C26     1.425   1_556 S
C602   C603    1.425   .     A
C603   O628    1.380   .     S
C603   C604    1.390   .     A
C604   H610    1.084   .     S
F606   C651    1.361   .     S
H611   C973    1.088   1_545 S
H614   O624    0.990   .     S
H615   O1009   0.992   1_545 S
H616   O626    0.988   .     S
H617   O627    0.989   .     S
H618   O628    0.991   .     S
O619   Zn640   1.930   .     S
O619   Zn639   1.939   .     S
O619   Zn637   1.966   .     S
O619   Zn638   1.948   .     S
O620   Zn638   1.933   .     S
O621   Zn640   1.945   .     S
O622   Zn639   1.937   .     S
O623   Zn637   1.926   .     S
O624   C714    1.387   1_455 S
O625   C782    1.384   .     S
O625   H807    0.992   .     S
O629   Zn637   1.933   .     S
O630   Zn640   1.938   .     S
O631   Zn638   1.929   .     S
O632   Zn639   1.941   .     S
O633   Zn640   1.938   .     S
O634   Zn637   1.928   .     S
O635   Zn638   1.942   .     S
O636   Zn639   1.934   .     S
C641   O697    1.267   .     A
C641   O695    1.271   .     A
C641   C651    1.435   .     S
C642   C643    1.385   .     A
C642   H677    1.075   .     S
C642   C665    1.414   .     A
C643   H676    1.084   .     S
C643   C69     1.392   1_556 S
C644   O698    1.283   .     A
C644   C650    1.471   .     S
C644   O696    1.287   .     A
C645   C646    1.417   .     A
C645   C647    1.402   .     A
C646   C666    1.431   .     A
C646   C649    1.416   .     A
C647   F669    1.360   .     S
C647   C648    1.392   .     A
C648   O691    1.384   .     S
C648   C660    1.416   .     A
C649   C660    1.414   .     A
C649   O690    1.385   .     S
C650   C715    1.344   .     S
C650   O752    1.387   .     S
C652   F672    1.358   .     S
C652   C659    1.404   .     A
C652   C661    1.394   .     A
C653   C656    1.453   .     S
C653   C846    1.341   .     S
C653   H867    1.088   .     S
C654   C655    1.437   .     S
C654   C1037   1.341   1_545 S
C654   O1073   1.384   1_545 S
C655   O699    1.277   .     A
C655   O693    1.278   .     A
C656   O694    1.266   .     A
C656   O700    1.275   .     A
C657   C660    1.458   .     S
C657   O684    1.275   .     A
C657   O686    1.277   .     A
C658   O685    1.285   .     A
C658   O687    1.285   .     A
C658   C659    1.476   .     S
C659   C662    1.405   .     A
C661   F671    1.359   .     S
C661   C664    1.405   .     A
C662   F673    1.357   .     S
C662   C663    1.412   .     A
C663   C664    1.417   .     A
C663   C665    1.427   .     A
C664   C92     1.395   1_556 S
C665   C90     1.425   1_556 S
C666   C667    1.425   .     A
C667   O692    1.380   .     S
C667   C668    1.390   .     A
C668   H674    1.084   .     S
F670   C715    1.361   .     S
H675   C1037   1.088   1_545 S
H678   O688    0.990   .     S
H679   O1073   0.992   1_545 S
H680   O690    0.988   .     S
H681   O691    0.989   .     S
H682   O692    0.991   .     S
O683   Zn704   1.930   .     S
O683   Zn703   1.939   .     S
O683   Zn701   1.966   .     S
O683   Zn702   1.948   .     S
O684   Zn702   1.933   .     S
O685   Zn704   1.945   .     S
O686   Zn703   1.937   .     S
O687   Zn701   1.926   .     S
O689   C846    1.384   .     S
O689   H871    0.992   .     S
O693   Zn701   1.933   .     S
O694   Zn704   1.938   .     S
O695   Zn702   1.929   .     S
O696   Zn703   1.941   .     S
O697   Zn704   1.938   .     S
O698   Zn701   1.928   .     S
O699   Zn702   1.942   .     S
O700   Zn703   1.934   .     S
C705   O761    1.267   .     A
C705   O759    1.271   .     A
C705   C715    1.435   .     S
C706   C707    1.385   .     A
C706   H741    1.075   .     S
C706   C729    1.414   .     A
C707   H740    1.084   .     S
C707   C133    1.392   1_556 S
C708   O762    1.283   .     A
C708   C714    1.471   .     S
C708   O760    1.287   .     A
C709   C710    1.417   .     A
C709   C711    1.402   .     A
C710   C730    1.431   .     A
C710   C713    1.416   .     A
C711   F733    1.360   .     S
C711   C712    1.392   .     A
C712   O755    1.384   .     S
C712   C724    1.416   .     A
C713   C724    1.414   .     A
C713   O754    1.385   .     S
C714   C587    1.344   1_655 S
C714   O624    1.387   1_655 S
C716   F736    1.358   .     S
C716   C723    1.404   .     A
C716   C725    1.394   .     A
C717   C720    1.453   .     S
C717   C910    1.341   .     S
C717   H931    1.088   .     S
C718   C719    1.437   .     S
C718   C1101   1.341   1_545 S
C718   O1137   1.384   1_545 S
C719   O763    1.277   .     A
C719   O757    1.278   .     A
C720   O758    1.266   .     A
C720   O764    1.275   .     A
C721   C724    1.458   .     S
C721   O748    1.275   .     A
C721   O750    1.277   .     A
C722   O749    1.285   .     A
C722   O751    1.285   .     A
C722   C723    1.476   .     S
C723   C726    1.405   .     A
C725   F735    1.359   .     S
C725   C728    1.405   .     A
C726   F737    1.357   .     S
C726   C727    1.412   .     A
C727   C728    1.417   .     A
C727   C729    1.427   .     A
C728   C156    1.395   1_556 S
C729   C154    1.425   1_556 S
C730   C731    1.425   .     A
C731   O756    1.380   .     S
C731   C732    1.390   .     A
C732   H738    1.084   .     S
F734   C587    1.361   1_655 S
H739   C1101   1.088   1_545 S
H742   O752    0.990   .     S
H743   O1137   0.992   1_545 S
H744   O754    0.988   .     S
H745   O755    0.989   .     S
H746   O756    0.991   .     S
O747   Zn768   1.930   .     S
O747   Zn767   1.939   .     S
O747   Zn765   1.966   .     S
O747   Zn766   1.948   .     S
O748   Zn766   1.933   .     S
O749   Zn768   1.945   .     S
O750   Zn767   1.937   .     S
O751   Zn765   1.926   .     S
O753   C910    1.384   .     S
O753   H935    0.992   .     S
O757   Zn765   1.933   .     S
O758   Zn768   1.938   .     S
O759   Zn766   1.929   .     S
O760   Zn767   1.941   .     S
O761   Zn768   1.938   .     S
O762   Zn765   1.928   .     S
O763   Zn766   1.942   .     S
O764   Zn767   1.934   .     S
C769   O825    1.267   .     A
C769   O823    1.271   .     A
C769   C779    1.435   .     S
C770   C771    1.385   .     A
C770   H805    1.075   .     S
C770   C793    1.414   .     A
C771   H804    1.084   .     S
C771   C197    1.392   1_556 S
C772   O826    1.283   .     A
C772   C778    1.471   .     S
C772   O824    1.287   .     A
C773   C774    1.417   .     A
C773   C775    1.402   .     A
C774   C794    1.431   .     A
C774   C777    1.416   .     A
C775   F797    1.360   .     S
C775   C776    1.392   .     A
C776   O819    1.384   .     S
C776   C788    1.416   .     A
C777   C788    1.414   .     A
C777   O818    1.385   .     S
C778   C843    1.344   .     S
C778   O880    1.387   .     S
C779   C906    1.344   1_455 S
C779   F926    1.361   1_455 S
C780   F800    1.358   .     S
C780   C787    1.404   .     A
C780   C789    1.394   .     A
C781   C784    1.453   .     S
C781   C974    1.341   .     S
C781   H995    1.088   .     S
C782   C783    1.437   .     S
C783   O827    1.277   .     A
C783   O821    1.278   .     A
C784   O822    1.266   .     A
C784   O828    1.275   .     A
C785   C788    1.458   .     S
C785   O812    1.275   .     A
C785   O814    1.277   .     A
C786   O813    1.285   .     A
C786   O815    1.285   .     A
C786   C787    1.476   .     S
C787   C790    1.405   .     A
C789   F799    1.359   .     S
C789   C792    1.405   .     A
C790   F801    1.357   .     S
C790   C791    1.412   .     A
C791   C792    1.417   .     A
C791   C793    1.427   .     A
C792   C220    1.395   1_556 S
C793   C218    1.425   1_556 S
C794   C795    1.425   .     A
C795   O820    1.380   .     S
C795   C796    1.390   .     A
C796   H802    1.084   .     S
F798   C843    1.361   .     S
H806   O816    0.990   .     S
H808   O818    0.988   .     S
H809   O819    0.989   .     S
H810   O820    0.991   .     S
O811   Zn832   1.930   .     S
O811   Zn831   1.939   .     S
O811   Zn829   1.966   .     S
O811   Zn830   1.948   .     S
O812   Zn830   1.933   .     S
O813   Zn832   1.945   .     S
O814   Zn831   1.937   .     S
O815   Zn829   1.926   .     S
O816   C906    1.387   1_455 S
O817   C974    1.384   .     S
O817   H999    0.992   .     S
O821   Zn829   1.933   .     S
O822   Zn832   1.938   .     S
O823   Zn830   1.929   .     S
O824   Zn831   1.941   .     S
O825   Zn832   1.938   .     S
O826   Zn829   1.928   .     S
O827   Zn830   1.942   .     S
O828   Zn831   1.934   .     S
C833   O889    1.267   .     A
C833   O887    1.271   .     A
C833   C843    1.435   .     S
C834   C835    1.385   .     A
C834   H869    1.075   .     S
C834   C857    1.414   .     A
C835   H868    1.084   .     S
C835   C261    1.392   1_556 S
C836   O890    1.283   .     A
C836   C842    1.471   .     S
C836   O888    1.287   .     A
C837   C838    1.417   .     A
C837   C839    1.402   .     A
C838   C858    1.431   .     A
C838   C841    1.416   .     A
C839   F861    1.360   .     S
C839   C840    1.392   .     A
C840   O883    1.384   .     S
C840   C852    1.416   .     A
C841   C852    1.414   .     A
C841   O882    1.385   .     S
C842   C907    1.344   .     S
C842   O944    1.387   .     S
C844   F864    1.358   .     S
C844   C851    1.404   .     A
C844   C853    1.394   .     A
C845   C848    1.453   .     S
C845   C1038   1.341   .     S
C845   H1059   1.088   .     S
C846   C847    1.437   .     S
C847   O891    1.277   .     A
C847   O885    1.278   .     A
C848   O886    1.266   .     A
C848   O892    1.275   .     A
C849   C852    1.458   .     S
C849   O876    1.275   .     A
C849   O878    1.277   .     A
C850   O877    1.285   .     A
C850   O879    1.285   .     A
C850   C851    1.476   .     S
C851   C854    1.405   .     A
C853   F863    1.359   .     S
C853   C856    1.405   .     A
C854   F865    1.357   .     S
C854   C855    1.412   .     A
C855   C856    1.417   .     A
C855   C857    1.427   .     A
C856   C284    1.395   1_556 S
C857   C282    1.425   1_556 S
C858   C859    1.425   .     A
C859   O884    1.380   .     S
C859   C860    1.390   .     A
C860   H866    1.084   .     S
F862   C907    1.361   .     S
H870   O880    0.990   .     S
H872   O882    0.988   .     S
H873   O883    0.989   .     S
H874   O884    0.991   .     S
O875   Zn896   1.930   .     S
O875   Zn895   1.939   .     S
O875   Zn893   1.966   .     S
O875   Zn894   1.948   .     S
O876   Zn894   1.933   .     S
O877   Zn896   1.945   .     S
O878   Zn895   1.937   .     S
O879   Zn893   1.926   .     S
O881   C1038   1.384   .     S
O881   H1063   0.992   .     S
O885   Zn893   1.933   .     S
O886   Zn896   1.938   .     S
O887   Zn894   1.929   .     S
O888   Zn895   1.941   .     S
O889   Zn896   1.938   .     S
O890   Zn893   1.928   .     S
O891   Zn894   1.942   .     S
O892   Zn895   1.934   .     S
C897   O953    1.267   .     A
C897   O951    1.271   .     A
C897   C907    1.435   .     S
C898   C899    1.385   .     A
C898   H933    1.075   .     S
C898   C921    1.414   .     A
C899   H932    1.084   .     S
C899   C325    1.392   1_556 S
C900   O954    1.283   .     A
C900   C906    1.471   .     S
C900   O952    1.287   .     A
C901   C902    1.417   .     A
C901   C903    1.402   .     A
C902   C922    1.431   .     A
C902   C905    1.416   .     A
C903   F925    1.360   .     S
C903   C904    1.392   .     A
C904   O947    1.384   .     S
C904   C916    1.416   .     A
C905   C916    1.414   .     A
C905   O946    1.385   .     S
C906   C779    1.344   1_655 S
C906   O816    1.387   1_655 S
C908   F928    1.358   .     S
C908   C915    1.404   .     A
C908   C917    1.394   .     A
C909   C912    1.453   .     S
C909   C1102   1.341   .     S
C909   H1123   1.088   .     S
C910   C911    1.437   .     S
C911   O955    1.277   .     A
C911   O949    1.278   .     A
C912   O950    1.266   .     A
C912   O956    1.275   .     A
C913   C916    1.458   .     S
C913   O940    1.275   .     A
C913   O942    1.277   .     A
C914   O941    1.285   .     A
C914   O943    1.285   .     A
C914   C915    1.476   .     S
C915   C918    1.405   .     A
C917   F927    1.359   .     S
C917   C920    1.405   .     A
C918   F929    1.357   .     S
C918   C919    1.412   .     A
C919   C920    1.417   .     A
C919   C921    1.427   .     A
C920   C348    1.395   1_556 S
C921   C346    1.425   1_556 S
C922   C923    1.425   .     A
C923   O948    1.380   .     S
C923   C924    1.390   .     A
C924   H930    1.084   .     S
F926   C779    1.361   1_655 S
H934   O944    0.990   .     S
H936   O946    0.988   .     S
H937   O947    0.989   .     S
H938   O948    0.991   .     S
O939   Zn960   1.930   .     S
O939   Zn959   1.939   .     S
O939   Zn957   1.966   .     S
O939   Zn958   1.948   .     S
O940   Zn958   1.933   .     S
O941   Zn960   1.945   .     S
O942   Zn959   1.937   .     S
O943   Zn957   1.926   .     S
O945   C1102   1.384   .     S
O945   H1127   0.992   .     S
O949   Zn957   1.933   .     S
O950   Zn960   1.938   .     S
O951   Zn958   1.929   .     S
O952   Zn959   1.941   .     S
O953   Zn960   1.938   .     S
O954   Zn957   1.928   .     S
O955   Zn958   1.942   .     S
O956   Zn959   1.934   .     S
C961   O1017   1.267   .     A
C961   O1015   1.271   .     A
C961   C971    1.435   .     S
C962   C963    1.385   .     A
C962   H997    1.075   .     S
C962   C985    1.414   .     A
C963   H996    1.084   .     S
C963   C389    1.392   1_556 S
C964   O1018   1.283   .     A
C964   C970    1.471   .     S
C964   O1016   1.287   .     A
C965   C966    1.417   .     A
C965   C967    1.402   .     A
C966   C986    1.431   .     A
C966   C969    1.416   .     A
C967   F989    1.360   .     S
C967   C968    1.392   .     A
C968   O1011   1.384   .     S
C968   C980    1.416   .     A
C969   C980    1.414   .     A
C969   O1010   1.385   .     S
C970   C1035   1.344   .     S
C970   O1072   1.387   .     S
C971   C1098   1.344   1_455 S
C971   F1118   1.361   1_455 S
C972   F992    1.358   .     S
C972   C979    1.404   .     A
C972   C981    1.394   .     A
C973   C976    1.453   .     S
C973   C590    1.341   1_565 S
C973   H611    1.088   1_565 S
C974   C975    1.437   .     S
C975   O1019   1.277   .     A
C975   O1013   1.278   .     A
C976   O1014   1.266   .     A
C976   O1020   1.275   .     A
C977   C980    1.458   .     S
C977   O1004   1.275   .     A
C977   O1006   1.277   .     A
C978   O1005   1.285   .     A
C978   O1007   1.285   .     A
C978   C979    1.476   .     S
C979   C982    1.405   .     A
C981   F991    1.359   .     S
C981   C984    1.405   .     A
C982   F993    1.357   .     S
C982   C983    1.412   .     A
C983   C984    1.417   .     A
C983   C985    1.427   .     A
C984   C412    1.395   1_556 S
C985   C410    1.425   1_556 S
C986   C987    1.425   .     A
C987   O1012   1.380   .     S
C987   C988    1.390   .     A
C988   H994    1.084   .     S
F990   C1035   1.361   .     S
H998   O1008   0.990   .     S
H1000  O1010   0.988   .     S
H1001  O1011   0.989   .     S
H1002  O1012   0.991   .     S
O1003  Zn1024  1.930   .     S
O1003  Zn1023  1.939   .     S
O1003  Zn1021  1.966   .     S
O1003  Zn1022  1.948   .     S
O1004  Zn1022  1.933   .     S
O1005  Zn1024  1.945   .     S
O1006  Zn1023  1.937   .     S
O1007  Zn1021  1.926   .     S
O1008  C1098   1.387   1_455 S
O1009  C590    1.384   1_565 S
O1009  H615    0.992   1_565 S
O1013  Zn1021  1.933   .     S
O1014  Zn1024  1.938   .     S
O1015  Zn1022  1.929   .     S
O1016  Zn1023  1.941   .     S
O1017  Zn1024  1.938   .     S
O1018  Zn1021  1.928   .     S
O1019  Zn1022  1.942   .     S
O1020  Zn1023  1.934   .     S
C1025  O1081   1.267   .     A
C1025  O1079   1.271   .     A
C1025  C1035   1.435   .     S
C1026  C1027   1.385   .     A
C1026  H1061   1.075   .     S
C1026  C1049   1.414   .     A
C1027  H1060   1.084   .     S
C1027  C453    1.392   1_556 S
C1028  O1082   1.283   .     A
C1028  C1034   1.471   .     S
C1028  O1080   1.287   .     A
C1029  C1030   1.417   .     A
C1029  C1031   1.402   .     A
C1030  C1050   1.431   .     A
C1030  C1033   1.416   .     A
C1031  F1053   1.360   .     S
C1031  C1032   1.392   .     A
C1032  O1075   1.384   .     S
C1032  C1044   1.416   .     A
C1033  C1044   1.414   .     A
C1033  O1074   1.385   .     S
C1034  C1099   1.344   .     S
C1034  O1136   1.387   .     S
C1036  F1056   1.358   .     S
C1036  C1043   1.404   .     A
C1036  C1045   1.394   .     A
C1037  C1040   1.453   .     S
C1037  C654    1.341   1_565 S
C1037  H675    1.088   1_565 S
C1038  C1039   1.437   .     S
C1039  O1083   1.277   .     A
C1039  O1077   1.278   .     A
C1040  O1078   1.266   .     A
C1040  O1084   1.275   .     A
C1041  C1044   1.458   .     S
C1041  O1068   1.275   .     A
C1041  O1070   1.277   .     A
C1042  O1069   1.285   .     A
C1042  O1071   1.285   .     A
C1042  C1043   1.476   .     S
C1043  C1046   1.405   .     A
C1045  F1055   1.359   .     S
C1045  C1048   1.405   .     A
C1046  F1057   1.357   .     S
C1046  C1047   1.412   .     A
C1047  C1048   1.417   .     A
C1047  C1049   1.427   .     A
C1048  C476    1.395   1_556 S
C1049  C474    1.425   1_556 S
C1050  C1051   1.425   .     A
C1051  O1076   1.380   .     S
C1051  C1052   1.390   .     A
C1052  H1058   1.084   .     S
F1054  C1099   1.361   .     S
H1062  O1072   0.990   .     S
H1064  O1074   0.988   .     S
H1065  O1075   0.989   .     S
H1066  O1076   0.991   .     S
O1067  Zn1088  1.930   .     S
O1067  Zn1087  1.939   .     S
O1067  Zn1085  1.966   .     S
O1067  Zn1086  1.948   .     S
O1068  Zn1086  1.933   .     S
O1069  Zn1088  1.945   .     S
O1070  Zn1087  1.937   .     S
O1071  Zn1085  1.926   .     S
O1073  C654    1.384   1_565 S
O1073  H679    0.992   1_565 S
O1077  Zn1085  1.933   .     S
O1078  Zn1088  1.938   .     S
O1079  Zn1086  1.929   .     S
O1080  Zn1087  1.941   .     S
O1081  Zn1088  1.938   .     S
O1082  Zn1085  1.928   .     S
O1083  Zn1086  1.942   .     S
O1084  Zn1087  1.934   .     S
C1089  O1145   1.267   .     A
C1089  O1143   1.271   .     A
C1089  C1099   1.435   .     S
C1090  C1091   1.385   .     A
C1090  H1125   1.075   .     S
C1090  C1113   1.414   .     A
C1091  H1124   1.084   .     S
C1091  C517    1.392   1_556 S
C1092  O1146   1.283   .     A
C1092  C1098   1.471   .     S
C1092  O1144   1.287   .     A
C1093  C1094   1.417   .     A
C1093  C1095   1.402   .     A
C1094  C1114   1.431   .     A
C1094  C1097   1.416   .     A
C1095  F1117   1.360   .     S
C1095  C1096   1.392   .     A
C1096  O1139   1.384   .     S
C1096  C1108   1.416   .     A
C1097  C1108   1.414   .     A
C1097  O1138   1.385   .     S
C1098  C971    1.344   1_655 S
C1098  O1008   1.387   1_655 S
C1100  F1120   1.358   .     S
C1100  C1107   1.404   .     A
C1100  C1109   1.394   .     A
C1101  C1104   1.453   .     S
C1101  C718    1.341   1_565 S
C1101  H739    1.088   1_565 S
C1102  C1103   1.437   .     S
C1103  O1147   1.277   .     A
C1103  O1141   1.278   .     A
C1104  O1142   1.266   .     A
C1104  O1148   1.275   .     A
C1105  C1108   1.458   .     S
C1105  O1132   1.275   .     A
C1105  O1134   1.277   .     A
C1106  O1133   1.285   .     A
C1106  O1135   1.285   .     A
C1106  C1107   1.476   .     S
C1107  C1110   1.405   .     A
C1109  F1119   1.359   .     S
C1109  C1112   1.405   .     A
C1110  F1121   1.357   .     S
C1110  C1111   1.412   .     A
C1111  C1112   1.417   .     A
C1111  C1113   1.427   .     A
C1112  C540    1.395   1_556 S
C1113  C538    1.425   1_556 S
C1114  C1115   1.425   .     A
C1115  O1140   1.380   .     S
C1115  C1116   1.390   .     A
C1116  H1122   1.084   .     S
F1118  C971    1.361   1_655 S
H1126  O1136   0.990   .     S
H1128  O1138   0.988   .     S
H1129  O1139   0.989   .     S
H1130  O1140   0.991   .     S
O1131  Zn1152  1.930   .     S
O1131  Zn1151  1.939   .     S
O1131  Zn1149  1.966   .     S
O1131  Zn1150  1.948   .     S
O1132  Zn1150  1.933   .     S
O1133  Zn1152  1.945   .     S
O1134  Zn1151  1.937   .     S
O1135  Zn1149  1.926   .     S
O1137  C718    1.384   1_565 S
O1137  H743    0.992   1_565 S
O1141  Zn1149  1.933   .     S
O1142  Zn1152  1.938   .     S
O1143  Zn1150  1.929   .     S
O1144  Zn1151  1.941   .     S
O1145  Zn1152  1.938   .     S
O1146  Zn1149  1.928   .     S
O1147  Zn1150  1.942   .     S
O1148  Zn1151  1.934   .     S
