data_str_m1_o10_o18_pcu_sym.103
_audit_creation_date              2020-01-03
_audit_creation_method            'Materials Studio'
_symmetry_space_group_name_H-M    'P1'
_symmetry_Int_Tables_number       1
_symmetry_cell_setting            triclinic
loop_
_symmetry_equiv_pos_as_xyz
  x,y,z
_cell_length_a                    32.5621
_cell_length_b                    32.5341
_cell_length_c                    35.6507
_cell_angle_alpha                 98.1950
_cell_angle_beta                  73.0232
_cell_angle_gamma                 98.5881
loop_
_atom_site_label
_atom_site_type_symbol
_atom_site_fract_x
_atom_site_fract_y
_atom_site_fract_z
_atom_site_U_iso_or_equiv
_atom_site_adp_type
_atom_site_occupancy
Zn1    Zn    0.19244   0.14090   0.28278   0.00000  Uiso   1.00
Zn2    Zn    0.13459   0.12378   0.22258   0.00000  Uiso   1.00
Zn3    Zn    0.21166   0.19664   0.21188   0.00000  Uiso   1.00
Zn4    Zn    0.12798   0.20535   0.28277   0.00000  Uiso   1.00
O5     O     0.16667   0.16667   0.25000   0.00000  Uiso   1.00
O6     O     0.06990   0.18960   0.27820   0.00000  Uiso   1.00
O7     O     0.25440   0.15277   0.26768   0.00000  Uiso   1.00
O8     O     0.13800   0.06903   0.23607   0.00000  Uiso   1.00
O9     O     0.20437   0.25527   0.21806   0.00000  Uiso   1.00
O10    O     0.15693   0.12393   0.16625   0.00000  Uiso   1.00
O11    O     0.12687   0.20646   0.33749   0.00000  Uiso   1.00
O12    O     0.21088   0.17493   0.15877   0.00000  Uiso   1.00
O13    O     0.17198   0.16135   0.33749   0.00000  Uiso   1.00
O14    O     0.17849   0.08101   0.27821   0.00000  Uiso   1.00
O15    O     0.14581   0.26136   0.26767   0.00000  Uiso   1.00
O16    O     0.07452   0.13251   0.23607   0.00000  Uiso   1.00
O17    O     0.26785   0.19179   0.21806   0.00000  Uiso   1.00
C18    C     0.05247   0.15991   0.25877   0.00000  Uiso   1.00
C19    C     0.28107   0.17357   0.24120   0.00000  Uiso   1.00
C20    C     0.15592   0.05610   0.25890   0.00000  Uiso   1.00
C21    C     0.17687   0.27769   0.24135   0.00000  Uiso   1.00
C22    C     0.18823   0.14526   0.14398   0.00000  Uiso   1.00
C23    C     0.14521   0.18755   0.35625   0.00000  Uiso   1.00
C24    C     0.13190   0.19232   0.39963   0.00000  Uiso   1.00
C25    C     0.19644   0.13719   0.10140   0.00000  Uiso   1.00
C26    C     0.08142   0.21398   0.46158   0.00000  Uiso   1.00
C27    C     0.09587   0.21271   0.42068   0.00000  Uiso   1.00
C28    C     0.15319   0.17320   0.42002   0.00000  Uiso   1.00
C29    C     0.13729   0.17131   0.46103   0.00000  Uiso   1.00
C30    C     0.10263   0.19460   0.48237   0.00000  Uiso   1.00
C31    C     0.15711   0.14899   0.48131   0.00000  Uiso   1.00
C32    C     0.14827   0.15722   0.02287   0.00000  Uiso   1.00
C33    C     0.11337   0.18028   0.04344   0.00000  Uiso   1.00
C34    C     0.09016   0.19805   0.02384   0.00000  Uiso   1.00
C35    C     0.18577   0.11895   0.46121   0.00000  Uiso   1.00
C36    C     0.21626   0.10981   0.47880   0.00000  Uiso   1.00
C37    C     0.21022   0.12043   0.01962   0.00000  Uiso   1.00
C38    C     0.17484   0.14237   0.04230   0.00000  Uiso   1.00
C39    C     0.23805   0.10769   0.03844   0.00000  Uiso   1.00
C40    C     0.23152   0.11659   0.07892   0.00000  Uiso   1.00
C41    C     0.16834   0.14978   0.08353   0.00000  Uiso   1.00
H42    H     0.14211   0.16565   0.10288   0.00000  Uiso   1.00
H43    H     0.25325   0.10657   0.09286   0.00000  Uiso   1.00
H44    H     0.05333   0.22993   0.47653   0.00000  Uiso   1.00
H45    H     0.07856   0.22745   0.40551   0.00000  Uiso   1.00
H46    H     0.18269   0.16026   0.40347   0.00000  Uiso   1.00
H47    H     0.10337   0.18586   0.07507   0.00000  Uiso   1.00
H48    H     0.26478   0.09038   0.02207   0.00000  Uiso   1.00
C49    C     0.32705   0.17614   0.23757   0.00000  Uiso   1.00
H50    H     0.01680   0.19318   0.21471   0.00000  Uiso   1.00
C51    C     0.00708   0.15757   0.26225   0.00000  Uiso   1.00
H52    H     0.31799   0.14060   0.28547   0.00000  Uiso   1.00
C53    C     0.18096   0.32218   0.23814   0.00000  Uiso   1.00
H54    H     0.20815   0.00280   0.21610   0.00000  Uiso   1.00
C55    C     0.15154   0.01208   0.26212   0.00000  Uiso   1.00
H56    H     0.12394   0.33220   0.28420   0.00000  Uiso   1.00
N57    N     0.05583   0.22185   0.04686   0.00000  Uiso   1.00
O58    O     0.02764   0.20686   0.07730   0.00000  Uiso   1.00
O59    O     0.05763   0.26113   0.04234   0.00000  Uiso   1.00
O60    O     0.24939   0.08673   0.45678   0.00000  Uiso   1.00
C61    C     0.28864   0.11359   0.44638   0.00000  Uiso   1.00
H62    H     0.31539   0.09551   0.44536   0.00000  Uiso   1.00
H63    H     0.29065   0.14138   0.46840   0.00000  Uiso   1.00
C64    C     0.29620   0.12789   0.40551   0.00000  Uiso   1.00
H65    H     0.29667   0.10010   0.38335   0.00000  Uiso   1.00
H66    H     0.26957   0.14576   0.40575   0.00000  Uiso   1.00
C67    C     0.00563   0.15570   0.39348   0.00000  Uiso   1.00
H68    H     0.00528   0.18435   0.41458   0.00000  Uiso   1.00
H69    H     0.01045   0.16506   0.36359   0.00000  Uiso   1.00
H70    H     0.03302   0.13868   0.39288   0.00000  Uiso   1.00
N71    N     0.17929   0.09326   0.42639   0.00000  Uiso   1.00
O72    O     0.14026   0.08236   0.42309   0.00000  Uiso   1.00
O73    O     0.21106   0.07671   0.40019   0.00000  Uiso   1.00
Zn74   Zn    0.52577   0.14090   0.28278   0.00000  Uiso   1.00
Zn75   Zn    0.46792   0.12378   0.22258   0.00000  Uiso   1.00
Zn76   Zn    0.54500   0.19664   0.21188   0.00000  Uiso   1.00
Zn77   Zn    0.46131   0.20535   0.28277   0.00000  Uiso   1.00
O78    O     0.50000   0.16667   0.25000   0.00000  Uiso   1.00
O79    O     0.40323   0.18960   0.27820   0.00000  Uiso   1.00
O80    O     0.58773   0.15277   0.26768   0.00000  Uiso   1.00
O81    O     0.47133   0.06903   0.23607   0.00000  Uiso   1.00
O82    O     0.53771   0.25527   0.21806   0.00000  Uiso   1.00
O83    O     0.49027   0.12393   0.16625   0.00000  Uiso   1.00
O84    O     0.46020   0.20646   0.33749   0.00000  Uiso   1.00
O85    O     0.54421   0.17493   0.15877   0.00000  Uiso   1.00
O86    O     0.50532   0.16135   0.33749   0.00000  Uiso   1.00
O87    O     0.51182   0.08101   0.27821   0.00000  Uiso   1.00
O88    O     0.47914   0.26136   0.26767   0.00000  Uiso   1.00
O89    O     0.40785   0.13251   0.23607   0.00000  Uiso   1.00
O90    O     0.60119   0.19179   0.21806   0.00000  Uiso   1.00
C91    C     0.38580   0.15991   0.25877   0.00000  Uiso   1.00
C92    C     0.61440   0.17357   0.24120   0.00000  Uiso   1.00
C93    C     0.48926   0.05610   0.25890   0.00000  Uiso   1.00
C94    C     0.51021   0.27769   0.24135   0.00000  Uiso   1.00
C95    C     0.52156   0.14526   0.14398   0.00000  Uiso   1.00
C96    C     0.47854   0.18755   0.35625   0.00000  Uiso   1.00
C97    C     0.46524   0.19232   0.39963   0.00000  Uiso   1.00
C98    C     0.52977   0.13719   0.10140   0.00000  Uiso   1.00
C99    C     0.41475   0.21398   0.46158   0.00000  Uiso   1.00
C100   C     0.42920   0.21271   0.42068   0.00000  Uiso   1.00
C101   C     0.48653   0.17320   0.42002   0.00000  Uiso   1.00
C102   C     0.47063   0.17131   0.46103   0.00000  Uiso   1.00
C103   C     0.43596   0.19460   0.48237   0.00000  Uiso   1.00
C104   C     0.49044   0.14899   0.48131   0.00000  Uiso   1.00
C105   C     0.48160   0.15722   0.02287   0.00000  Uiso   1.00
C106   C     0.44671   0.18028   0.04344   0.00000  Uiso   1.00
C107   C     0.42349   0.19805   0.02384   0.00000  Uiso   1.00
C108   C     0.51910   0.11895   0.46121   0.00000  Uiso   1.00
C109   C     0.54959   0.10981   0.47880   0.00000  Uiso   1.00
C110   C     0.54355   0.12043   0.01962   0.00000  Uiso   1.00
C111   C     0.50817   0.14237   0.04230   0.00000  Uiso   1.00
C112   C     0.57138   0.10769   0.03844   0.00000  Uiso   1.00
C113   C     0.56485   0.11659   0.07892   0.00000  Uiso   1.00
C114   C     0.50168   0.14978   0.08353   0.00000  Uiso   1.00
H115   H     0.47544   0.16565   0.10288   0.00000  Uiso   1.00
H116   H     0.58658   0.10657   0.09286   0.00000  Uiso   1.00
H117   H     0.38666   0.22993   0.47653   0.00000  Uiso   1.00
H118   H     0.41190   0.22745   0.40551   0.00000  Uiso   1.00
H119   H     0.51602   0.16026   0.40347   0.00000  Uiso   1.00
H120   H     0.43670   0.18586   0.07507   0.00000  Uiso   1.00
H121   H     0.59811   0.09038   0.02207   0.00000  Uiso   1.00
C122   C     0.66038   0.17614   0.23757   0.00000  Uiso   1.00
H123   H     0.35013   0.19318   0.21471   0.00000  Uiso   1.00
C124   C     0.34042   0.15757   0.26225   0.00000  Uiso   1.00
H125   H     0.65133   0.14060   0.28547   0.00000  Uiso   1.00
C126   C     0.51429   0.32218   0.23814   0.00000  Uiso   1.00
H127   H     0.54148   0.00280   0.21610   0.00000  Uiso   1.00
C128   C     0.48487   0.01208   0.26212   0.00000  Uiso   1.00
H129   H     0.45728   0.33220   0.28420   0.00000  Uiso   1.00
N130   N     0.38916   0.22185   0.04686   0.00000  Uiso   1.00
O131   O     0.36097   0.20686   0.07730   0.00000  Uiso   1.00
O132   O     0.39096   0.26113   0.04234   0.00000  Uiso   1.00
O133   O     0.58272   0.08673   0.45678   0.00000  Uiso   1.00
C134   C     0.62197   0.11359   0.44638   0.00000  Uiso   1.00
H135   H     0.64872   0.09551   0.44536   0.00000  Uiso   1.00
H136   H     0.62398   0.14138   0.46840   0.00000  Uiso   1.00
C137   C     0.62954   0.12789   0.40551   0.00000  Uiso   1.00
H138   H     0.63000   0.10010   0.38335   0.00000  Uiso   1.00
H139   H     0.60290   0.14576   0.40575   0.00000  Uiso   1.00
C140   C     0.33896   0.15570   0.39348   0.00000  Uiso   1.00
H141   H     0.33862   0.18435   0.41458   0.00000  Uiso   1.00
H142   H     0.34379   0.16506   0.36359   0.00000  Uiso   1.00
H143   H     0.36635   0.13868   0.39288   0.00000  Uiso   1.00
N144   N     0.51262   0.09326   0.42639   0.00000  Uiso   1.00
O145   O     0.47359   0.08236   0.42309   0.00000  Uiso   1.00
O146   O     0.54439   0.07671   0.40019   0.00000  Uiso   1.00
Zn147  Zn    0.85910   0.14090   0.28278   0.00000  Uiso   1.00
Zn148  Zn    0.80125   0.12378   0.22258   0.00000  Uiso   1.00
Zn149  Zn    0.87833   0.19664   0.21188   0.00000  Uiso   1.00
Zn150  Zn    0.79465   0.20535   0.28277   0.00000  Uiso   1.00
O151   O     0.83333   0.16667   0.25000   0.00000  Uiso   1.00
O152   O     0.73656   0.18960   0.27820   0.00000  Uiso   1.00
O153   O     0.92106   0.15277   0.26768   0.00000  Uiso   1.00
O154   O     0.80467   0.06903   0.23607   0.00000  Uiso   1.00
O155   O     0.87104   0.25527   0.21806   0.00000  Uiso   1.00
O156   O     0.82360   0.12393   0.16625   0.00000  Uiso   1.00
O157   O     0.79354   0.20646   0.33749   0.00000  Uiso   1.00
O158   O     0.87755   0.17493   0.15877   0.00000  Uiso   1.00
O159   O     0.83865   0.16135   0.33749   0.00000  Uiso   1.00
O160   O     0.84515   0.08101   0.27821   0.00000  Uiso   1.00
O161   O     0.81247   0.26136   0.26767   0.00000  Uiso   1.00
O162   O     0.74119   0.13251   0.23607   0.00000  Uiso   1.00
O163   O     0.93452   0.19179   0.21806   0.00000  Uiso   1.00
C164   C     0.71914   0.15991   0.25877   0.00000  Uiso   1.00
C165   C     0.94774   0.17357   0.24120   0.00000  Uiso   1.00
C166   C     0.82259   0.05610   0.25890   0.00000  Uiso   1.00
C167   C     0.84354   0.27769   0.24135   0.00000  Uiso   1.00
C168   C     0.85489   0.14526   0.14398   0.00000  Uiso   1.00
C169   C     0.81187   0.18755   0.35625   0.00000  Uiso   1.00
C170   C     0.79857   0.19232   0.39963   0.00000  Uiso   1.00
C171   C     0.86311   0.13719   0.10140   0.00000  Uiso   1.00
C172   C     0.74809   0.21398   0.46158   0.00000  Uiso   1.00
C173   C     0.76254   0.21271   0.42068   0.00000  Uiso   1.00
C174   C     0.81986   0.17320   0.42002   0.00000  Uiso   1.00
C175   C     0.80396   0.17131   0.46103   0.00000  Uiso   1.00
C176   C     0.76930   0.19460   0.48237   0.00000  Uiso   1.00
C177   C     0.82378   0.14899   0.48131   0.00000  Uiso   1.00
C178   C     0.81494   0.15722   0.02287   0.00000  Uiso   1.00
C179   C     0.78004   0.18028   0.04344   0.00000  Uiso   1.00
C180   C     0.75683   0.19805   0.02384   0.00000  Uiso   1.00
C181   C     0.85244   0.11895   0.46121   0.00000  Uiso   1.00
C182   C     0.88293   0.10981   0.47880   0.00000  Uiso   1.00
C183   C     0.87689   0.12043   0.01962   0.00000  Uiso   1.00
C184   C     0.84150   0.14237   0.04230   0.00000  Uiso   1.00
C185   C     0.90471   0.10769   0.03844   0.00000  Uiso   1.00
C186   C     0.89819   0.11659   0.07892   0.00000  Uiso   1.00
C187   C     0.83501   0.14978   0.08353   0.00000  Uiso   1.00
H188   H     0.80878   0.16565   0.10288   0.00000  Uiso   1.00
H189   H     0.91992   0.10657   0.09286   0.00000  Uiso   1.00
H190   H     0.72000   0.22993   0.47653   0.00000  Uiso   1.00
H191   H     0.74523   0.22745   0.40551   0.00000  Uiso   1.00
H192   H     0.84936   0.16026   0.40347   0.00000  Uiso   1.00
H193   H     0.77004   0.18586   0.07507   0.00000  Uiso   1.00
H194   H     0.93145   0.09038   0.02207   0.00000  Uiso   1.00
C195   C     0.99372   0.17614   0.23757   0.00000  Uiso   1.00
H196   H     0.68346   0.19318   0.21471   0.00000  Uiso   1.00
C197   C     0.67375   0.15757   0.26225   0.00000  Uiso   1.00
H198   H     0.98466   0.14060   0.28547   0.00000  Uiso   1.00
C199   C     0.84762   0.32218   0.23814   0.00000  Uiso   1.00
H200   H     0.87482   0.00280   0.21610   0.00000  Uiso   1.00
C201   C     0.81821   0.01208   0.26212   0.00000  Uiso   1.00
H202   H     0.79061   0.33220   0.28420   0.00000  Uiso   1.00
N203   N     0.72250   0.22185   0.04686   0.00000  Uiso   1.00
O204   O     0.69430   0.20686   0.07730   0.00000  Uiso   1.00
O205   O     0.72429   0.26113   0.04234   0.00000  Uiso   1.00
O206   O     0.91606   0.08673   0.45678   0.00000  Uiso   1.00
C207   C     0.95530   0.11359   0.44638   0.00000  Uiso   1.00
H208   H     0.98205   0.09551   0.44536   0.00000  Uiso   1.00
H209   H     0.95732   0.14138   0.46840   0.00000  Uiso   1.00
C210   C     0.96287   0.12789   0.40551   0.00000  Uiso   1.00
H211   H     0.96333   0.10010   0.38335   0.00000  Uiso   1.00
H212   H     0.93624   0.14576   0.40575   0.00000  Uiso   1.00
C213   C     0.67230   0.15570   0.39348   0.00000  Uiso   1.00
H214   H     0.67195   0.18435   0.41458   0.00000  Uiso   1.00
H215   H     0.67712   0.16506   0.36359   0.00000  Uiso   1.00
H216   H     0.69968   0.13868   0.39288   0.00000  Uiso   1.00
N217   N     0.84595   0.09326   0.42639   0.00000  Uiso   1.00
O218   O     0.80693   0.08236   0.42309   0.00000  Uiso   1.00
O219   O     0.87772   0.07671   0.40019   0.00000  Uiso   1.00
Zn220  Zn    0.19244   0.47423   0.28278   0.00000  Uiso   1.00
Zn221  Zn    0.13459   0.45711   0.22258   0.00000  Uiso   1.00
Zn222  Zn    0.21166   0.52997   0.21188   0.00000  Uiso   1.00
Zn223  Zn    0.12798   0.53868   0.28277   0.00000  Uiso   1.00
O224   O     0.16667   0.50000   0.25000   0.00000  Uiso   1.00
O225   O     0.06990   0.52293   0.27820   0.00000  Uiso   1.00
O226   O     0.25440   0.48610   0.26768   0.00000  Uiso   1.00
O227   O     0.13800   0.40236   0.23607   0.00000  Uiso   1.00
O228   O     0.20437   0.58860   0.21806   0.00000  Uiso   1.00
O229   O     0.15693   0.45726   0.16625   0.00000  Uiso   1.00
O230   O     0.12687   0.53979   0.33749   0.00000  Uiso   1.00
O231   O     0.21088   0.50826   0.15877   0.00000  Uiso   1.00
O232   O     0.17198   0.49468   0.33749   0.00000  Uiso   1.00
O233   O     0.17849   0.41434   0.27821   0.00000  Uiso   1.00
O234   O     0.14581   0.59469   0.26767   0.00000  Uiso   1.00
O235   O     0.07452   0.46584   0.23607   0.00000  Uiso   1.00
O236   O     0.26785   0.52512   0.21806   0.00000  Uiso   1.00
C237   C     0.05247   0.49325   0.25877   0.00000  Uiso   1.00
C238   C     0.28107   0.50690   0.24120   0.00000  Uiso   1.00
C239   C     0.15592   0.38944   0.25890   0.00000  Uiso   1.00
C240   C     0.17687   0.61102   0.24135   0.00000  Uiso   1.00
C241   C     0.18823   0.47860   0.14398   0.00000  Uiso   1.00
C242   C     0.14521   0.52089   0.35625   0.00000  Uiso   1.00
C243   C     0.13190   0.52565   0.39963   0.00000  Uiso   1.00
C244   C     0.19644   0.47052   0.10140   0.00000  Uiso   1.00
C245   C     0.08142   0.54731   0.46158   0.00000  Uiso   1.00
C246   C     0.09587   0.54604   0.42068   0.00000  Uiso   1.00
C247   C     0.15319   0.50654   0.42002   0.00000  Uiso   1.00
C248   C     0.13729   0.50464   0.46103   0.00000  Uiso   1.00
C249   C     0.10263   0.52794   0.48237   0.00000  Uiso   1.00
C250   C     0.15711   0.48233   0.48131   0.00000  Uiso   1.00
C251   C     0.14827   0.49056   0.02287   0.00000  Uiso   1.00
C252   C     0.11337   0.51362   0.04344   0.00000  Uiso   1.00
C253   C     0.09016   0.53138   0.02384   0.00000  Uiso   1.00
C254   C     0.18577   0.45228   0.46121   0.00000  Uiso   1.00
C255   C     0.21626   0.44314   0.47880   0.00000  Uiso   1.00
C256   C     0.21022   0.45376   0.01962   0.00000  Uiso   1.00
C257   C     0.17484   0.47571   0.04230   0.00000  Uiso   1.00
C258   C     0.23805   0.44103   0.03844   0.00000  Uiso   1.00
C259   C     0.23152   0.44993   0.07892   0.00000  Uiso   1.00
C260   C     0.16834   0.48311   0.08353   0.00000  Uiso   1.00
H261   H     0.14211   0.49898   0.10288   0.00000  Uiso   1.00
H262   H     0.25325   0.43990   0.09286   0.00000  Uiso   1.00
H263   H     0.05333   0.56327   0.47653   0.00000  Uiso   1.00
H264   H     0.07856   0.56078   0.40551   0.00000  Uiso   1.00
H265   H     0.18269   0.49359   0.40347   0.00000  Uiso   1.00
H266   H     0.10337   0.51920   0.07507   0.00000  Uiso   1.00
H267   H     0.26478   0.42371   0.02207   0.00000  Uiso   1.00
C268   C     0.32705   0.50948   0.23757   0.00000  Uiso   1.00
H269   H     0.01680   0.52651   0.21471   0.00000  Uiso   1.00
C270   C     0.00708   0.49090   0.26225   0.00000  Uiso   1.00
H271   H     0.31799   0.47393   0.28547   0.00000  Uiso   1.00
C272   C     0.18096   0.65551   0.23814   0.00000  Uiso   1.00
H273   H     0.20815   0.33614   0.21610   0.00000  Uiso   1.00
C274   C     0.15154   0.34541   0.26212   0.00000  Uiso   1.00
H275   H     0.12394   0.66553   0.28420   0.00000  Uiso   1.00
N276   N     0.05583   0.55518   0.04686   0.00000  Uiso   1.00
O277   O     0.02764   0.54019   0.07730   0.00000  Uiso   1.00
O278   O     0.05763   0.59446   0.04234   0.00000  Uiso   1.00
O279   O     0.24939   0.42006   0.45678   0.00000  Uiso   1.00
C280   C     0.28864   0.44693   0.44638   0.00000  Uiso   1.00
H281   H     0.31539   0.42884   0.44536   0.00000  Uiso   1.00
H282   H     0.29065   0.47471   0.46840   0.00000  Uiso   1.00
C283   C     0.29620   0.46122   0.40551   0.00000  Uiso   1.00
H284   H     0.29667   0.43344   0.38335   0.00000  Uiso   1.00
H285   H     0.26957   0.47909   0.40575   0.00000  Uiso   1.00
C286   C     0.00563   0.48903   0.39348   0.00000  Uiso   1.00
H287   H     0.00528   0.51769   0.41458   0.00000  Uiso   1.00
H288   H     0.01045   0.49839   0.36359   0.00000  Uiso   1.00
H289   H     0.03302   0.47201   0.39288   0.00000  Uiso   1.00
N290   N     0.17929   0.42660   0.42639   0.00000  Uiso   1.00
O291   O     0.14026   0.41570   0.42309   0.00000  Uiso   1.00
O292   O     0.21106   0.41004   0.40019   0.00000  Uiso   1.00
Zn293  Zn    0.52577   0.47423   0.28278   0.00000  Uiso   1.00
Zn294  Zn    0.46792   0.45711   0.22258   0.00000  Uiso   1.00
Zn295  Zn    0.54500   0.52997   0.21188   0.00000  Uiso   1.00
Zn296  Zn    0.46131   0.53868   0.28277   0.00000  Uiso   1.00
O297   O     0.50000   0.50000   0.25000   0.00000  Uiso   1.00
O298   O     0.40323   0.52293   0.27820   0.00000  Uiso   1.00
O299   O     0.58773   0.48610   0.26768   0.00000  Uiso   1.00
O300   O     0.47133   0.40236   0.23607   0.00000  Uiso   1.00
O301   O     0.53771   0.58860   0.21806   0.00000  Uiso   1.00
O302   O     0.49027   0.45726   0.16625   0.00000  Uiso   1.00
O303   O     0.46020   0.53979   0.33749   0.00000  Uiso   1.00
O304   O     0.54421   0.50826   0.15877   0.00000  Uiso   1.00
O305   O     0.50532   0.49468   0.33749   0.00000  Uiso   1.00
O306   O     0.51182   0.41434   0.27821   0.00000  Uiso   1.00
O307   O     0.47914   0.59469   0.26767   0.00000  Uiso   1.00
O308   O     0.40785   0.46584   0.23607   0.00000  Uiso   1.00
O309   O     0.60119   0.52512   0.21806   0.00000  Uiso   1.00
C310   C     0.38580   0.49325   0.25877   0.00000  Uiso   1.00
C311   C     0.61440   0.50690   0.24120   0.00000  Uiso   1.00
C312   C     0.48926   0.38944   0.25890   0.00000  Uiso   1.00
C313   C     0.51021   0.61102   0.24135   0.00000  Uiso   1.00
C314   C     0.52156   0.47860   0.14398   0.00000  Uiso   1.00
C315   C     0.47854   0.52089   0.35625   0.00000  Uiso   1.00
C316   C     0.46524   0.52565   0.39963   0.00000  Uiso   1.00
C317   C     0.52977   0.47052   0.10140   0.00000  Uiso   1.00
C318   C     0.41475   0.54731   0.46158   0.00000  Uiso   1.00
C319   C     0.42920   0.54604   0.42068   0.00000  Uiso   1.00
C320   C     0.48653   0.50654   0.42002   0.00000  Uiso   1.00
C321   C     0.47063   0.50464   0.46103   0.00000  Uiso   1.00
C322   C     0.43596   0.52794   0.48237   0.00000  Uiso   1.00
C323   C     0.49044   0.48233   0.48131   0.00000  Uiso   1.00
C324   C     0.48160   0.49056   0.02287   0.00000  Uiso   1.00
C325   C     0.44671   0.51362   0.04344   0.00000  Uiso   1.00
C326   C     0.42349   0.53138   0.02384   0.00000  Uiso   1.00
C327   C     0.51910   0.45228   0.46121   0.00000  Uiso   1.00
C328   C     0.54959   0.44314   0.47880   0.00000  Uiso   1.00
C329   C     0.54355   0.45376   0.01962   0.00000  Uiso   1.00
C330   C     0.50817   0.47571   0.04230   0.00000  Uiso   1.00
C331   C     0.57138   0.44103   0.03844   0.00000  Uiso   1.00
C332   C     0.56485   0.44993   0.07892   0.00000  Uiso   1.00
C333   C     0.50168   0.48311   0.08353   0.00000  Uiso   1.00
H334   H     0.47544   0.49898   0.10288   0.00000  Uiso   1.00
H335   H     0.58658   0.43990   0.09286   0.00000  Uiso   1.00
H336   H     0.38666   0.56327   0.47653   0.00000  Uiso   1.00
H337   H     0.41190   0.56078   0.40551   0.00000  Uiso   1.00
H338   H     0.51602   0.49359   0.40347   0.00000  Uiso   1.00
H339   H     0.43670   0.51920   0.07507   0.00000  Uiso   1.00
H340   H     0.59811   0.42371   0.02207   0.00000  Uiso   1.00
C341   C     0.66038   0.50948   0.23757   0.00000  Uiso   1.00
H342   H     0.35013   0.52651   0.21471   0.00000  Uiso   1.00
C343   C     0.34042   0.49090   0.26225   0.00000  Uiso   1.00
H344   H     0.65133   0.47393   0.28547   0.00000  Uiso   1.00
C345   C     0.51429   0.65551   0.23814   0.00000  Uiso   1.00
H346   H     0.54148   0.33614   0.21610   0.00000  Uiso   1.00
C347   C     0.48487   0.34541   0.26212   0.00000  Uiso   1.00
H348   H     0.45728   0.66553   0.28420   0.00000  Uiso   1.00
N349   N     0.38916   0.55518   0.04686   0.00000  Uiso   1.00
O350   O     0.36097   0.54019   0.07730   0.00000  Uiso   1.00
O351   O     0.39096   0.59446   0.04234   0.00000  Uiso   1.00
O352   O     0.58272   0.42006   0.45678   0.00000  Uiso   1.00
C353   C     0.62197   0.44693   0.44638   0.00000  Uiso   1.00
H354   H     0.64872   0.42884   0.44536   0.00000  Uiso   1.00
H355   H     0.62398   0.47471   0.46840   0.00000  Uiso   1.00
C356   C     0.62954   0.46122   0.40551   0.00000  Uiso   1.00
H357   H     0.63000   0.43344   0.38335   0.00000  Uiso   1.00
H358   H     0.60290   0.47909   0.40575   0.00000  Uiso   1.00
C359   C     0.33896   0.48903   0.39348   0.00000  Uiso   1.00
H360   H     0.33862   0.51769   0.41458   0.00000  Uiso   1.00
H361   H     0.34379   0.49839   0.36359   0.00000  Uiso   1.00
H362   H     0.36635   0.47201   0.39288   0.00000  Uiso   1.00
N363   N     0.51262   0.42660   0.42639   0.00000  Uiso   1.00
O364   O     0.47359   0.41570   0.42309   0.00000  Uiso   1.00
O365   O     0.54439   0.41004   0.40019   0.00000  Uiso   1.00
Zn366  Zn    0.85910   0.47423   0.28278   0.00000  Uiso   1.00
Zn367  Zn    0.80125   0.45711   0.22258   0.00000  Uiso   1.00
Zn368  Zn    0.87833   0.52997   0.21188   0.00000  Uiso   1.00
Zn369  Zn    0.79465   0.53868   0.28277   0.00000  Uiso   1.00
O370   O     0.83333   0.50000   0.25000   0.00000  Uiso   1.00
O371   O     0.73656   0.52293   0.27820   0.00000  Uiso   1.00
O372   O     0.92106   0.48610   0.26768   0.00000  Uiso   1.00
O373   O     0.80467   0.40236   0.23607   0.00000  Uiso   1.00
O374   O     0.87104   0.58860   0.21806   0.00000  Uiso   1.00
O375   O     0.82360   0.45726   0.16625   0.00000  Uiso   1.00
O376   O     0.79354   0.53979   0.33749   0.00000  Uiso   1.00
O377   O     0.87755   0.50826   0.15877   0.00000  Uiso   1.00
O378   O     0.83865   0.49468   0.33749   0.00000  Uiso   1.00
O379   O     0.84515   0.41434   0.27821   0.00000  Uiso   1.00
O380   O     0.81247   0.59469   0.26767   0.00000  Uiso   1.00
O381   O     0.74119   0.46584   0.23607   0.00000  Uiso   1.00
O382   O     0.93452   0.52512   0.21806   0.00000  Uiso   1.00
C383   C     0.71914   0.49325   0.25877   0.00000  Uiso   1.00
C384   C     0.94774   0.50690   0.24120   0.00000  Uiso   1.00
C385   C     0.82259   0.38944   0.25890   0.00000  Uiso   1.00
C386   C     0.84354   0.61102   0.24135   0.00000  Uiso   1.00
C387   C     0.85489   0.47860   0.14398   0.00000  Uiso   1.00
C388   C     0.81187   0.52089   0.35625   0.00000  Uiso   1.00
C389   C     0.79857   0.52565   0.39963   0.00000  Uiso   1.00
C390   C     0.86311   0.47052   0.10140   0.00000  Uiso   1.00
C391   C     0.74809   0.54731   0.46158   0.00000  Uiso   1.00
C392   C     0.76254   0.54604   0.42068   0.00000  Uiso   1.00
C393   C     0.81986   0.50654   0.42002   0.00000  Uiso   1.00
C394   C     0.80396   0.50464   0.46103   0.00000  Uiso   1.00
C395   C     0.76930   0.52794   0.48237   0.00000  Uiso   1.00
C396   C     0.82378   0.48233   0.48131   0.00000  Uiso   1.00
C397   C     0.81494   0.49056   0.02287   0.00000  Uiso   1.00
C398   C     0.78004   0.51362   0.04344   0.00000  Uiso   1.00
C399   C     0.75683   0.53138   0.02384   0.00000  Uiso   1.00
C400   C     0.85244   0.45228   0.46121   0.00000  Uiso   1.00
C401   C     0.88293   0.44314   0.47880   0.00000  Uiso   1.00
C402   C     0.87689   0.45376   0.01962   0.00000  Uiso   1.00
C403   C     0.84150   0.47571   0.04230   0.00000  Uiso   1.00
C404   C     0.90471   0.44103   0.03844   0.00000  Uiso   1.00
C405   C     0.89819   0.44993   0.07892   0.00000  Uiso   1.00
C406   C     0.83501   0.48311   0.08353   0.00000  Uiso   1.00
H407   H     0.80878   0.49898   0.10288   0.00000  Uiso   1.00
H408   H     0.91992   0.43990   0.09286   0.00000  Uiso   1.00
H409   H     0.72000   0.56327   0.47653   0.00000  Uiso   1.00
H410   H     0.74523   0.56078   0.40551   0.00000  Uiso   1.00
H411   H     0.84936   0.49359   0.40347   0.00000  Uiso   1.00
H412   H     0.77004   0.51920   0.07507   0.00000  Uiso   1.00
H413   H     0.93145   0.42371   0.02207   0.00000  Uiso   1.00
C414   C     0.99372   0.50948   0.23757   0.00000  Uiso   1.00
H415   H     0.68346   0.52651   0.21471   0.00000  Uiso   1.00
C416   C     0.67375   0.49090   0.26225   0.00000  Uiso   1.00
H417   H     0.98466   0.47393   0.28547   0.00000  Uiso   1.00
C418   C     0.84762   0.65551   0.23814   0.00000  Uiso   1.00
H419   H     0.87482   0.33614   0.21610   0.00000  Uiso   1.00
C420   C     0.81821   0.34541   0.26212   0.00000  Uiso   1.00
H421   H     0.79061   0.66553   0.28420   0.00000  Uiso   1.00
N422   N     0.72250   0.55518   0.04686   0.00000  Uiso   1.00
O423   O     0.69430   0.54019   0.07730   0.00000  Uiso   1.00
O424   O     0.72429   0.59446   0.04234   0.00000  Uiso   1.00
O425   O     0.91606   0.42006   0.45678   0.00000  Uiso   1.00
C426   C     0.95530   0.44693   0.44638   0.00000  Uiso   1.00
H427   H     0.98205   0.42884   0.44536   0.00000  Uiso   1.00
H428   H     0.95732   0.47471   0.46840   0.00000  Uiso   1.00
C429   C     0.96287   0.46122   0.40551   0.00000  Uiso   1.00
H430   H     0.96333   0.43344   0.38335   0.00000  Uiso   1.00
H431   H     0.93624   0.47909   0.40575   0.00000  Uiso   1.00
C432   C     0.67230   0.48903   0.39348   0.00000  Uiso   1.00
H433   H     0.67195   0.51769   0.41458   0.00000  Uiso   1.00
H434   H     0.67712   0.49839   0.36359   0.00000  Uiso   1.00
H435   H     0.69968   0.47201   0.39288   0.00000  Uiso   1.00
N436   N     0.84595   0.42660   0.42639   0.00000  Uiso   1.00
O437   O     0.80693   0.41570   0.42309   0.00000  Uiso   1.00
O438   O     0.87772   0.41004   0.40019   0.00000  Uiso   1.00
Zn439  Zn    0.19244   0.80756   0.28278   0.00000  Uiso   1.00
Zn440  Zn    0.13459   0.79044   0.22258   0.00000  Uiso   1.00
Zn441  Zn    0.21166   0.86331   0.21188   0.00000  Uiso   1.00
Zn442  Zn    0.12798   0.87202   0.28277   0.00000  Uiso   1.00
O443   O     0.16667   0.83333   0.25000   0.00000  Uiso   1.00
O444   O     0.06990   0.85627   0.27820   0.00000  Uiso   1.00
O445   O     0.25440   0.81944   0.26768   0.00000  Uiso   1.00
O446   O     0.13800   0.73570   0.23607   0.00000  Uiso   1.00
O447   O     0.20437   0.92193   0.21806   0.00000  Uiso   1.00
O448   O     0.15693   0.79060   0.16625   0.00000  Uiso   1.00
O449   O     0.12687   0.87313   0.33749   0.00000  Uiso   1.00
O450   O     0.21088   0.84159   0.15877   0.00000  Uiso   1.00
O451   O     0.17198   0.82802   0.33749   0.00000  Uiso   1.00
O452   O     0.17849   0.74768   0.27821   0.00000  Uiso   1.00
O453   O     0.14581   0.92803   0.26767   0.00000  Uiso   1.00
O454   O     0.07452   0.79917   0.23607   0.00000  Uiso   1.00
O455   O     0.26785   0.85845   0.21806   0.00000  Uiso   1.00
C456   C     0.05247   0.82658   0.25877   0.00000  Uiso   1.00
C457   C     0.28107   0.84023   0.24120   0.00000  Uiso   1.00
C458   C     0.15592   0.72277   0.25890   0.00000  Uiso   1.00
C459   C     0.17687   0.94435   0.24135   0.00000  Uiso   1.00
C460   C     0.18823   0.81193   0.14398   0.00000  Uiso   1.00
C461   C     0.14521   0.85422   0.35625   0.00000  Uiso   1.00
C462   C     0.13190   0.85898   0.39963   0.00000  Uiso   1.00
C463   C     0.19644   0.80386   0.10140   0.00000  Uiso   1.00
C464   C     0.08142   0.88065   0.46158   0.00000  Uiso   1.00
C465   C     0.09587   0.87937   0.42068   0.00000  Uiso   1.00
C466   C     0.15319   0.83987   0.42002   0.00000  Uiso   1.00
C467   C     0.13729   0.83798   0.46103   0.00000  Uiso   1.00
C468   C     0.10263   0.86127   0.48237   0.00000  Uiso   1.00
C469   C     0.15711   0.81566   0.48131   0.00000  Uiso   1.00
C470   C     0.14827   0.82389   0.02287   0.00000  Uiso   1.00
C471   C     0.11337   0.84695   0.04344   0.00000  Uiso   1.00
C472   C     0.09016   0.86472   0.02384   0.00000  Uiso   1.00
C473   C     0.18577   0.78562   0.46121   0.00000  Uiso   1.00
C474   C     0.21626   0.77647   0.47880   0.00000  Uiso   1.00
C475   C     0.21022   0.78709   0.01962   0.00000  Uiso   1.00
C476   C     0.17484   0.80904   0.04230   0.00000  Uiso   1.00
C477   C     0.23805   0.77436   0.03844   0.00000  Uiso   1.00
C478   C     0.23152   0.78326   0.07892   0.00000  Uiso   1.00
C479   C     0.16834   0.81645   0.08353   0.00000  Uiso   1.00
H480   H     0.14211   0.83231   0.10288   0.00000  Uiso   1.00
H481   H     0.25325   0.77324   0.09286   0.00000  Uiso   1.00
H482   H     0.05333   0.89660   0.47653   0.00000  Uiso   1.00
H483   H     0.07856   0.89412   0.40551   0.00000  Uiso   1.00
H484   H     0.18269   0.82693   0.40347   0.00000  Uiso   1.00
H485   H     0.10337   0.85253   0.07507   0.00000  Uiso   1.00
H486   H     0.26478   0.75704   0.02207   0.00000  Uiso   1.00
C487   C     0.32705   0.84281   0.23757   0.00000  Uiso   1.00
H488   H     0.01680   0.85985   0.21471   0.00000  Uiso   1.00
C489   C     0.00708   0.82424   0.26225   0.00000  Uiso   1.00
H490   H     0.31799   0.80726   0.28547   0.00000  Uiso   1.00
C491   C     0.18096   0.98884   0.23814   0.00000  Uiso   1.00
H492   H     0.20815   0.66947   0.21610   0.00000  Uiso   1.00
C493   C     0.15154   0.67874   0.26212   0.00000  Uiso   1.00
H494   H     0.12394   0.99886   0.28420   0.00000  Uiso   1.00
N495   N     0.05583   0.88851   0.04686   0.00000  Uiso   1.00
O496   O     0.02764   0.87353   0.07730   0.00000  Uiso   1.00
O497   O     0.05763   0.92780   0.04234   0.00000  Uiso   1.00
O498   O     0.24939   0.75339   0.45678   0.00000  Uiso   1.00
C499   C     0.28864   0.78026   0.44638   0.00000  Uiso   1.00
H500   H     0.31539   0.76217   0.44536   0.00000  Uiso   1.00
H501   H     0.29065   0.80805   0.46840   0.00000  Uiso   1.00
C502   C     0.29620   0.79455   0.40551   0.00000  Uiso   1.00
H503   H     0.29667   0.76677   0.38335   0.00000  Uiso   1.00
H504   H     0.26957   0.81242   0.40575   0.00000  Uiso   1.00
C505   C     0.00563   0.82237   0.39348   0.00000  Uiso   1.00
H506   H     0.00528   0.85102   0.41458   0.00000  Uiso   1.00
H507   H     0.01045   0.83172   0.36359   0.00000  Uiso   1.00
H508   H     0.03302   0.80534   0.39288   0.00000  Uiso   1.00
N509   N     0.17929   0.75993   0.42639   0.00000  Uiso   1.00
O510   O     0.14026   0.74903   0.42309   0.00000  Uiso   1.00
O511   O     0.21106   0.74337   0.40019   0.00000  Uiso   1.00
Zn512  Zn    0.52577   0.80756   0.28278   0.00000  Uiso   1.00
Zn513  Zn    0.46792   0.79044   0.22258   0.00000  Uiso   1.00
Zn514  Zn    0.54500   0.86331   0.21188   0.00000  Uiso   1.00
Zn515  Zn    0.46131   0.87202   0.28277   0.00000  Uiso   1.00
O516   O     0.50000   0.83333   0.25000   0.00000  Uiso   1.00
O517   O     0.40323   0.85627   0.27820   0.00000  Uiso   1.00
O518   O     0.58773   0.81944   0.26768   0.00000  Uiso   1.00
O519   O     0.47133   0.73570   0.23607   0.00000  Uiso   1.00
O520   O     0.53771   0.92193   0.21806   0.00000  Uiso   1.00
O521   O     0.49027   0.79060   0.16625   0.00000  Uiso   1.00
O522   O     0.46020   0.87313   0.33749   0.00000  Uiso   1.00
O523   O     0.54421   0.84159   0.15877   0.00000  Uiso   1.00
O524   O     0.50532   0.82802   0.33749   0.00000  Uiso   1.00
O525   O     0.51182   0.74768   0.27821   0.00000  Uiso   1.00
O526   O     0.47914   0.92803   0.26767   0.00000  Uiso   1.00
O527   O     0.40785   0.79917   0.23607   0.00000  Uiso   1.00
O528   O     0.60119   0.85845   0.21806   0.00000  Uiso   1.00
C529   C     0.38580   0.82658   0.25877   0.00000  Uiso   1.00
C530   C     0.61440   0.84023   0.24120   0.00000  Uiso   1.00
C531   C     0.48926   0.72277   0.25890   0.00000  Uiso   1.00
C532   C     0.51021   0.94435   0.24135   0.00000  Uiso   1.00
C533   C     0.52156   0.81193   0.14398   0.00000  Uiso   1.00
C534   C     0.47854   0.85422   0.35625   0.00000  Uiso   1.00
C535   C     0.46524   0.85898   0.39963   0.00000  Uiso   1.00
C536   C     0.52977   0.80386   0.10140   0.00000  Uiso   1.00
C537   C     0.41475   0.88065   0.46158   0.00000  Uiso   1.00
C538   C     0.42920   0.87937   0.42068   0.00000  Uiso   1.00
C539   C     0.48653   0.83987   0.42002   0.00000  Uiso   1.00
C540   C     0.47063   0.83798   0.46103   0.00000  Uiso   1.00
C541   C     0.43596   0.86127   0.48237   0.00000  Uiso   1.00
C542   C     0.49044   0.81566   0.48131   0.00000  Uiso   1.00
C543   C     0.48160   0.82389   0.02287   0.00000  Uiso   1.00
C544   C     0.44671   0.84695   0.04344   0.00000  Uiso   1.00
C545   C     0.42349   0.86472   0.02384   0.00000  Uiso   1.00
C546   C     0.51910   0.78562   0.46121   0.00000  Uiso   1.00
C547   C     0.54959   0.77647   0.47880   0.00000  Uiso   1.00
C548   C     0.54355   0.78709   0.01962   0.00000  Uiso   1.00
C549   C     0.50817   0.80904   0.04230   0.00000  Uiso   1.00
C550   C     0.57138   0.77436   0.03844   0.00000  Uiso   1.00
C551   C     0.56485   0.78326   0.07892   0.00000  Uiso   1.00
C552   C     0.50168   0.81645   0.08353   0.00000  Uiso   1.00
H553   H     0.47544   0.83231   0.10288   0.00000  Uiso   1.00
H554   H     0.58658   0.77324   0.09286   0.00000  Uiso   1.00
H555   H     0.38666   0.89660   0.47653   0.00000  Uiso   1.00
H556   H     0.41190   0.89412   0.40551   0.00000  Uiso   1.00
H557   H     0.51602   0.82693   0.40347   0.00000  Uiso   1.00
H558   H     0.43670   0.85253   0.07507   0.00000  Uiso   1.00
H559   H     0.59811   0.75704   0.02207   0.00000  Uiso   1.00
C560   C     0.66038   0.84281   0.23757   0.00000  Uiso   1.00
H561   H     0.35013   0.85985   0.21471   0.00000  Uiso   1.00
C562   C     0.34042   0.82424   0.26225   0.00000  Uiso   1.00
H563   H     0.65133   0.80726   0.28547   0.00000  Uiso   1.00
C564   C     0.51429   0.98884   0.23814   0.00000  Uiso   1.00
H565   H     0.54148   0.66947   0.21610   0.00000  Uiso   1.00
C566   C     0.48487   0.67874   0.26212   0.00000  Uiso   1.00
H567   H     0.45728   0.99886   0.28420   0.00000  Uiso   1.00
N568   N     0.38916   0.88851   0.04686   0.00000  Uiso   1.00
O569   O     0.36097   0.87353   0.07730   0.00000  Uiso   1.00
O570   O     0.39096   0.92780   0.04234   0.00000  Uiso   1.00
O571   O     0.58272   0.75339   0.45678   0.00000  Uiso   1.00
C572   C     0.62197   0.78026   0.44638   0.00000  Uiso   1.00
H573   H     0.64872   0.76217   0.44536   0.00000  Uiso   1.00
H574   H     0.62398   0.80805   0.46840   0.00000  Uiso   1.00
C575   C     0.62954   0.79455   0.40551   0.00000  Uiso   1.00
H576   H     0.63000   0.76677   0.38335   0.00000  Uiso   1.00
H577   H     0.60290   0.81242   0.40575   0.00000  Uiso   1.00
C578   C     0.33896   0.82237   0.39348   0.00000  Uiso   1.00
H579   H     0.33862   0.85102   0.41458   0.00000  Uiso   1.00
H580   H     0.34379   0.83172   0.36359   0.00000  Uiso   1.00
H581   H     0.36635   0.80534   0.39288   0.00000  Uiso   1.00
N582   N     0.51262   0.75993   0.42639   0.00000  Uiso   1.00
O583   O     0.47359   0.74903   0.42309   0.00000  Uiso   1.00
O584   O     0.54439   0.74337   0.40019   0.00000  Uiso   1.00
Zn585  Zn    0.85910   0.80756   0.28278   0.00000  Uiso   1.00
Zn586  Zn    0.80125   0.79044   0.22258   0.00000  Uiso   1.00
Zn587  Zn    0.87833   0.86331   0.21188   0.00000  Uiso   1.00
Zn588  Zn    0.79465   0.87202   0.28277   0.00000  Uiso   1.00
O589   O     0.83333   0.83333   0.25000   0.00000  Uiso   1.00
O590   O     0.73656   0.85627   0.27820   0.00000  Uiso   1.00
O591   O     0.92106   0.81944   0.26768   0.00000  Uiso   1.00
O592   O     0.80467   0.73570   0.23607   0.00000  Uiso   1.00
O593   O     0.87104   0.92193   0.21806   0.00000  Uiso   1.00
O594   O     0.82360   0.79060   0.16625   0.00000  Uiso   1.00
O595   O     0.79354   0.87313   0.33749   0.00000  Uiso   1.00
O596   O     0.87755   0.84159   0.15877   0.00000  Uiso   1.00
O597   O     0.83865   0.82802   0.33749   0.00000  Uiso   1.00
O598   O     0.84515   0.74768   0.27821   0.00000  Uiso   1.00
O599   O     0.81247   0.92803   0.26767   0.00000  Uiso   1.00
O600   O     0.74119   0.79917   0.23607   0.00000  Uiso   1.00
O601   O     0.93452   0.85845   0.21806   0.00000  Uiso   1.00
C602   C     0.71914   0.82658   0.25877   0.00000  Uiso   1.00
C603   C     0.94774   0.84023   0.24120   0.00000  Uiso   1.00
C604   C     0.82259   0.72277   0.25890   0.00000  Uiso   1.00
C605   C     0.84354   0.94435   0.24135   0.00000  Uiso   1.00
C606   C     0.85489   0.81193   0.14398   0.00000  Uiso   1.00
C607   C     0.81187   0.85422   0.35625   0.00000  Uiso   1.00
C608   C     0.79857   0.85898   0.39963   0.00000  Uiso   1.00
C609   C     0.86311   0.80386   0.10140   0.00000  Uiso   1.00
C610   C     0.74809   0.88065   0.46158   0.00000  Uiso   1.00
C611   C     0.76254   0.87937   0.42068   0.00000  Uiso   1.00
C612   C     0.81986   0.83987   0.42002   0.00000  Uiso   1.00
C613   C     0.80396   0.83798   0.46103   0.00000  Uiso   1.00
C614   C     0.76930   0.86127   0.48237   0.00000  Uiso   1.00
C615   C     0.82378   0.81566   0.48131   0.00000  Uiso   1.00
C616   C     0.81494   0.82389   0.02287   0.00000  Uiso   1.00
C617   C     0.78004   0.84695   0.04344   0.00000  Uiso   1.00
C618   C     0.75683   0.86472   0.02384   0.00000  Uiso   1.00
C619   C     0.85244   0.78562   0.46121   0.00000  Uiso   1.00
C620   C     0.88293   0.77647   0.47880   0.00000  Uiso   1.00
C621   C     0.87689   0.78709   0.01962   0.00000  Uiso   1.00
C622   C     0.84150   0.80904   0.04230   0.00000  Uiso   1.00
C623   C     0.90471   0.77436   0.03844   0.00000  Uiso   1.00
C624   C     0.89819   0.78326   0.07892   0.00000  Uiso   1.00
C625   C     0.83501   0.81645   0.08353   0.00000  Uiso   1.00
H626   H     0.80878   0.83231   0.10288   0.00000  Uiso   1.00
H627   H     0.91992   0.77324   0.09286   0.00000  Uiso   1.00
H628   H     0.72000   0.89660   0.47653   0.00000  Uiso   1.00
H629   H     0.74523   0.89412   0.40551   0.00000  Uiso   1.00
H630   H     0.84936   0.82693   0.40347   0.00000  Uiso   1.00
H631   H     0.77004   0.85253   0.07507   0.00000  Uiso   1.00
H632   H     0.93145   0.75704   0.02207   0.00000  Uiso   1.00
C633   C     0.99372   0.84281   0.23757   0.00000  Uiso   1.00
H634   H     0.68346   0.85985   0.21471   0.00000  Uiso   1.00
C635   C     0.67375   0.82424   0.26225   0.00000  Uiso   1.00
H636   H     0.98466   0.80726   0.28547   0.00000  Uiso   1.00
C637   C     0.84762   0.98884   0.23814   0.00000  Uiso   1.00
H638   H     0.87482   0.66947   0.21610   0.00000  Uiso   1.00
C639   C     0.81821   0.67874   0.26212   0.00000  Uiso   1.00
H640   H     0.79061   0.99886   0.28420   0.00000  Uiso   1.00
N641   N     0.72250   0.88851   0.04686   0.00000  Uiso   1.00
O642   O     0.69430   0.87353   0.07730   0.00000  Uiso   1.00
O643   O     0.72429   0.92780   0.04234   0.00000  Uiso   1.00
O644   O     0.91606   0.75339   0.45678   0.00000  Uiso   1.00
C645   C     0.95530   0.78026   0.44638   0.00000  Uiso   1.00
H646   H     0.98205   0.76217   0.44536   0.00000  Uiso   1.00
H647   H     0.95732   0.80805   0.46840   0.00000  Uiso   1.00
C648   C     0.96287   0.79455   0.40551   0.00000  Uiso   1.00
H649   H     0.96333   0.76677   0.38335   0.00000  Uiso   1.00
H650   H     0.93624   0.81242   0.40575   0.00000  Uiso   1.00
C651   C     0.67230   0.82237   0.39348   0.00000  Uiso   1.00
H652   H     0.67195   0.85102   0.41458   0.00000  Uiso   1.00
H653   H     0.67712   0.83172   0.36359   0.00000  Uiso   1.00
H654   H     0.69968   0.80534   0.39288   0.00000  Uiso   1.00
N655   N     0.84595   0.75993   0.42639   0.00000  Uiso   1.00
O656   O     0.80693   0.74903   0.42309   0.00000  Uiso   1.00
O657   O     0.87772   0.74337   0.40019   0.00000  Uiso   1.00
Zn658  Zn    0.19244   0.14090   0.78278   0.00000  Uiso   1.00
Zn659  Zn    0.13459   0.12378   0.72258   0.00000  Uiso   1.00
Zn660  Zn    0.21166   0.19664   0.71188   0.00000  Uiso   1.00
Zn661  Zn    0.12798   0.20535   0.78277   0.00000  Uiso   1.00
O662   O     0.16667   0.16667   0.75000   0.00000  Uiso   1.00
O663   O     0.06990   0.18960   0.77820   0.00000  Uiso   1.00
O664   O     0.25440   0.15277   0.76768   0.00000  Uiso   1.00
O665   O     0.13800   0.06903   0.73607   0.00000  Uiso   1.00
O666   O     0.20437   0.25527   0.71806   0.00000  Uiso   1.00
O667   O     0.15693   0.12393   0.66625   0.00000  Uiso   1.00
O668   O     0.12687   0.20646   0.83749   0.00000  Uiso   1.00
O669   O     0.21088   0.17493   0.65877   0.00000  Uiso   1.00
O670   O     0.17198   0.16135   0.83749   0.00000  Uiso   1.00
O671   O     0.17849   0.08101   0.77821   0.00000  Uiso   1.00
O672   O     0.14581   0.26136   0.76767   0.00000  Uiso   1.00
O673   O     0.07452   0.13251   0.73607   0.00000  Uiso   1.00
O674   O     0.26785   0.19179   0.71806   0.00000  Uiso   1.00
C675   C     0.05247   0.15991   0.75877   0.00000  Uiso   1.00
C676   C     0.28107   0.17357   0.74120   0.00000  Uiso   1.00
C677   C     0.15592   0.05610   0.75890   0.00000  Uiso   1.00
C678   C     0.17687   0.27769   0.74135   0.00000  Uiso   1.00
C679   C     0.18823   0.14526   0.64398   0.00000  Uiso   1.00
C680   C     0.14521   0.18755   0.85625   0.00000  Uiso   1.00
C681   C     0.13190   0.19232   0.89963   0.00000  Uiso   1.00
C682   C     0.19644   0.13719   0.60140   0.00000  Uiso   1.00
C683   C     0.08142   0.21398   0.96158   0.00000  Uiso   1.00
C684   C     0.09587   0.21271   0.92068   0.00000  Uiso   1.00
C685   C     0.15319   0.17320   0.92002   0.00000  Uiso   1.00
C686   C     0.13729   0.17131   0.96103   0.00000  Uiso   1.00
C687   C     0.10263   0.19460   0.98237   0.00000  Uiso   1.00
C688   C     0.15711   0.14899   0.98131   0.00000  Uiso   1.00
C689   C     0.14827   0.15722   0.52287   0.00000  Uiso   1.00
C690   C     0.11337   0.18028   0.54344   0.00000  Uiso   1.00
C691   C     0.09016   0.19805   0.52384   0.00000  Uiso   1.00
C692   C     0.18577   0.11895   0.96121   0.00000  Uiso   1.00
C693   C     0.21626   0.10981   0.97880   0.00000  Uiso   1.00
C694   C     0.21022   0.12043   0.51962   0.00000  Uiso   1.00
C695   C     0.17484   0.14237   0.54230   0.00000  Uiso   1.00
C696   C     0.23805   0.10769   0.53844   0.00000  Uiso   1.00
C697   C     0.23152   0.11659   0.57892   0.00000  Uiso   1.00
C698   C     0.16834   0.14978   0.58353   0.00000  Uiso   1.00
H699   H     0.14211   0.16565   0.60288   0.00000  Uiso   1.00
H700   H     0.25325   0.10657   0.59286   0.00000  Uiso   1.00
H701   H     0.05333   0.22993   0.97653   0.00000  Uiso   1.00
H702   H     0.07856   0.22745   0.90551   0.00000  Uiso   1.00
H703   H     0.18269   0.16026   0.90347   0.00000  Uiso   1.00
H704   H     0.10337   0.18586   0.57507   0.00000  Uiso   1.00
H705   H     0.26478   0.09038   0.52207   0.00000  Uiso   1.00
C706   C     0.32705   0.17614   0.73757   0.00000  Uiso   1.00
H707   H     0.01680   0.19318   0.71471   0.00000  Uiso   1.00
C708   C     0.00708   0.15757   0.76225   0.00000  Uiso   1.00
H709   H     0.31799   0.14060   0.78547   0.00000  Uiso   1.00
C710   C     0.18096   0.32218   0.73814   0.00000  Uiso   1.00
H711   H     0.20815   0.00280   0.71610   0.00000  Uiso   1.00
C712   C     0.15154   0.01208   0.76212   0.00000  Uiso   1.00
H713   H     0.12394   0.33220   0.78420   0.00000  Uiso   1.00
N714   N     0.05583   0.22185   0.54686   0.00000  Uiso   1.00
O715   O     0.02764   0.20686   0.57730   0.00000  Uiso   1.00
O716   O     0.05763   0.26113   0.54234   0.00000  Uiso   1.00
O717   O     0.24939   0.08673   0.95678   0.00000  Uiso   1.00
C718   C     0.28864   0.11359   0.94638   0.00000  Uiso   1.00
H719   H     0.31539   0.09551   0.94536   0.00000  Uiso   1.00
H720   H     0.29065   0.14138   0.96840   0.00000  Uiso   1.00
C721   C     0.29620   0.12789   0.90551   0.00000  Uiso   1.00
H722   H     0.29667   0.10010   0.88335   0.00000  Uiso   1.00
H723   H     0.26957   0.14576   0.90575   0.00000  Uiso   1.00
C724   C     0.00563   0.15570   0.89348   0.00000  Uiso   1.00
H725   H     0.00528   0.18435   0.91458   0.00000  Uiso   1.00
H726   H     0.01045   0.16506   0.86359   0.00000  Uiso   1.00
H727   H     0.03302   0.13868   0.89288   0.00000  Uiso   1.00
N728   N     0.17929   0.09326   0.92639   0.00000  Uiso   1.00
O729   O     0.14026   0.08236   0.92309   0.00000  Uiso   1.00
O730   O     0.21106   0.07671   0.90019   0.00000  Uiso   1.00
Zn731  Zn    0.52577   0.14090   0.78278   0.00000  Uiso   1.00
Zn732  Zn    0.46792   0.12378   0.72258   0.00000  Uiso   1.00
Zn733  Zn    0.54500   0.19664   0.71188   0.00000  Uiso   1.00
Zn734  Zn    0.46131   0.20535   0.78277   0.00000  Uiso   1.00
O735   O     0.50000   0.16667   0.75000   0.00000  Uiso   1.00
O736   O     0.40323   0.18960   0.77820   0.00000  Uiso   1.00
O737   O     0.58773   0.15277   0.76768   0.00000  Uiso   1.00
O738   O     0.47133   0.06903   0.73607   0.00000  Uiso   1.00
O739   O     0.53771   0.25527   0.71806   0.00000  Uiso   1.00
O740   O     0.49027   0.12393   0.66625   0.00000  Uiso   1.00
O741   O     0.46020   0.20646   0.83749   0.00000  Uiso   1.00
O742   O     0.54421   0.17493   0.65877   0.00000  Uiso   1.00
O743   O     0.50532   0.16135   0.83749   0.00000  Uiso   1.00
O744   O     0.51182   0.08101   0.77821   0.00000  Uiso   1.00
O745   O     0.47914   0.26136   0.76767   0.00000  Uiso   1.00
O746   O     0.40785   0.13251   0.73607   0.00000  Uiso   1.00
O747   O     0.60119   0.19179   0.71806   0.00000  Uiso   1.00
C748   C     0.38580   0.15991   0.75877   0.00000  Uiso   1.00
C749   C     0.61440   0.17357   0.74120   0.00000  Uiso   1.00
C750   C     0.48926   0.05610   0.75890   0.00000  Uiso   1.00
C751   C     0.51021   0.27769   0.74135   0.00000  Uiso   1.00
C752   C     0.52156   0.14526   0.64398   0.00000  Uiso   1.00
C753   C     0.47854   0.18755   0.85625   0.00000  Uiso   1.00
C754   C     0.46524   0.19232   0.89963   0.00000  Uiso   1.00
C755   C     0.52977   0.13719   0.60140   0.00000  Uiso   1.00
C756   C     0.41475   0.21398   0.96158   0.00000  Uiso   1.00
C757   C     0.42920   0.21271   0.92068   0.00000  Uiso   1.00
C758   C     0.48653   0.17320   0.92002   0.00000  Uiso   1.00
C759   C     0.47063   0.17131   0.96103   0.00000  Uiso   1.00
C760   C     0.43596   0.19460   0.98237   0.00000  Uiso   1.00
C761   C     0.49044   0.14899   0.98131   0.00000  Uiso   1.00
C762   C     0.48160   0.15722   0.52287   0.00000  Uiso   1.00
C763   C     0.44671   0.18028   0.54344   0.00000  Uiso   1.00
C764   C     0.42349   0.19805   0.52384   0.00000  Uiso   1.00
C765   C     0.51910   0.11895   0.96121   0.00000  Uiso   1.00
C766   C     0.54959   0.10981   0.97880   0.00000  Uiso   1.00
C767   C     0.54355   0.12043   0.51962   0.00000  Uiso   1.00
C768   C     0.50817   0.14237   0.54230   0.00000  Uiso   1.00
C769   C     0.57138   0.10769   0.53844   0.00000  Uiso   1.00
C770   C     0.56485   0.11659   0.57892   0.00000  Uiso   1.00
C771   C     0.50168   0.14978   0.58353   0.00000  Uiso   1.00
H772   H     0.47544   0.16565   0.60288   0.00000  Uiso   1.00
H773   H     0.58658   0.10657   0.59286   0.00000  Uiso   1.00
H774   H     0.38666   0.22993   0.97653   0.00000  Uiso   1.00
H775   H     0.41190   0.22745   0.90551   0.00000  Uiso   1.00
H776   H     0.51602   0.16026   0.90347   0.00000  Uiso   1.00
H777   H     0.43670   0.18586   0.57507   0.00000  Uiso   1.00
H778   H     0.59811   0.09038   0.52207   0.00000  Uiso   1.00
C779   C     0.66038   0.17614   0.73757   0.00000  Uiso   1.00
H780   H     0.35013   0.19318   0.71471   0.00000  Uiso   1.00
C781   C     0.34042   0.15757   0.76225   0.00000  Uiso   1.00
H782   H     0.65133   0.14060   0.78547   0.00000  Uiso   1.00
C783   C     0.51429   0.32218   0.73814   0.00000  Uiso   1.00
H784   H     0.54148   0.00280   0.71610   0.00000  Uiso   1.00
C785   C     0.48487   0.01208   0.76212   0.00000  Uiso   1.00
H786   H     0.45728   0.33220   0.78420   0.00000  Uiso   1.00
N787   N     0.38916   0.22185   0.54686   0.00000  Uiso   1.00
O788   O     0.36097   0.20686   0.57730   0.00000  Uiso   1.00
O789   O     0.39096   0.26113   0.54234   0.00000  Uiso   1.00
O790   O     0.58272   0.08673   0.95678   0.00000  Uiso   1.00
C791   C     0.62197   0.11359   0.94638   0.00000  Uiso   1.00
H792   H     0.64872   0.09551   0.94536   0.00000  Uiso   1.00
H793   H     0.62398   0.14138   0.96840   0.00000  Uiso   1.00
C794   C     0.62954   0.12789   0.90551   0.00000  Uiso   1.00
H795   H     0.63000   0.10010   0.88335   0.00000  Uiso   1.00
H796   H     0.60290   0.14576   0.90575   0.00000  Uiso   1.00
C797   C     0.33896   0.15570   0.89348   0.00000  Uiso   1.00
H798   H     0.33862   0.18435   0.91458   0.00000  Uiso   1.00
H799   H     0.34379   0.16506   0.86359   0.00000  Uiso   1.00
H800   H     0.36635   0.13868   0.89288   0.00000  Uiso   1.00
N801   N     0.51262   0.09326   0.92639   0.00000  Uiso   1.00
O802   O     0.47359   0.08236   0.92309   0.00000  Uiso   1.00
O803   O     0.54439   0.07671   0.90019   0.00000  Uiso   1.00
Zn804  Zn    0.85910   0.14090   0.78278   0.00000  Uiso   1.00
Zn805  Zn    0.80125   0.12378   0.72258   0.00000  Uiso   1.00
Zn806  Zn    0.87833   0.19664   0.71188   0.00000  Uiso   1.00
Zn807  Zn    0.79465   0.20535   0.78277   0.00000  Uiso   1.00
O808   O     0.83333   0.16667   0.75000   0.00000  Uiso   1.00
O809   O     0.73656   0.18960   0.77820   0.00000  Uiso   1.00
O810   O     0.92106   0.15277   0.76768   0.00000  Uiso   1.00
O811   O     0.80467   0.06903   0.73607   0.00000  Uiso   1.00
O812   O     0.87104   0.25527   0.71806   0.00000  Uiso   1.00
O813   O     0.82360   0.12393   0.66625   0.00000  Uiso   1.00
O814   O     0.79354   0.20646   0.83749   0.00000  Uiso   1.00
O815   O     0.87755   0.17493   0.65877   0.00000  Uiso   1.00
O816   O     0.83865   0.16135   0.83749   0.00000  Uiso   1.00
O817   O     0.84515   0.08101   0.77821   0.00000  Uiso   1.00
O818   O     0.81247   0.26136   0.76767   0.00000  Uiso   1.00
O819   O     0.74119   0.13251   0.73607   0.00000  Uiso   1.00
O820   O     0.93452   0.19179   0.71806   0.00000  Uiso   1.00
C821   C     0.71914   0.15991   0.75877   0.00000  Uiso   1.00
C822   C     0.94774   0.17357   0.74120   0.00000  Uiso   1.00
C823   C     0.82259   0.05610   0.75890   0.00000  Uiso   1.00
C824   C     0.84354   0.27769   0.74135   0.00000  Uiso   1.00
C825   C     0.85489   0.14526   0.64398   0.00000  Uiso   1.00
C826   C     0.81187   0.18755   0.85625   0.00000  Uiso   1.00
C827   C     0.79857   0.19232   0.89963   0.00000  Uiso   1.00
C828   C     0.86311   0.13719   0.60140   0.00000  Uiso   1.00
C829   C     0.74809   0.21398   0.96158   0.00000  Uiso   1.00
C830   C     0.76254   0.21271   0.92068   0.00000  Uiso   1.00
C831   C     0.81986   0.17320   0.92002   0.00000  Uiso   1.00
C832   C     0.80396   0.17131   0.96103   0.00000  Uiso   1.00
C833   C     0.76930   0.19460   0.98237   0.00000  Uiso   1.00
C834   C     0.82378   0.14899   0.98131   0.00000  Uiso   1.00
C835   C     0.81494   0.15722   0.52287   0.00000  Uiso   1.00
C836   C     0.78004   0.18028   0.54344   0.00000  Uiso   1.00
C837   C     0.75683   0.19805   0.52384   0.00000  Uiso   1.00
C838   C     0.85244   0.11895   0.96121   0.00000  Uiso   1.00
C839   C     0.88293   0.10981   0.97880   0.00000  Uiso   1.00
C840   C     0.87689   0.12043   0.51962   0.00000  Uiso   1.00
C841   C     0.84150   0.14237   0.54230   0.00000  Uiso   1.00
C842   C     0.90471   0.10769   0.53844   0.00000  Uiso   1.00
C843   C     0.89819   0.11659   0.57892   0.00000  Uiso   1.00
C844   C     0.83501   0.14978   0.58353   0.00000  Uiso   1.00
H845   H     0.80878   0.16565   0.60288   0.00000  Uiso   1.00
H846   H     0.91992   0.10657   0.59286   0.00000  Uiso   1.00
H847   H     0.72000   0.22993   0.97653   0.00000  Uiso   1.00
H848   H     0.74523   0.22745   0.90551   0.00000  Uiso   1.00
H849   H     0.84936   0.16026   0.90347   0.00000  Uiso   1.00
H850   H     0.77004   0.18586   0.57507   0.00000  Uiso   1.00
H851   H     0.93145   0.09038   0.52207   0.00000  Uiso   1.00
C852   C     0.99372   0.17614   0.73757   0.00000  Uiso   1.00
H853   H     0.68346   0.19318   0.71471   0.00000  Uiso   1.00
C854   C     0.67375   0.15757   0.76225   0.00000  Uiso   1.00
H855   H     0.98466   0.14060   0.78547   0.00000  Uiso   1.00
C856   C     0.84762   0.32218   0.73814   0.00000  Uiso   1.00
H857   H     0.87482   0.00280   0.71610   0.00000  Uiso   1.00
C858   C     0.81821   0.01208   0.76212   0.00000  Uiso   1.00
H859   H     0.79061   0.33220   0.78420   0.00000  Uiso   1.00
N860   N     0.72250   0.22185   0.54686   0.00000  Uiso   1.00
O861   O     0.69430   0.20686   0.57730   0.00000  Uiso   1.00
O862   O     0.72429   0.26113   0.54234   0.00000  Uiso   1.00
O863   O     0.91606   0.08673   0.95678   0.00000  Uiso   1.00
C864   C     0.95530   0.11359   0.94638   0.00000  Uiso   1.00
H865   H     0.98205   0.09551   0.94536   0.00000  Uiso   1.00
H866   H     0.95732   0.14138   0.96840   0.00000  Uiso   1.00
C867   C     0.96287   0.12789   0.90551   0.00000  Uiso   1.00
H868   H     0.96333   0.10010   0.88335   0.00000  Uiso   1.00
H869   H     0.93624   0.14576   0.90575   0.00000  Uiso   1.00
C870   C     0.67230   0.15570   0.89348   0.00000  Uiso   1.00
H871   H     0.67195   0.18435   0.91458   0.00000  Uiso   1.00
H872   H     0.67712   0.16506   0.86359   0.00000  Uiso   1.00
H873   H     0.69968   0.13868   0.89288   0.00000  Uiso   1.00
N874   N     0.84595   0.09326   0.92639   0.00000  Uiso   1.00
O875   O     0.80693   0.08236   0.92309   0.00000  Uiso   1.00
O876   O     0.87772   0.07671   0.90019   0.00000  Uiso   1.00
Zn877  Zn    0.19244   0.47423   0.78278   0.00000  Uiso   1.00
Zn878  Zn    0.13459   0.45711   0.72258   0.00000  Uiso   1.00
Zn879  Zn    0.21166   0.52997   0.71188   0.00000  Uiso   1.00
Zn880  Zn    0.12798   0.53868   0.78277   0.00000  Uiso   1.00
O881   O     0.16667   0.50000   0.75000   0.00000  Uiso   1.00
O882   O     0.06990   0.52293   0.77820   0.00000  Uiso   1.00
O883   O     0.25440   0.48610   0.76768   0.00000  Uiso   1.00
O884   O     0.13800   0.40236   0.73607   0.00000  Uiso   1.00
O885   O     0.20437   0.58860   0.71806   0.00000  Uiso   1.00
O886   O     0.15693   0.45726   0.66625   0.00000  Uiso   1.00
O887   O     0.12687   0.53979   0.83749   0.00000  Uiso   1.00
O888   O     0.21088   0.50826   0.65877   0.00000  Uiso   1.00
O889   O     0.17198   0.49468   0.83749   0.00000  Uiso   1.00
O890   O     0.17849   0.41434   0.77821   0.00000  Uiso   1.00
O891   O     0.14581   0.59469   0.76767   0.00000  Uiso   1.00
O892   O     0.07452   0.46584   0.73607   0.00000  Uiso   1.00
O893   O     0.26785   0.52512   0.71806   0.00000  Uiso   1.00
C894   C     0.05247   0.49325   0.75877   0.00000  Uiso   1.00
C895   C     0.28107   0.50690   0.74120   0.00000  Uiso   1.00
C896   C     0.15592   0.38944   0.75890   0.00000  Uiso   1.00
C897   C     0.17687   0.61102   0.74135   0.00000  Uiso   1.00
C898   C     0.18823   0.47860   0.64398   0.00000  Uiso   1.00
C899   C     0.14521   0.52089   0.85625   0.00000  Uiso   1.00
C900   C     0.13190   0.52565   0.89963   0.00000  Uiso   1.00
C901   C     0.19644   0.47052   0.60140   0.00000  Uiso   1.00
C902   C     0.08142   0.54731   0.96158   0.00000  Uiso   1.00
C903   C     0.09587   0.54604   0.92068   0.00000  Uiso   1.00
C904   C     0.15319   0.50654   0.92002   0.00000  Uiso   1.00
C905   C     0.13729   0.50464   0.96103   0.00000  Uiso   1.00
C906   C     0.10263   0.52794   0.98237   0.00000  Uiso   1.00
C907   C     0.15711   0.48233   0.98131   0.00000  Uiso   1.00
C908   C     0.14827   0.49056   0.52287   0.00000  Uiso   1.00
C909   C     0.11337   0.51362   0.54344   0.00000  Uiso   1.00
C910   C     0.09016   0.53138   0.52384   0.00000  Uiso   1.00
C911   C     0.18577   0.45228   0.96121   0.00000  Uiso   1.00
C912   C     0.21626   0.44314   0.97880   0.00000  Uiso   1.00
C913   C     0.21022   0.45376   0.51962   0.00000  Uiso   1.00
C914   C     0.17484   0.47571   0.54230   0.00000  Uiso   1.00
C915   C     0.23805   0.44103   0.53844   0.00000  Uiso   1.00
C916   C     0.23152   0.44993   0.57892   0.00000  Uiso   1.00
C917   C     0.16834   0.48311   0.58353   0.00000  Uiso   1.00
H918   H     0.14211   0.49898   0.60288   0.00000  Uiso   1.00
H919   H     0.25325   0.43990   0.59286   0.00000  Uiso   1.00
H920   H     0.05333   0.56327   0.97653   0.00000  Uiso   1.00
H921   H     0.07856   0.56078   0.90551   0.00000  Uiso   1.00
H922   H     0.18269   0.49359   0.90347   0.00000  Uiso   1.00
H923   H     0.10337   0.51920   0.57507   0.00000  Uiso   1.00
H924   H     0.26478   0.42371   0.52207   0.00000  Uiso   1.00
C925   C     0.32705   0.50948   0.73757   0.00000  Uiso   1.00
H926   H     0.01680   0.52651   0.71471   0.00000  Uiso   1.00
C927   C     0.00708   0.49090   0.76225   0.00000  Uiso   1.00
H928   H     0.31799   0.47393   0.78547   0.00000  Uiso   1.00
C929   C     0.18096   0.65551   0.73814   0.00000  Uiso   1.00
H930   H     0.20815   0.33614   0.71610   0.00000  Uiso   1.00
C931   C     0.15154   0.34541   0.76212   0.00000  Uiso   1.00
H932   H     0.12394   0.66553   0.78420   0.00000  Uiso   1.00
N933   N     0.05583   0.55518   0.54686   0.00000  Uiso   1.00
O934   O     0.02764   0.54019   0.57730   0.00000  Uiso   1.00
O935   O     0.05763   0.59446   0.54234   0.00000  Uiso   1.00
O936   O     0.24939   0.42006   0.95678   0.00000  Uiso   1.00
C937   C     0.28864   0.44693   0.94638   0.00000  Uiso   1.00
H938   H     0.31539   0.42884   0.94536   0.00000  Uiso   1.00
H939   H     0.29065   0.47471   0.96840   0.00000  Uiso   1.00
C940   C     0.29620   0.46122   0.90551   0.00000  Uiso   1.00
H941   H     0.29667   0.43344   0.88335   0.00000  Uiso   1.00
H942   H     0.26957   0.47909   0.90575   0.00000  Uiso   1.00
C943   C     0.00563   0.48903   0.89348   0.00000  Uiso   1.00
H944   H     0.00528   0.51769   0.91458   0.00000  Uiso   1.00
H945   H     0.01045   0.49839   0.86359   0.00000  Uiso   1.00
H946   H     0.03302   0.47201   0.89288   0.00000  Uiso   1.00
N947   N     0.17929   0.42660   0.92639   0.00000  Uiso   1.00
O948   O     0.14026   0.41570   0.92309   0.00000  Uiso   1.00
O949   O     0.21106   0.41004   0.90019   0.00000  Uiso   1.00
Zn950  Zn    0.52577   0.47423   0.78278   0.00000  Uiso   1.00
Zn951  Zn    0.46792   0.45711   0.72258   0.00000  Uiso   1.00
Zn952  Zn    0.54500   0.52997   0.71188   0.00000  Uiso   1.00
Zn953  Zn    0.46131   0.53868   0.78277   0.00000  Uiso   1.00
O954   O     0.50000   0.50000   0.75000   0.00000  Uiso   1.00
O955   O     0.40323   0.52293   0.77820   0.00000  Uiso   1.00
O956   O     0.58773   0.48610   0.76768   0.00000  Uiso   1.00
O957   O     0.47133   0.40236   0.73607   0.00000  Uiso   1.00
O958   O     0.53771   0.58860   0.71806   0.00000  Uiso   1.00
O959   O     0.49027   0.45726   0.66625   0.00000  Uiso   1.00
O960   O     0.46020   0.53979   0.83749   0.00000  Uiso   1.00
O961   O     0.54421   0.50826   0.65877   0.00000  Uiso   1.00
O962   O     0.50532   0.49468   0.83749   0.00000  Uiso   1.00
O963   O     0.51182   0.41434   0.77821   0.00000  Uiso   1.00
O964   O     0.47914   0.59469   0.76767   0.00000  Uiso   1.00
O965   O     0.40785   0.46584   0.73607   0.00000  Uiso   1.00
O966   O     0.60119   0.52512   0.71806   0.00000  Uiso   1.00
C967   C     0.38580   0.49325   0.75877   0.00000  Uiso   1.00
C968   C     0.61440   0.50690   0.74120   0.00000  Uiso   1.00
C969   C     0.48926   0.38944   0.75890   0.00000  Uiso   1.00
C970   C     0.51021   0.61102   0.74135   0.00000  Uiso   1.00
C971   C     0.52156   0.47860   0.64398   0.00000  Uiso   1.00
C972   C     0.47854   0.52089   0.85625   0.00000  Uiso   1.00
C973   C     0.46524   0.52565   0.89963   0.00000  Uiso   1.00
C974   C     0.52977   0.47052   0.60140   0.00000  Uiso   1.00
C975   C     0.41475   0.54731   0.96158   0.00000  Uiso   1.00
C976   C     0.42920   0.54604   0.92068   0.00000  Uiso   1.00
C977   C     0.48653   0.50654   0.92002   0.00000  Uiso   1.00
C978   C     0.47063   0.50464   0.96103   0.00000  Uiso   1.00
C979   C     0.43596   0.52794   0.98237   0.00000  Uiso   1.00
C980   C     0.49044   0.48233   0.98131   0.00000  Uiso   1.00
C981   C     0.48160   0.49056   0.52287   0.00000  Uiso   1.00
C982   C     0.44671   0.51362   0.54344   0.00000  Uiso   1.00
C983   C     0.42349   0.53138   0.52384   0.00000  Uiso   1.00
C984   C     0.51910   0.45228   0.96121   0.00000  Uiso   1.00
C985   C     0.54959   0.44314   0.97880   0.00000  Uiso   1.00
C986   C     0.54355   0.45376   0.51962   0.00000  Uiso   1.00
C987   C     0.50817   0.47571   0.54230   0.00000  Uiso   1.00
C988   C     0.57138   0.44103   0.53844   0.00000  Uiso   1.00
C989   C     0.56485   0.44993   0.57892   0.00000  Uiso   1.00
C990   C     0.50168   0.48311   0.58353   0.00000  Uiso   1.00
H991   H     0.47544   0.49898   0.60288   0.00000  Uiso   1.00
H992   H     0.58658   0.43990   0.59286   0.00000  Uiso   1.00
H993   H     0.38666   0.56327   0.97653   0.00000  Uiso   1.00
H994   H     0.41190   0.56078   0.90551   0.00000  Uiso   1.00
H995   H     0.51602   0.49359   0.90347   0.00000  Uiso   1.00
H996   H     0.43670   0.51920   0.57507   0.00000  Uiso   1.00
H997   H     0.59811   0.42371   0.52207   0.00000  Uiso   1.00
C998   C     0.66038   0.50948   0.73757   0.00000  Uiso   1.00
H999   H     0.35013   0.52651   0.71471   0.00000  Uiso   1.00
C1000  C     0.34042   0.49090   0.76225   0.00000  Uiso   1.00
H1001  H     0.65133   0.47393   0.78547   0.00000  Uiso   1.00
C1002  C     0.51429   0.65551   0.73814   0.00000  Uiso   1.00
H1003  H     0.54148   0.33614   0.71610   0.00000  Uiso   1.00
C1004  C     0.48487   0.34541   0.76212   0.00000  Uiso   1.00
H1005  H     0.45728   0.66553   0.78420   0.00000  Uiso   1.00
N1006  N     0.38916   0.55518   0.54686   0.00000  Uiso   1.00
O1007  O     0.36097   0.54019   0.57730   0.00000  Uiso   1.00
O1008  O     0.39096   0.59446   0.54234   0.00000  Uiso   1.00
O1009  O     0.58272   0.42006   0.95678   0.00000  Uiso   1.00
C1010  C     0.62197   0.44693   0.94638   0.00000  Uiso   1.00
H1011  H     0.64872   0.42884   0.94536   0.00000  Uiso   1.00
H1012  H     0.62398   0.47471   0.96840   0.00000  Uiso   1.00
C1013  C     0.62954   0.46122   0.90551   0.00000  Uiso   1.00
H1014  H     0.63000   0.43344   0.88335   0.00000  Uiso   1.00
H1015  H     0.60290   0.47909   0.90575   0.00000  Uiso   1.00
C1016  C     0.33896   0.48903   0.89348   0.00000  Uiso   1.00
H1017  H     0.33862   0.51769   0.91458   0.00000  Uiso   1.00
H1018  H     0.34379   0.49839   0.86359   0.00000  Uiso   1.00
H1019  H     0.36635   0.47201   0.89288   0.00000  Uiso   1.00
N1020  N     0.51262   0.42660   0.92639   0.00000  Uiso   1.00
O1021  O     0.47359   0.41570   0.92309   0.00000  Uiso   1.00
O1022  O     0.54439   0.41004   0.90019   0.00000  Uiso   1.00
Zn1023 Zn    0.85910   0.47423   0.78278   0.00000  Uiso   1.00
Zn1024 Zn    0.80125   0.45711   0.72258   0.00000  Uiso   1.00
Zn1025 Zn    0.87833   0.52997   0.71188   0.00000  Uiso   1.00
Zn1026 Zn    0.79465   0.53868   0.78277   0.00000  Uiso   1.00
O1027  O     0.83333   0.50000   0.75000   0.00000  Uiso   1.00
O1028  O     0.73656   0.52293   0.77820   0.00000  Uiso   1.00
O1029  O     0.92106   0.48610   0.76768   0.00000  Uiso   1.00
O1030  O     0.80467   0.40236   0.73607   0.00000  Uiso   1.00
O1031  O     0.87104   0.58860   0.71806   0.00000  Uiso   1.00
O1032  O     0.82360   0.45726   0.66625   0.00000  Uiso   1.00
O1033  O     0.79354   0.53979   0.83749   0.00000  Uiso   1.00
O1034  O     0.87755   0.50826   0.65877   0.00000  Uiso   1.00
O1035  O     0.83865   0.49468   0.83749   0.00000  Uiso   1.00
O1036  O     0.84515   0.41434   0.77821   0.00000  Uiso   1.00
O1037  O     0.81247   0.59469   0.76767   0.00000  Uiso   1.00
O1038  O     0.74119   0.46584   0.73607   0.00000  Uiso   1.00
O1039  O     0.93452   0.52512   0.71806   0.00000  Uiso   1.00
C1040  C     0.71914   0.49325   0.75877   0.00000  Uiso   1.00
C1041  C     0.94774   0.50690   0.74120   0.00000  Uiso   1.00
C1042  C     0.82259   0.38944   0.75890   0.00000  Uiso   1.00
C1043  C     0.84354   0.61102   0.74135   0.00000  Uiso   1.00
C1044  C     0.85489   0.47860   0.64398   0.00000  Uiso   1.00
C1045  C     0.81187   0.52089   0.85625   0.00000  Uiso   1.00
C1046  C     0.79857   0.52565   0.89963   0.00000  Uiso   1.00
C1047  C     0.86311   0.47052   0.60140   0.00000  Uiso   1.00
C1048  C     0.74809   0.54731   0.96158   0.00000  Uiso   1.00
C1049  C     0.76254   0.54604   0.92068   0.00000  Uiso   1.00
C1050  C     0.81986   0.50654   0.92002   0.00000  Uiso   1.00
C1051  C     0.80396   0.50464   0.96103   0.00000  Uiso   1.00
C1052  C     0.76930   0.52794   0.98237   0.00000  Uiso   1.00
C1053  C     0.82378   0.48233   0.98131   0.00000  Uiso   1.00
C1054  C     0.81494   0.49056   0.52287   0.00000  Uiso   1.00
C1055  C     0.78004   0.51362   0.54344   0.00000  Uiso   1.00
C1056  C     0.75683   0.53138   0.52384   0.00000  Uiso   1.00
C1057  C     0.85244   0.45228   0.96121   0.00000  Uiso   1.00
C1058  C     0.88293   0.44314   0.97880   0.00000  Uiso   1.00
C1059  C     0.87689   0.45376   0.51962   0.00000  Uiso   1.00
C1060  C     0.84150   0.47571   0.54230   0.00000  Uiso   1.00
C1061  C     0.90471   0.44103   0.53844   0.00000  Uiso   1.00
C1062  C     0.89819   0.44993   0.57892   0.00000  Uiso   1.00
C1063  C     0.83501   0.48311   0.58353   0.00000  Uiso   1.00
H1064  H     0.80878   0.49898   0.60288   0.00000  Uiso   1.00
H1065  H     0.91992   0.43990   0.59286   0.00000  Uiso   1.00
H1066  H     0.72000   0.56327   0.97653   0.00000  Uiso   1.00
H1067  H     0.74523   0.56078   0.90551   0.00000  Uiso   1.00
H1068  H     0.84936   0.49359   0.90347   0.00000  Uiso   1.00
H1069  H     0.77004   0.51920   0.57507   0.00000  Uiso   1.00
H1070  H     0.93145   0.42371   0.52207   0.00000  Uiso   1.00
C1071  C     0.99372   0.50948   0.73757   0.00000  Uiso   1.00
H1072  H     0.68346   0.52651   0.71471   0.00000  Uiso   1.00
C1073  C     0.67375   0.49090   0.76225   0.00000  Uiso   1.00
H1074  H     0.98466   0.47393   0.78547   0.00000  Uiso   1.00
C1075  C     0.84762   0.65551   0.73814   0.00000  Uiso   1.00
H1076  H     0.87482   0.33614   0.71610   0.00000  Uiso   1.00
C1077  C     0.81821   0.34541   0.76212   0.00000  Uiso   1.00
H1078  H     0.79061   0.66553   0.78420   0.00000  Uiso   1.00
N1079  N     0.72250   0.55518   0.54686   0.00000  Uiso   1.00
O1080  O     0.69430   0.54019   0.57730   0.00000  Uiso   1.00
O1081  O     0.72429   0.59446   0.54234   0.00000  Uiso   1.00
O1082  O     0.91606   0.42006   0.95678   0.00000  Uiso   1.00
C1083  C     0.95530   0.44693   0.94638   0.00000  Uiso   1.00
H1084  H     0.98205   0.42884   0.94536   0.00000  Uiso   1.00
H1085  H     0.95732   0.47471   0.96840   0.00000  Uiso   1.00
C1086  C     0.96287   0.46122   0.90551   0.00000  Uiso   1.00
H1087  H     0.96333   0.43344   0.88335   0.00000  Uiso   1.00
H1088  H     0.93624   0.47909   0.90575   0.00000  Uiso   1.00
C1089  C     0.67230   0.48903   0.89348   0.00000  Uiso   1.00
H1090  H     0.67195   0.51769   0.91458   0.00000  Uiso   1.00
H1091  H     0.67712   0.49839   0.86359   0.00000  Uiso   1.00
H1092  H     0.69968   0.47201   0.89288   0.00000  Uiso   1.00
N1093  N     0.84595   0.42660   0.92639   0.00000  Uiso   1.00
O1094  O     0.80693   0.41570   0.92309   0.00000  Uiso   1.00
O1095  O     0.87772   0.41004   0.90019   0.00000  Uiso   1.00
Zn1096 Zn    0.19244   0.80756   0.78278   0.00000  Uiso   1.00
Zn1097 Zn    0.13459   0.79044   0.72258   0.00000  Uiso   1.00
Zn1098 Zn    0.21166   0.86331   0.71188   0.00000  Uiso   1.00
Zn1099 Zn    0.12798   0.87202   0.78277   0.00000  Uiso   1.00
O1100  O     0.16667   0.83333   0.75000   0.00000  Uiso   1.00
O1101  O     0.06990   0.85627   0.77820   0.00000  Uiso   1.00
O1102  O     0.25440   0.81944   0.76768   0.00000  Uiso   1.00
O1103  O     0.13800   0.73570   0.73607   0.00000  Uiso   1.00
O1104  O     0.20437   0.92193   0.71806   0.00000  Uiso   1.00
O1105  O     0.15693   0.79060   0.66625   0.00000  Uiso   1.00
O1106  O     0.12687   0.87313   0.83749   0.00000  Uiso   1.00
O1107  O     0.21088   0.84159   0.65877   0.00000  Uiso   1.00
O1108  O     0.17198   0.82802   0.83749   0.00000  Uiso   1.00
O1109  O     0.17849   0.74768   0.77821   0.00000  Uiso   1.00
O1110  O     0.14581   0.92803   0.76767   0.00000  Uiso   1.00
O1111  O     0.07452   0.79917   0.73607   0.00000  Uiso   1.00
O1112  O     0.26785   0.85845   0.71806   0.00000  Uiso   1.00
C1113  C     0.05247   0.82658   0.75877   0.00000  Uiso   1.00
C1114  C     0.28107   0.84023   0.74120   0.00000  Uiso   1.00
C1115  C     0.15592   0.72277   0.75890   0.00000  Uiso   1.00
C1116  C     0.17687   0.94435   0.74135   0.00000  Uiso   1.00
C1117  C     0.18823   0.81193   0.64398   0.00000  Uiso   1.00
C1118  C     0.14521   0.85422   0.85625   0.00000  Uiso   1.00
C1119  C     0.13190   0.85898   0.89963   0.00000  Uiso   1.00
C1120  C     0.19644   0.80386   0.60140   0.00000  Uiso   1.00
C1121  C     0.08142   0.88065   0.96158   0.00000  Uiso   1.00
C1122  C     0.09587   0.87937   0.92068   0.00000  Uiso   1.00
C1123  C     0.15319   0.83987   0.92002   0.00000  Uiso   1.00
C1124  C     0.13729   0.83798   0.96103   0.00000  Uiso   1.00
C1125  C     0.10263   0.86127   0.98237   0.00000  Uiso   1.00
C1126  C     0.15711   0.81566   0.98131   0.00000  Uiso   1.00
C1127  C     0.14827   0.82389   0.52287   0.00000  Uiso   1.00
C1128  C     0.11337   0.84695   0.54344   0.00000  Uiso   1.00
C1129  C     0.09016   0.86472   0.52384   0.00000  Uiso   1.00
C1130  C     0.18577   0.78562   0.96121   0.00000  Uiso   1.00
C1131  C     0.21626   0.77647   0.97880   0.00000  Uiso   1.00
C1132  C     0.21022   0.78709   0.51962   0.00000  Uiso   1.00
C1133  C     0.17484   0.80904   0.54230   0.00000  Uiso   1.00
C1134  C     0.23805   0.77436   0.53844   0.00000  Uiso   1.00
C1135  C     0.23152   0.78326   0.57892   0.00000  Uiso   1.00
C1136  C     0.16834   0.81645   0.58353   0.00000  Uiso   1.00
H1137  H     0.14211   0.83231   0.60288   0.00000  Uiso   1.00
H1138  H     0.25325   0.77324   0.59286   0.00000  Uiso   1.00
H1139  H     0.05333   0.89660   0.97653   0.00000  Uiso   1.00
H1140  H     0.07856   0.89412   0.90551   0.00000  Uiso   1.00
H1141  H     0.18269   0.82693   0.90347   0.00000  Uiso   1.00
H1142  H     0.10337   0.85253   0.57507   0.00000  Uiso   1.00
H1143  H     0.26478   0.75704   0.52207   0.00000  Uiso   1.00
C1144  C     0.32705   0.84281   0.73757   0.00000  Uiso   1.00
H1145  H     0.01680   0.85985   0.71471   0.00000  Uiso   1.00
C1146  C     0.00708   0.82424   0.76225   0.00000  Uiso   1.00
H1147  H     0.31799   0.80726   0.78547   0.00000  Uiso   1.00
C1148  C     0.18096   0.98884   0.73814   0.00000  Uiso   1.00
H1149  H     0.20815   0.66947   0.71610   0.00000  Uiso   1.00
C1150  C     0.15154   0.67874   0.76212   0.00000  Uiso   1.00
H1151  H     0.12394   0.99886   0.78420   0.00000  Uiso   1.00
N1152  N     0.05583   0.88851   0.54686   0.00000  Uiso   1.00
O1153  O     0.02764   0.87353   0.57730   0.00000  Uiso   1.00
O1154  O     0.05763   0.92780   0.54234   0.00000  Uiso   1.00
O1155  O     0.24939   0.75339   0.95678   0.00000  Uiso   1.00
C1156  C     0.28864   0.78026   0.94638   0.00000  Uiso   1.00
H1157  H     0.31539   0.76217   0.94536   0.00000  Uiso   1.00
H1158  H     0.29065   0.80805   0.96840   0.00000  Uiso   1.00
C1159  C     0.29620   0.79455   0.90551   0.00000  Uiso   1.00
H1160  H     0.29667   0.76677   0.88335   0.00000  Uiso   1.00
H1161  H     0.26957   0.81242   0.90575   0.00000  Uiso   1.00
C1162  C     0.00563   0.82237   0.89348   0.00000  Uiso   1.00
H1163  H     0.00528   0.85102   0.91458   0.00000  Uiso   1.00
H1164  H     0.01045   0.83172   0.86359   0.00000  Uiso   1.00
H1165  H     0.03302   0.80534   0.89288   0.00000  Uiso   1.00
N1166  N     0.17929   0.75993   0.92639   0.00000  Uiso   1.00
O1167  O     0.14026   0.74903   0.92309   0.00000  Uiso   1.00
O1168  O     0.21106   0.74337   0.90019   0.00000  Uiso   1.00
Zn1169 Zn    0.52577   0.80756   0.78278   0.00000  Uiso   1.00
Zn1170 Zn    0.46792   0.79044   0.72258   0.00000  Uiso   1.00
Zn1171 Zn    0.54500   0.86331   0.71188   0.00000  Uiso   1.00
Zn1172 Zn    0.46131   0.87202   0.78277   0.00000  Uiso   1.00
O1173  O     0.50000   0.83333   0.75000   0.00000  Uiso   1.00
O1174  O     0.40323   0.85627   0.77820   0.00000  Uiso   1.00
O1175  O     0.58773   0.81944   0.76768   0.00000  Uiso   1.00
O1176  O     0.47133   0.73570   0.73607   0.00000  Uiso   1.00
O1177  O     0.53771   0.92193   0.71806   0.00000  Uiso   1.00
O1178  O     0.49027   0.79060   0.66625   0.00000  Uiso   1.00
O1179  O     0.46020   0.87313   0.83749   0.00000  Uiso   1.00
O1180  O     0.54421   0.84159   0.65877   0.00000  Uiso   1.00
O1181  O     0.50532   0.82802   0.83749   0.00000  Uiso   1.00
O1182  O     0.51182   0.74768   0.77821   0.00000  Uiso   1.00
O1183  O     0.47914   0.92803   0.76767   0.00000  Uiso   1.00
O1184  O     0.40785   0.79917   0.73607   0.00000  Uiso   1.00
O1185  O     0.60119   0.85845   0.71806   0.00000  Uiso   1.00
C1186  C     0.38580   0.82658   0.75877   0.00000  Uiso   1.00
C1187  C     0.61440   0.84023   0.74120   0.00000  Uiso   1.00
C1188  C     0.48926   0.72277   0.75890   0.00000  Uiso   1.00
C1189  C     0.51021   0.94435   0.74135   0.00000  Uiso   1.00
C1190  C     0.52156   0.81193   0.64398   0.00000  Uiso   1.00
C1191  C     0.47854   0.85422   0.85625   0.00000  Uiso   1.00
C1192  C     0.46524   0.85898   0.89963   0.00000  Uiso   1.00
C1193  C     0.52977   0.80386   0.60140   0.00000  Uiso   1.00
C1194  C     0.41475   0.88065   0.96158   0.00000  Uiso   1.00
C1195  C     0.42920   0.87937   0.92068   0.00000  Uiso   1.00
C1196  C     0.48653   0.83987   0.92002   0.00000  Uiso   1.00
C1197  C     0.47063   0.83798   0.96103   0.00000  Uiso   1.00
C1198  C     0.43596   0.86127   0.98237   0.00000  Uiso   1.00
C1199  C     0.49044   0.81566   0.98131   0.00000  Uiso   1.00
C1200  C     0.48160   0.82389   0.52287   0.00000  Uiso   1.00
C1201  C     0.44671   0.84695   0.54344   0.00000  Uiso   1.00
C1202  C     0.42349   0.86472   0.52384   0.00000  Uiso   1.00
C1203  C     0.51910   0.78562   0.96121   0.00000  Uiso   1.00
C1204  C     0.54959   0.77647   0.97880   0.00000  Uiso   1.00
C1205  C     0.54355   0.78709   0.51962   0.00000  Uiso   1.00
C1206  C     0.50817   0.80904   0.54230   0.00000  Uiso   1.00
C1207  C     0.57138   0.77436   0.53844   0.00000  Uiso   1.00
C1208  C     0.56485   0.78326   0.57892   0.00000  Uiso   1.00
C1209  C     0.50168   0.81645   0.58353   0.00000  Uiso   1.00
H1210  H     0.47544   0.83231   0.60288   0.00000  Uiso   1.00
H1211  H     0.58658   0.77324   0.59286   0.00000  Uiso   1.00
H1212  H     0.38666   0.89660   0.97653   0.00000  Uiso   1.00
H1213  H     0.41190   0.89412   0.90551   0.00000  Uiso   1.00
H1214  H     0.51602   0.82693   0.90347   0.00000  Uiso   1.00
H1215  H     0.43670   0.85253   0.57507   0.00000  Uiso   1.00
H1216  H     0.59811   0.75704   0.52207   0.00000  Uiso   1.00
C1217  C     0.66038   0.84281   0.73757   0.00000  Uiso   1.00
H1218  H     0.35013   0.85985   0.71471   0.00000  Uiso   1.00
C1219  C     0.34042   0.82424   0.76225   0.00000  Uiso   1.00
H1220  H     0.65133   0.80726   0.78547   0.00000  Uiso   1.00
C1221  C     0.51429   0.98884   0.73814   0.00000  Uiso   1.00
H1222  H     0.54148   0.66947   0.71610   0.00000  Uiso   1.00
C1223  C     0.48487   0.67874   0.76212   0.00000  Uiso   1.00
H1224  H     0.45728   0.99886   0.78420   0.00000  Uiso   1.00
N1225  N     0.38916   0.88851   0.54686   0.00000  Uiso   1.00
O1226  O     0.36097   0.87353   0.57730   0.00000  Uiso   1.00
O1227  O     0.39096   0.92780   0.54234   0.00000  Uiso   1.00
O1228  O     0.58272   0.75339   0.95678   0.00000  Uiso   1.00
C1229  C     0.62197   0.78026   0.94638   0.00000  Uiso   1.00
H1230  H     0.64872   0.76217   0.94536   0.00000  Uiso   1.00
H1231  H     0.62398   0.80805   0.96840   0.00000  Uiso   1.00
C1232  C     0.62954   0.79455   0.90551   0.00000  Uiso   1.00
H1233  H     0.63000   0.76677   0.88335   0.00000  Uiso   1.00
H1234  H     0.60290   0.81242   0.90575   0.00000  Uiso   1.00
C1235  C     0.33896   0.82237   0.89348   0.00000  Uiso   1.00
H1236  H     0.33862   0.85102   0.91458   0.00000  Uiso   1.00
H1237  H     0.34379   0.83172   0.86359   0.00000  Uiso   1.00
H1238  H     0.36635   0.80534   0.89288   0.00000  Uiso   1.00
N1239  N     0.51262   0.75993   0.92639   0.00000  Uiso   1.00
O1240  O     0.47359   0.74903   0.92309   0.00000  Uiso   1.00
O1241  O     0.54439   0.74337   0.90019   0.00000  Uiso   1.00
Zn1242 Zn    0.85910   0.80756   0.78278   0.00000  Uiso   1.00
Zn1243 Zn    0.80125   0.79044   0.72258   0.00000  Uiso   1.00
Zn1244 Zn    0.87833   0.86331   0.71188   0.00000  Uiso   1.00
Zn1245 Zn    0.79465   0.87202   0.78277   0.00000  Uiso   1.00
O1246  O     0.83333   0.83333   0.75000   0.00000  Uiso   1.00
O1247  O     0.73656   0.85627   0.77820   0.00000  Uiso   1.00
O1248  O     0.92106   0.81944   0.76768   0.00000  Uiso   1.00
O1249  O     0.80467   0.73570   0.73607   0.00000  Uiso   1.00
O1250  O     0.87104   0.92193   0.71806   0.00000  Uiso   1.00
O1251  O     0.82360   0.79060   0.66625   0.00000  Uiso   1.00
O1252  O     0.79354   0.87313   0.83749   0.00000  Uiso   1.00
O1253  O     0.87755   0.84159   0.65877   0.00000  Uiso   1.00
O1254  O     0.83865   0.82802   0.83749   0.00000  Uiso   1.00
O1255  O     0.84515   0.74768   0.77821   0.00000  Uiso   1.00
O1256  O     0.81247   0.92803   0.76767   0.00000  Uiso   1.00
O1257  O     0.74119   0.79917   0.73607   0.00000  Uiso   1.00
O1258  O     0.93452   0.85845   0.71806   0.00000  Uiso   1.00
C1259  C     0.71914   0.82658   0.75877   0.00000  Uiso   1.00
C1260  C     0.94774   0.84023   0.74120   0.00000  Uiso   1.00
C1261  C     0.82259   0.72277   0.75890   0.00000  Uiso   1.00
C1262  C     0.84354   0.94435   0.74135   0.00000  Uiso   1.00
C1263  C     0.85489   0.81193   0.64398   0.00000  Uiso   1.00
C1264  C     0.81187   0.85422   0.85625   0.00000  Uiso   1.00
C1265  C     0.79857   0.85898   0.89963   0.00000  Uiso   1.00
C1266  C     0.86311   0.80386   0.60140   0.00000  Uiso   1.00
C1267  C     0.74809   0.88065   0.96158   0.00000  Uiso   1.00
C1268  C     0.76254   0.87937   0.92068   0.00000  Uiso   1.00
C1269  C     0.81986   0.83987   0.92002   0.00000  Uiso   1.00
C1270  C     0.80396   0.83798   0.96103   0.00000  Uiso   1.00
C1271  C     0.76930   0.86127   0.98237   0.00000  Uiso   1.00
C1272  C     0.82378   0.81566   0.98131   0.00000  Uiso   1.00
C1273  C     0.81494   0.82389   0.52287   0.00000  Uiso   1.00
C1274  C     0.78004   0.84695   0.54344   0.00000  Uiso   1.00
C1275  C     0.75683   0.86472   0.52384   0.00000  Uiso   1.00
C1276  C     0.85244   0.78562   0.96121   0.00000  Uiso   1.00
C1277  C     0.88293   0.77647   0.97880   0.00000  Uiso   1.00
C1278  C     0.87689   0.78709   0.51962   0.00000  Uiso   1.00
C1279  C     0.84150   0.80904   0.54230   0.00000  Uiso   1.00
C1280  C     0.90471   0.77436   0.53844   0.00000  Uiso   1.00
C1281  C     0.89819   0.78326   0.57892   0.00000  Uiso   1.00
C1282  C     0.83501   0.81645   0.58353   0.00000  Uiso   1.00
H1283  H     0.80878   0.83231   0.60288   0.00000  Uiso   1.00
H1284  H     0.91992   0.77324   0.59286   0.00000  Uiso   1.00
H1285  H     0.72000   0.89660   0.97653   0.00000  Uiso   1.00
H1286  H     0.74523   0.89412   0.90551   0.00000  Uiso   1.00
H1287  H     0.84936   0.82693   0.90347   0.00000  Uiso   1.00
H1288  H     0.77004   0.85253   0.57507   0.00000  Uiso   1.00
H1289  H     0.93145   0.75704   0.52207   0.00000  Uiso   1.00
C1290  C     0.99372   0.84281   0.73757   0.00000  Uiso   1.00
H1291  H     0.68346   0.85985   0.71471   0.00000  Uiso   1.00
C1292  C     0.67375   0.82424   0.76225   0.00000  Uiso   1.00
H1293  H     0.98466   0.80726   0.78547   0.00000  Uiso   1.00
C1294  C     0.84762   0.98884   0.73814   0.00000  Uiso   1.00
H1295  H     0.87482   0.66947   0.71610   0.00000  Uiso   1.00
C1296  C     0.81821   0.67874   0.76212   0.00000  Uiso   1.00
H1297  H     0.79061   0.99886   0.78420   0.00000  Uiso   1.00
N1298  N     0.72250   0.88851   0.54686   0.00000  Uiso   1.00
O1299  O     0.69430   0.87353   0.57730   0.00000  Uiso   1.00
O1300  O     0.72429   0.92780   0.54234   0.00000  Uiso   1.00
O1301  O     0.91606   0.75339   0.95678   0.00000  Uiso   1.00
C1302  C     0.95530   0.78026   0.94638   0.00000  Uiso   1.00
H1303  H     0.98205   0.76217   0.94536   0.00000  Uiso   1.00
H1304  H     0.95732   0.80805   0.96840   0.00000  Uiso   1.00
C1305  C     0.96287   0.79455   0.90551   0.00000  Uiso   1.00
H1306  H     0.96333   0.76677   0.88335   0.00000  Uiso   1.00
H1307  H     0.93624   0.81242   0.90575   0.00000  Uiso   1.00
C1308  C     0.67230   0.82237   0.89348   0.00000  Uiso   1.00
H1309  H     0.67195   0.85102   0.91458   0.00000  Uiso   1.00
H1310  H     0.67712   0.83172   0.86359   0.00000  Uiso   1.00
H1311  H     0.69968   0.80534   0.89288   0.00000  Uiso   1.00
N1312  N     0.84595   0.75993   0.92639   0.00000  Uiso   1.00
O1313  O     0.80693   0.74903   0.92309   0.00000  Uiso   1.00
O1314  O     0.87772   0.74337   0.90019   0.00000  Uiso   1.00
loop_
_geom_bond_atom_site_label_1
_geom_bond_atom_site_label_2
_geom_bond_distance
_geom_bond_site_symmetry_2
_ccdc_geom_bond_type
Zn1    O5      1.958   .     S
Zn1    O13     1.922   .     S
Zn1    O14     1.928   .     S
Zn1    O7      1.924   .     S
Zn2    O8      1.937   .     S
Zn2    O16     1.927   .     S
Zn2    O10     1.926   .     S
Zn2    O5      1.941   .     S
Zn3    O9      1.931   .     S
Zn3    O17     1.937   .     S
Zn3    O12     1.930   .     S
Zn3    O5      1.932   .     S
Zn4    O15     1.931   .     S
Zn4    O11     1.936   .     S
Zn4    O5      1.931   .     S
Zn4    O6      1.932   .     S
O6     C18     1.269   .     A
O7     C19     1.277   .     A
O8     C20     1.276   .     A
O9     C21     1.270   .     A
O10    C22     1.274   .     A
O11    C23     1.281   .     A
O12    C22     1.274   .     A
O13    C23     1.286   .     A
O14    C20     1.276   .     A
O15    C21     1.270   .     A
O16    C18     1.269   .     A
O17    C19     1.281   .     A
C18    C51     1.438   .     S
C19    C49     1.455   .     S
C20    C55     1.436   .     S
C21    C53     1.451   .     S
C22    C25     1.454   .     S
C23    C24     1.471   .     S
C24    C27     1.399   .     A
C24    C28     1.395   .     A
C25    C40     1.392   .     A
C25    C41     1.392   .     A
C26    C30     1.409   .     A
C26    H44     1.081   .     S
C26    C27     1.392   .     A
C27    H45     1.083   .     S
C28    H46     1.080   .     S
C28    C29     1.408   .     A
C29    C30     1.420   .     A
C29    C31     1.424   .     A
C30    C691    1.407   .     S
C31    C35     1.422   .     A
C31    C689    1.418   .     S
C32    C38     1.425   .     A
C32    C33     1.415   .     A
C32    C688    1.418   1_554 S
C33    C34     1.396   .     A
C33    H47     1.075   .     S
C34    N57     1.437   .     S
C34    C687    1.407   1_554 S
C35    N71     1.445   .     S
C35    C36     1.405   .     A
C36    O60     1.387   .     S
C36    C694    1.409   .     S
C37    C38     1.424   .     A
C37    C39     1.410   .     A
C37    C693    1.409   1_554 S
C38    C41     1.413   .     A
C39    C40     1.390   .     A
C39    H48     1.082   .     S
C40    H43     1.084   .     S
C41    H42     1.076   .     S
C49    H123    1.088   .     S
C49    C124    1.335   .     S
H50    C195    1.088   1_455 S
C51    C195    1.335   1_455 S
C51    H198    1.086   1_455 S
H52    C124    1.086   .     S
C53    H273    1.088   .     S
C53    C274    1.332   .     S
H54    C491    1.088   1_545 S
C55    C491    1.332   1_545 S
C55    H494    1.086   1_545 S
H56    C274    1.086   .     S
N57    O58     1.301   .     A
N57    O59     1.301   .     A
O60    C61     1.420   .     S
C61    C64     1.533   .     S
C61    H62     1.111   .     S
C61    H63     1.117   .     S
C64    H65     1.111   .     S
C64    H66     1.111   .     S
C64    C140    1.525   .     S
C67    H70     1.111   .     S
C67    H69     1.111   .     S
C67    H68     1.111   .     S
C67    C210    1.525   1_455 S
N71    O72     1.302   .     A
N71    O73     1.301   .     A
Zn74   O78     1.958   .     S
Zn74   O86     1.922   .     S
Zn74   O87     1.928   .     S
Zn74   O80     1.924   .     S
Zn75   O81     1.937   .     S
Zn75   O89     1.927   .     S
Zn75   O83     1.926   .     S
Zn75   O78     1.941   .     S
Zn76   O82     1.931   .     S
Zn76   O90     1.937   .     S
Zn76   O85     1.930   .     S
Zn76   O78     1.932   .     S
Zn77   O88     1.931   .     S
Zn77   O84     1.936   .     S
Zn77   O78     1.931   .     S
Zn77   O79     1.932   .     S
O79    C91     1.269   .     A
O80    C92     1.277   .     A
O81    C93     1.276   .     A
O82    C94     1.270   .     A
O83    C95     1.274   .     A
O84    C96     1.281   .     A
O85    C95     1.274   .     A
O86    C96     1.286   .     A
O87    C93     1.276   .     A
O88    C94     1.270   .     A
O89    C91     1.269   .     A
O90    C92     1.281   .     A
C91    C124    1.438   .     S
C92    C122    1.455   .     S
C93    C128    1.436   .     S
C94    C126    1.451   .     S
C95    C98     1.454   .     S
C96    C97     1.471   .     S
C97    C100    1.399   .     A
C97    C101    1.395   .     A
C98    C113    1.392   .     A
C98    C114    1.392   .     A
C99    C103    1.409   .     A
C99    H117    1.081   .     S
C99    C100    1.392   .     A
C100   H118    1.083   .     S
C101   H119    1.080   .     S
C101   C102    1.408   .     A
C102   C103    1.420   .     A
C102   C104    1.424   .     A
C103   C764    1.407   .     S
C104   C108    1.422   .     A
C104   C762    1.418   .     S
C105   C111    1.425   .     A
C105   C106    1.415   .     A
C105   C761    1.418   1_554 S
C106   C107    1.396   .     A
C106   H120    1.075   .     S
C107   N130    1.437   .     S
C107   C760    1.407   1_554 S
C108   N144    1.445   .     S
C108   C109    1.405   .     A
C109   O133    1.387   .     S
C109   C767    1.409   .     S
C110   C111    1.424   .     A
C110   C112    1.410   .     A
C110   C766    1.409   1_554 S
C111   C114    1.413   .     A
C112   C113    1.390   .     A
C112   H121    1.082   .     S
C113   H116    1.084   .     S
C114   H115    1.076   .     S
C122   H196    1.088   .     S
C122   C197    1.335   .     S
H125   C197    1.086   .     S
C126   H346    1.088   .     S
C126   C347    1.332   .     S
H127   C564    1.088   1_545 S
C128   C564    1.332   1_545 S
C128   H567    1.086   1_545 S
H129   C347    1.086   .     S
N130   O131    1.301   .     A
N130   O132    1.301   .     A
O133   C134    1.420   .     S
C134   C137    1.533   .     S
C134   H135    1.111   .     S
C134   H136    1.117   .     S
C137   H138    1.111   .     S
C137   H139    1.111   .     S
C137   C213    1.525   .     S
C140   H143    1.111   .     S
C140   H142    1.111   .     S
C140   H141    1.111   .     S
N144   O145    1.302   .     A
N144   O146    1.301   .     A
Zn147  O151    1.958   .     S
Zn147  O159    1.922   .     S
Zn147  O160    1.928   .     S
Zn147  O153    1.924   .     S
Zn148  O154    1.937   .     S
Zn148  O162    1.927   .     S
Zn148  O156    1.926   .     S
Zn148  O151    1.941   .     S
Zn149  O155    1.931   .     S
Zn149  O163    1.937   .     S
Zn149  O158    1.930   .     S
Zn149  O151    1.932   .     S
Zn150  O161    1.931   .     S
Zn150  O157    1.936   .     S
Zn150  O151    1.931   .     S
Zn150  O152    1.932   .     S
O152   C164    1.269   .     A
O153   C165    1.277   .     A
O154   C166    1.276   .     A
O155   C167    1.270   .     A
O156   C168    1.274   .     A
O157   C169    1.281   .     A
O158   C168    1.274   .     A
O159   C169    1.286   .     A
O160   C166    1.276   .     A
O161   C167    1.270   .     A
O162   C164    1.269   .     A
O163   C165    1.281   .     A
C164   C197    1.438   .     S
C165   C195    1.455   .     S
C166   C201    1.436   .     S
C167   C199    1.451   .     S
C168   C171    1.454   .     S
C169   C170    1.471   .     S
C170   C173    1.399   .     A
C170   C174    1.395   .     A
C171   C186    1.392   .     A
C171   C187    1.392   .     A
C172   C176    1.409   .     A
C172   H190    1.081   .     S
C172   C173    1.392   .     A
C173   H191    1.083   .     S
C174   H192    1.080   .     S
C174   C175    1.408   .     A
C175   C176    1.420   .     A
C175   C177    1.424   .     A
C176   C837    1.407   .     S
C177   C181    1.422   .     A
C177   C835    1.418   .     S
C178   C184    1.425   .     A
C178   C179    1.415   .     A
C178   C834    1.418   1_554 S
C179   C180    1.396   .     A
C179   H193    1.075   .     S
C180   N203    1.437   .     S
C180   C833    1.407   1_554 S
C181   N217    1.445   .     S
C181   C182    1.405   .     A
C182   O206    1.387   .     S
C182   C840    1.409   .     S
C183   C184    1.424   .     A
C183   C185    1.410   .     A
C183   C839    1.409   1_554 S
C184   C187    1.413   .     A
C185   C186    1.390   .     A
C185   H194    1.082   .     S
C186   H189    1.084   .     S
C187   H188    1.076   .     S
C195   H50     1.088   1_655 S
C195   C51     1.335   1_655 S
H198   C51     1.086   1_655 S
C199   H419    1.088   .     S
C199   C420    1.332   .     S
H200   C637    1.088   1_545 S
C201   C637    1.332   1_545 S
C201   H640    1.086   1_545 S
H202   C420    1.086   .     S
N203   O204    1.301   .     A
N203   O205    1.301   .     A
O206   C207    1.420   .     S
C207   C210    1.533   .     S
C207   H208    1.111   .     S
C207   H209    1.117   .     S
C210   H211    1.111   .     S
C210   H212    1.111   .     S
C210   C67     1.525   1_655 S
C213   H216    1.111   .     S
C213   H215    1.111   .     S
C213   H214    1.111   .     S
N217   O218    1.302   .     A
N217   O219    1.301   .     A
Zn220  O224    1.958   .     S
Zn220  O232    1.922   .     S
Zn220  O233    1.928   .     S
Zn220  O226    1.924   .     S
Zn221  O227    1.937   .     S
Zn221  O235    1.927   .     S
Zn221  O229    1.926   .     S
Zn221  O224    1.941   .     S
Zn222  O228    1.931   .     S
Zn222  O236    1.937   .     S
Zn222  O231    1.930   .     S
Zn222  O224    1.932   .     S
Zn223  O234    1.931   .     S
Zn223  O230    1.936   .     S
Zn223  O224    1.931   .     S
Zn223  O225    1.932   .     S
O225   C237    1.269   .     A
O226   C238    1.277   .     A
O227   C239    1.276   .     A
O228   C240    1.270   .     A
O229   C241    1.274   .     A
O230   C242    1.281   .     A
O231   C241    1.274   .     A
O232   C242    1.286   .     A
O233   C239    1.276   .     A
O234   C240    1.270   .     A
O235   C237    1.269   .     A
O236   C238    1.281   .     A
C237   C270    1.438   .     S
C238   C268    1.455   .     S
C239   C274    1.436   .     S
C240   C272    1.451   .     S
C241   C244    1.454   .     S
C242   C243    1.471   .     S
C243   C246    1.399   .     A
C243   C247    1.395   .     A
C244   C259    1.392   .     A
C244   C260    1.392   .     A
C245   C249    1.409   .     A
C245   H263    1.081   .     S
C245   C246    1.392   .     A
C246   H264    1.083   .     S
C247   H265    1.080   .     S
C247   C248    1.408   .     A
C248   C249    1.420   .     A
C248   C250    1.424   .     A
C249   C910    1.407   .     S
C250   C254    1.422   .     A
C250   C908    1.418   .     S
C251   C257    1.425   .     A
C251   C252    1.415   .     A
C251   C907    1.418   1_554 S
C252   C253    1.396   .     A
C252   H266    1.075   .     S
C253   N276    1.437   .     S
C253   C906    1.407   1_554 S
C254   N290    1.445   .     S
C254   C255    1.405   .     A
C255   O279    1.387   .     S
C255   C913    1.409   .     S
C256   C257    1.424   .     A
C256   C258    1.410   .     A
C256   C912    1.409   1_554 S
C257   C260    1.413   .     A
C258   C259    1.390   .     A
C258   H267    1.082   .     S
C259   H262    1.084   .     S
C260   H261    1.076   .     S
C268   H342    1.088   .     S
C268   C343    1.335   .     S
H269   C414    1.088   1_455 S
C270   C414    1.335   1_455 S
C270   H417    1.086   1_455 S
H271   C343    1.086   .     S
C272   H492    1.088   .     S
C272   C493    1.332   .     S
H275   C493    1.086   .     S
N276   O277    1.301   .     A
N276   O278    1.301   .     A
O279   C280    1.420   .     S
C280   C283    1.533   .     S
C280   H281    1.111   .     S
C280   H282    1.117   .     S
C283   H284    1.111   .     S
C283   H285    1.111   .     S
C283   C359    1.525   .     S
C286   H289    1.111   .     S
C286   H288    1.111   .     S
C286   H287    1.111   .     S
C286   C429    1.525   1_455 S
N290   O291    1.302   .     A
N290   O292    1.301   .     A
Zn293  O297    1.958   .     S
Zn293  O305    1.922   .     S
Zn293  O306    1.928   .     S
Zn293  O299    1.924   .     S
Zn294  O300    1.937   .     S
Zn294  O308    1.927   .     S
Zn294  O302    1.926   .     S
Zn294  O297    1.941   .     S
Zn295  O301    1.931   .     S
Zn295  O309    1.937   .     S
Zn295  O304    1.930   .     S
Zn295  O297    1.932   .     S
Zn296  O307    1.931   .     S
Zn296  O303    1.936   .     S
Zn296  O297    1.931   .     S
Zn296  O298    1.932   .     S
O298   C310    1.269   .     A
O299   C311    1.277   .     A
O300   C312    1.276   .     A
O301   C313    1.270   .     A
O302   C314    1.274   .     A
O303   C315    1.281   .     A
O304   C314    1.274   .     A
O305   C315    1.286   .     A
O306   C312    1.276   .     A
O307   C313    1.270   .     A
O308   C310    1.269   .     A
O309   C311    1.281   .     A
C310   C343    1.438   .     S
C311   C341    1.455   .     S
C312   C347    1.436   .     S
C313   C345    1.451   .     S
C314   C317    1.454   .     S
C315   C316    1.471   .     S
C316   C319    1.399   .     A
C316   C320    1.395   .     A
C317   C332    1.392   .     A
C317   C333    1.392   .     A
C318   C322    1.409   .     A
C318   H336    1.081   .     S
C318   C319    1.392   .     A
C319   H337    1.083   .     S
C320   H338    1.080   .     S
C320   C321    1.408   .     A
C321   C322    1.420   .     A
C321   C323    1.424   .     A
C322   C983    1.407   .     S
C323   C327    1.422   .     A
C323   C981    1.418   .     S
C324   C330    1.425   .     A
C324   C325    1.415   .     A
C324   C980    1.418   1_554 S
C325   C326    1.396   .     A
C325   H339    1.075   .     S
C326   N349    1.437   .     S
C326   C979    1.407   1_554 S
C327   N363    1.445   .     S
C327   C328    1.405   .     A
C328   O352    1.387   .     S
C328   C986    1.409   .     S
C329   C330    1.424   .     A
C329   C331    1.410   .     A
C329   C985    1.409   1_554 S
C330   C333    1.413   .     A
C331   C332    1.390   .     A
C331   H340    1.082   .     S
C332   H335    1.084   .     S
C333   H334    1.076   .     S
C341   H415    1.088   .     S
C341   C416    1.335   .     S
H344   C416    1.086   .     S
C345   H565    1.088   .     S
C345   C566    1.332   .     S
H348   C566    1.086   .     S
N349   O350    1.301   .     A
N349   O351    1.301   .     A
O352   C353    1.420   .     S
C353   C356    1.533   .     S
C353   H354    1.111   .     S
C353   H355    1.117   .     S
C356   H357    1.111   .     S
C356   H358    1.111   .     S
C356   C432    1.525   .     S
C359   H362    1.111   .     S
C359   H361    1.111   .     S
C359   H360    1.111   .     S
N363   O364    1.302   .     A
N363   O365    1.301   .     A
Zn366  O370    1.958   .     S
Zn366  O378    1.922   .     S
Zn366  O379    1.928   .     S
Zn366  O372    1.924   .     S
Zn367  O373    1.937   .     S
Zn367  O381    1.927   .     S
Zn367  O375    1.926   .     S
Zn367  O370    1.941   .     S
Zn368  O374    1.931   .     S
Zn368  O382    1.937   .     S
Zn368  O377    1.930   .     S
Zn368  O370    1.932   .     S
Zn369  O380    1.931   .     S
Zn369  O376    1.936   .     S
Zn369  O370    1.931   .     S
Zn369  O371    1.932   .     S
O371   C383    1.269   .     A
O372   C384    1.277   .     A
O373   C385    1.276   .     A
O374   C386    1.270   .     A
O375   C387    1.274   .     A
O376   C388    1.281   .     A
O377   C387    1.274   .     A
O378   C388    1.286   .     A
O379   C385    1.276   .     A
O380   C386    1.270   .     A
O381   C383    1.269   .     A
O382   C384    1.281   .     A
C383   C416    1.438   .     S
C384   C414    1.455   .     S
C385   C420    1.436   .     S
C386   C418    1.451   .     S
C387   C390    1.454   .     S
C388   C389    1.471   .     S
C389   C392    1.399   .     A
C389   C393    1.395   .     A
C390   C405    1.392   .     A
C390   C406    1.392   .     A
C391   C395    1.409   .     A
C391   H409    1.081   .     S
C391   C392    1.392   .     A
C392   H410    1.083   .     S
C393   H411    1.080   .     S
C393   C394    1.408   .     A
C394   C395    1.420   .     A
C394   C396    1.424   .     A
C395   C1056   1.407   .     S
C396   C400    1.422   .     A
C396   C1054   1.418   .     S
C397   C403    1.425   .     A
C397   C398    1.415   .     A
C397   C1053   1.418   1_554 S
C398   C399    1.396   .     A
C398   H412    1.075   .     S
C399   N422    1.437   .     S
C399   C1052   1.407   1_554 S
C400   N436    1.445   .     S
C400   C401    1.405   .     A
C401   O425    1.387   .     S
C401   C1059   1.409   .     S
C402   C403    1.424   .     A
C402   C404    1.410   .     A
C402   C1058   1.409   1_554 S
C403   C406    1.413   .     A
C404   C405    1.390   .     A
C404   H413    1.082   .     S
C405   H408    1.084   .     S
C406   H407    1.076   .     S
C414   H269    1.088   1_655 S
C414   C270    1.335   1_655 S
H417   C270    1.086   1_655 S
C418   H638    1.088   .     S
C418   C639    1.332   .     S
H421   C639    1.086   .     S
N422   O423    1.301   .     A
N422   O424    1.301   .     A
O425   C426    1.420   .     S
C426   C429    1.533   .     S
C426   H427    1.111   .     S
C426   H428    1.117   .     S
C429   H430    1.111   .     S
C429   H431    1.111   .     S
C429   C286    1.525   1_655 S
C432   H435    1.111   .     S
C432   H434    1.111   .     S
C432   H433    1.111   .     S
N436   O437    1.302   .     A
N436   O438    1.301   .     A
Zn439  O443    1.958   .     S
Zn439  O451    1.922   .     S
Zn439  O452    1.928   .     S
Zn439  O445    1.924   .     S
Zn440  O446    1.937   .     S
Zn440  O454    1.927   .     S
Zn440  O448    1.926   .     S
Zn440  O443    1.941   .     S
Zn441  O447    1.931   .     S
Zn441  O455    1.937   .     S
Zn441  O450    1.930   .     S
Zn441  O443    1.932   .     S
Zn442  O453    1.931   .     S
Zn442  O449    1.936   .     S
Zn442  O443    1.931   .     S
Zn442  O444    1.932   .     S
O444   C456    1.269   .     A
O445   C457    1.277   .     A
O446   C458    1.276   .     A
O447   C459    1.270   .     A
O448   C460    1.274   .     A
O449   C461    1.281   .     A
O450   C460    1.274   .     A
O451   C461    1.286   .     A
O452   C458    1.276   .     A
O453   C459    1.270   .     A
O454   C456    1.269   .     A
O455   C457    1.281   .     A
C456   C489    1.438   .     S
C457   C487    1.455   .     S
C458   C493    1.436   .     S
C459   C491    1.451   .     S
C460   C463    1.454   .     S
C461   C462    1.471   .     S
C462   C465    1.399   .     A
C462   C466    1.395   .     A
C463   C478    1.392   .     A
C463   C479    1.392   .     A
C464   C468    1.409   .     A
C464   H482    1.081   .     S
C464   C465    1.392   .     A
C465   H483    1.083   .     S
C466   H484    1.080   .     S
C466   C467    1.408   .     A
C467   C468    1.420   .     A
C467   C469    1.424   .     A
C468   C1129   1.407   .     S
C469   C473    1.422   .     A
C469   C1127   1.418   .     S
C470   C476    1.425   .     A
C470   C471    1.415   .     A
C470   C1126   1.418   1_554 S
C471   C472    1.396   .     A
C471   H485    1.075   .     S
C472   N495    1.437   .     S
C472   C1125   1.407   1_554 S
C473   N509    1.445   .     S
C473   C474    1.405   .     A
C474   O498    1.387   .     S
C474   C1132   1.409   .     S
C475   C476    1.424   .     A
C475   C477    1.410   .     A
C475   C1131   1.409   1_554 S
C476   C479    1.413   .     A
C477   C478    1.390   .     A
C477   H486    1.082   .     S
C478   H481    1.084   .     S
C479   H480    1.076   .     S
C487   H561    1.088   .     S
C487   C562    1.335   .     S
H488   C633    1.088   1_455 S
C489   C633    1.335   1_455 S
C489   H636    1.086   1_455 S
H490   C562    1.086   .     S
C491   H54     1.088   1_565 S
C491   C55     1.332   1_565 S
H494   C55     1.086   1_565 S
N495   O496    1.301   .     A
N495   O497    1.301   .     A
O498   C499    1.420   .     S
C499   C502    1.533   .     S
C499   H500    1.111   .     S
C499   H501    1.117   .     S
C502   H503    1.111   .     S
C502   H504    1.111   .     S
C502   C578    1.525   .     S
C505   H508    1.111   .     S
C505   H507    1.111   .     S
C505   H506    1.111   .     S
C505   C648    1.525   1_455 S
N509   O510    1.302   .     A
N509   O511    1.301   .     A
Zn512  O516    1.958   .     S
Zn512  O524    1.922   .     S
Zn512  O525    1.928   .     S
Zn512  O518    1.924   .     S
Zn513  O519    1.937   .     S
Zn513  O527    1.927   .     S
Zn513  O521    1.926   .     S
Zn513  O516    1.941   .     S
Zn514  O520    1.931   .     S
Zn514  O528    1.937   .     S
Zn514  O523    1.930   .     S
Zn514  O516    1.932   .     S
Zn515  O526    1.931   .     S
Zn515  O522    1.936   .     S
Zn515  O516    1.931   .     S
Zn515  O517    1.932   .     S
O517   C529    1.269   .     A
O518   C530    1.277   .     A
O519   C531    1.276   .     A
O520   C532    1.270   .     A
O521   C533    1.274   .     A
O522   C534    1.281   .     A
O523   C533    1.274   .     A
O524   C534    1.286   .     A
O525   C531    1.276   .     A
O526   C532    1.270   .     A
O527   C529    1.269   .     A
O528   C530    1.281   .     A
C529   C562    1.438   .     S
C530   C560    1.455   .     S
C531   C566    1.436   .     S
C532   C564    1.451   .     S
C533   C536    1.454   .     S
C534   C535    1.471   .     S
C535   C538    1.399   .     A
C535   C539    1.395   .     A
C536   C551    1.392   .     A
C536   C552    1.392   .     A
C537   C541    1.409   .     A
C537   H555    1.081   .     S
C537   C538    1.392   .     A
C538   H556    1.083   .     S
C539   H557    1.080   .     S
C539   C540    1.408   .     A
C540   C541    1.420   .     A
C540   C542    1.424   .     A
C541   C1202   1.407   .     S
C542   C546    1.422   .     A
C542   C1200   1.418   .     S
C543   C549    1.425   .     A
C543   C544    1.415   .     A
C543   C1199   1.418   1_554 S
C544   C545    1.396   .     A
C544   H558    1.075   .     S
C545   N568    1.437   .     S
C545   C1198   1.407   1_554 S
C546   N582    1.445   .     S
C546   C547    1.405   .     A
C547   O571    1.387   .     S
C547   C1205   1.409   .     S
C548   C549    1.424   .     A
C548   C550    1.410   .     A
C548   C1204   1.409   1_554 S
C549   C552    1.413   .     A
C550   C551    1.390   .     A
C550   H559    1.082   .     S
C551   H554    1.084   .     S
C552   H553    1.076   .     S
C560   H634    1.088   .     S
C560   C635    1.335   .     S
H563   C635    1.086   .     S
C564   H127    1.088   1_565 S
C564   C128    1.332   1_565 S
H567   C128    1.086   1_565 S
N568   O569    1.301   .     A
N568   O570    1.301   .     A
O571   C572    1.420   .     S
C572   C575    1.533   .     S
C572   H573    1.111   .     S
C572   H574    1.117   .     S
C575   H576    1.111   .     S
C575   H577    1.111   .     S
C575   C651    1.525   .     S
C578   H581    1.111   .     S
C578   H580    1.111   .     S
C578   H579    1.111   .     S
N582   O583    1.302   .     A
N582   O584    1.301   .     A
Zn585  O589    1.958   .     S
Zn585  O597    1.922   .     S
Zn585  O598    1.928   .     S
Zn585  O591    1.924   .     S
Zn586  O592    1.937   .     S
Zn586  O600    1.927   .     S
Zn586  O594    1.926   .     S
Zn586  O589    1.941   .     S
Zn587  O593    1.931   .     S
Zn587  O601    1.937   .     S
Zn587  O596    1.930   .     S
Zn587  O589    1.932   .     S
Zn588  O599    1.931   .     S
Zn588  O595    1.936   .     S
Zn588  O589    1.931   .     S
Zn588  O590    1.932   .     S
O590   C602    1.269   .     A
O591   C603    1.277   .     A
O592   C604    1.276   .     A
O593   C605    1.270   .     A
O594   C606    1.274   .     A
O595   C607    1.281   .     A
O596   C606    1.274   .     A
O597   C607    1.286   .     A
O598   C604    1.276   .     A
O599   C605    1.270   .     A
O600   C602    1.269   .     A
O601   C603    1.281   .     A
C602   C635    1.438   .     S
C603   C633    1.455   .     S
C604   C639    1.436   .     S
C605   C637    1.451   .     S
C606   C609    1.454   .     S
C607   C608    1.471   .     S
C608   C611    1.399   .     A
C608   C612    1.395   .     A
C609   C624    1.392   .     A
C609   C625    1.392   .     A
C610   C614    1.409   .     A
C610   H628    1.081   .     S
C610   C611    1.392   .     A
C611   H629    1.083   .     S
C612   H630    1.080   .     S
C612   C613    1.408   .     A
C613   C614    1.420   .     A
C613   C615    1.424   .     A
C614   C1275   1.407   .     S
C615   C619    1.422   .     A
C615   C1273   1.418   .     S
C616   C622    1.425   .     A
C616   C617    1.415   .     A
C616   C1272   1.418   1_554 S
C617   C618    1.396   .     A
C617   H631    1.075   .     S
C618   N641    1.437   .     S
C618   C1271   1.407   1_554 S
C619   N655    1.445   .     S
C619   C620    1.405   .     A
C620   O644    1.387   .     S
C620   C1278   1.409   .     S
C621   C622    1.424   .     A
C621   C623    1.410   .     A
C621   C1277   1.409   1_554 S
C622   C625    1.413   .     A
C623   C624    1.390   .     A
C623   H632    1.082   .     S
C624   H627    1.084   .     S
C625   H626    1.076   .     S
C633   H488    1.088   1_655 S
C633   C489    1.335   1_655 S
H636   C489    1.086   1_655 S
C637   H200    1.088   1_565 S
C637   C201    1.332   1_565 S
H640   C201    1.086   1_565 S
N641   O642    1.301   .     A
N641   O643    1.301   .     A
O644   C645    1.420   .     S
C645   C648    1.533   .     S
C645   H646    1.111   .     S
C645   H647    1.117   .     S
C648   H649    1.111   .     S
C648   H650    1.111   .     S
C648   C505    1.525   1_655 S
C651   H654    1.111   .     S
C651   H653    1.111   .     S
C651   H652    1.111   .     S
N655   O656    1.302   .     A
N655   O657    1.301   .     A
Zn658  O662    1.958   .     S
Zn658  O670    1.922   .     S
Zn658  O671    1.928   .     S
Zn658  O664    1.924   .     S
Zn659  O665    1.937   .     S
Zn659  O673    1.927   .     S
Zn659  O667    1.926   .     S
Zn659  O662    1.941   .     S
Zn660  O666    1.931   .     S
Zn660  O674    1.937   .     S
Zn660  O669    1.930   .     S
Zn660  O662    1.932   .     S
Zn661  O672    1.931   .     S
Zn661  O668    1.936   .     S
Zn661  O662    1.931   .     S
Zn661  O663    1.932   .     S
O663   C675    1.269   .     A
O664   C676    1.277   .     A
O665   C677    1.276   .     A
O666   C678    1.270   .     A
O667   C679    1.274   .     A
O668   C680    1.281   .     A
O669   C679    1.274   .     A
O670   C680    1.286   .     A
O671   C677    1.276   .     A
O672   C678    1.270   .     A
O673   C675    1.269   .     A
O674   C676    1.281   .     A
C675   C708    1.438   .     S
C676   C706    1.455   .     S
C677   C712    1.436   .     S
C678   C710    1.451   .     S
C679   C682    1.454   .     S
C680   C681    1.471   .     S
C681   C684    1.399   .     A
C681   C685    1.395   .     A
C682   C697    1.392   .     A
C682   C698    1.392   .     A
C683   C687    1.409   .     A
C683   H701    1.081   .     S
C683   C684    1.392   .     A
C684   H702    1.083   .     S
C685   H703    1.080   .     S
C685   C686    1.408   .     A
C686   C687    1.420   .     A
C686   C688    1.424   .     A
C687   C34     1.407   1_556 S
C688   C692    1.422   .     A
C688   C32     1.418   1_556 S
C689   C695    1.425   .     A
C689   C690    1.415   .     A
C690   C691    1.396   .     A
C690   H704    1.075   .     S
C691   N714    1.437   .     S
C692   N728    1.445   .     S
C692   C693    1.405   .     A
C693   O717    1.387   .     S
C693   C37     1.409   1_556 S
C694   C695    1.424   .     A
C694   C696    1.410   .     A
C695   C698    1.413   .     A
C696   C697    1.390   .     A
C696   H705    1.082   .     S
C697   H700    1.084   .     S
C698   H699    1.076   .     S
C706   H780    1.088   .     S
C706   C781    1.335   .     S
H707   C852    1.088   1_455 S
C708   C852    1.335   1_455 S
C708   H855    1.086   1_455 S
H709   C781    1.086   .     S
C710   H930    1.088   .     S
C710   C931    1.332   .     S
H711   C1148   1.088   1_545 S
C712   C1148   1.332   1_545 S
C712   H1151   1.086   1_545 S
H713   C931    1.086   .     S
N714   O715    1.301   .     A
N714   O716    1.301   .     A
O717   C718    1.420   .     S
C718   C721    1.533   .     S
C718   H719    1.111   .     S
C718   H720    1.117   .     S
C721   H722    1.111   .     S
C721   H723    1.111   .     S
C721   C797    1.525   .     S
C724   H727    1.111   .     S
C724   H726    1.111   .     S
C724   H725    1.111   .     S
C724   C867    1.525   1_455 S
N728   O729    1.302   .     A
N728   O730    1.301   .     A
Zn731  O735    1.958   .     S
Zn731  O743    1.922   .     S
Zn731  O744    1.928   .     S
Zn731  O737    1.924   .     S
Zn732  O738    1.937   .     S
Zn732  O746    1.927   .     S
Zn732  O740    1.926   .     S
Zn732  O735    1.941   .     S
Zn733  O739    1.931   .     S
Zn733  O747    1.937   .     S
Zn733  O742    1.930   .     S
Zn733  O735    1.932   .     S
Zn734  O745    1.931   .     S
Zn734  O741    1.936   .     S
Zn734  O735    1.931   .     S
Zn734  O736    1.932   .     S
O736   C748    1.269   .     A
O737   C749    1.277   .     A
O738   C750    1.276   .     A
O739   C751    1.270   .     A
O740   C752    1.274   .     A
O741   C753    1.281   .     A
O742   C752    1.274   .     A
O743   C753    1.286   .     A
O744   C750    1.276   .     A
O745   C751    1.270   .     A
O746   C748    1.269   .     A
O747   C749    1.281   .     A
C748   C781    1.438   .     S
C749   C779    1.455   .     S
C750   C785    1.436   .     S
C751   C783    1.451   .     S
C752   C755    1.454   .     S
C753   C754    1.471   .     S
C754   C757    1.399   .     A
C754   C758    1.395   .     A
C755   C770    1.392   .     A
C755   C771    1.392   .     A
C756   C760    1.409   .     A
C756   H774    1.081   .     S
C756   C757    1.392   .     A
C757   H775    1.083   .     S
C758   H776    1.080   .     S
C758   C759    1.408   .     A
C759   C760    1.420   .     A
C759   C761    1.424   .     A
C760   C107    1.407   1_556 S
C761   C765    1.422   .     A
C761   C105    1.418   1_556 S
C762   C768    1.425   .     A
C762   C763    1.415   .     A
C763   C764    1.396   .     A
C763   H777    1.075   .     S
C764   N787    1.437   .     S
C765   N801    1.445   .     S
C765   C766    1.405   .     A
C766   O790    1.387   .     S
C766   C110    1.409   1_556 S
C767   C768    1.424   .     A
C767   C769    1.410   .     A
C768   C771    1.413   .     A
C769   C770    1.390   .     A
C769   H778    1.082   .     S
C770   H773    1.084   .     S
C771   H772    1.076   .     S
C779   H853    1.088   .     S
C779   C854    1.335   .     S
H782   C854    1.086   .     S
C783   H1003   1.088   .     S
C783   C1004   1.332   .     S
H784   C1221   1.088   1_545 S
C785   C1221   1.332   1_545 S
C785   H1224   1.086   1_545 S
H786   C1004   1.086   .     S
N787   O788    1.301   .     A
N787   O789    1.301   .     A
O790   C791    1.420   .     S
C791   C794    1.533   .     S
C791   H792    1.111   .     S
C791   H793    1.117   .     S
C794   H795    1.111   .     S
C794   H796    1.111   .     S
C794   C870    1.525   .     S
C797   H800    1.111   .     S
C797   H799    1.111   .     S
C797   H798    1.111   .     S
N801   O802    1.302   .     A
N801   O803    1.301   .     A
Zn804  O808    1.958   .     S
Zn804  O816    1.922   .     S
Zn804  O817    1.928   .     S
Zn804  O810    1.924   .     S
Zn805  O811    1.937   .     S
Zn805  O819    1.927   .     S
Zn805  O813    1.926   .     S
Zn805  O808    1.941   .     S
Zn806  O812    1.931   .     S
Zn806  O820    1.937   .     S
Zn806  O815    1.930   .     S
Zn806  O808    1.932   .     S
Zn807  O818    1.931   .     S
Zn807  O814    1.936   .     S
Zn807  O808    1.931   .     S
Zn807  O809    1.932   .     S
O809   C821    1.269   .     A
O810   C822    1.277   .     A
O811   C823    1.276   .     A
O812   C824    1.270   .     A
O813   C825    1.274   .     A
O814   C826    1.281   .     A
O815   C825    1.274   .     A
O816   C826    1.286   .     A
O817   C823    1.276   .     A
O818   C824    1.270   .     A
O819   C821    1.269   .     A
O820   C822    1.281   .     A
C821   C854    1.438   .     S
C822   C852    1.455   .     S
C823   C858    1.436   .     S
C824   C856    1.451   .     S
C825   C828    1.454   .     S
C826   C827    1.471   .     S
C827   C830    1.399   .     A
C827   C831    1.395   .     A
C828   C843    1.392   .     A
C828   C844    1.392   .     A
C829   C833    1.409   .     A
C829   H847    1.081   .     S
C829   C830    1.392   .     A
C830   H848    1.083   .     S
C831   H849    1.080   .     S
C831   C832    1.408   .     A
C832   C833    1.420   .     A
C832   C834    1.424   .     A
C833   C180    1.407   1_556 S
C834   C838    1.422   .     A
C834   C178    1.418   1_556 S
C835   C841    1.425   .     A
C835   C836    1.415   .     A
C836   C837    1.396   .     A
C836   H850    1.075   .     S
C837   N860    1.437   .     S
C838   N874    1.445   .     S
C838   C839    1.405   .     A
C839   O863    1.387   .     S
C839   C183    1.409   1_556 S
C840   C841    1.424   .     A
C840   C842    1.410   .     A
C841   C844    1.413   .     A
C842   C843    1.390   .     A
C842   H851    1.082   .     S
C843   H846    1.084   .     S
C844   H845    1.076   .     S
C852   H707    1.088   1_655 S
C852   C708    1.335   1_655 S
H855   C708    1.086   1_655 S
C856   H1076   1.088   .     S
C856   C1077   1.332   .     S
H857   C1294   1.088   1_545 S
C858   C1294   1.332   1_545 S
C858   H1297   1.086   1_545 S
H859   C1077   1.086   .     S
N860   O861    1.301   .     A
N860   O862    1.301   .     A
O863   C864    1.420   .     S
C864   C867    1.533   .     S
C864   H865    1.111   .     S
C864   H866    1.117   .     S
C867   H868    1.111   .     S
C867   H869    1.111   .     S
C867   C724    1.525   1_655 S
C870   H873    1.111   .     S
C870   H872    1.111   .     S
C870   H871    1.111   .     S
N874   O875    1.302   .     A
N874   O876    1.301   .     A
Zn877  O881    1.958   .     S
Zn877  O889    1.922   .     S
Zn877  O890    1.928   .     S
Zn877  O883    1.924   .     S
Zn878  O884    1.937   .     S
Zn878  O892    1.927   .     S
Zn878  O886    1.926   .     S
Zn878  O881    1.941   .     S
Zn879  O885    1.931   .     S
Zn879  O893    1.937   .     S
Zn879  O888    1.930   .     S
Zn879  O881    1.932   .     S
Zn880  O891    1.931   .     S
Zn880  O887    1.936   .     S
Zn880  O881    1.931   .     S
Zn880  O882    1.932   .     S
O882   C894    1.269   .     A
O883   C895    1.277   .     A
O884   C896    1.276   .     A
O885   C897    1.270   .     A
O886   C898    1.274   .     A
O887   C899    1.281   .     A
O888   C898    1.274   .     A
O889   C899    1.286   .     A
O890   C896    1.276   .     A
O891   C897    1.270   .     A
O892   C894    1.269   .     A
O893   C895    1.281   .     A
C894   C927    1.438   .     S
C895   C925    1.455   .     S
C896   C931    1.436   .     S
C897   C929    1.451   .     S
C898   C901    1.454   .     S
C899   C900    1.471   .     S
C900   C903    1.399   .     A
C900   C904    1.395   .     A
C901   C916    1.392   .     A
C901   C917    1.392   .     A
C902   C906    1.409   .     A
C902   H920    1.081   .     S
C902   C903    1.392   .     A
C903   H921    1.083   .     S
C904   H922    1.080   .     S
C904   C905    1.408   .     A
C905   C906    1.420   .     A
C905   C907    1.424   .     A
C906   C253    1.407   1_556 S
C907   C911    1.422   .     A
C907   C251    1.418   1_556 S
C908   C914    1.425   .     A
C908   C909    1.415   .     A
C909   C910    1.396   .     A
C909   H923    1.075   .     S
C910   N933    1.437   .     S
C911   N947    1.445   .     S
C911   C912    1.405   .     A
C912   O936    1.387   .     S
C912   C256    1.409   1_556 S
C913   C914    1.424   .     A
C913   C915    1.410   .     A
C914   C917    1.413   .     A
C915   C916    1.390   .     A
C915   H924    1.082   .     S
C916   H919    1.084   .     S
C917   H918    1.076   .     S
C925   H999    1.088   .     S
C925   C1000   1.335   .     S
H926   C1071   1.088   1_455 S
C927   C1071   1.335   1_455 S
C927   H1074   1.086   1_455 S
H928   C1000   1.086   .     S
C929   H1149   1.088   .     S
C929   C1150   1.332   .     S
H932   C1150   1.086   .     S
N933   O934    1.301   .     A
N933   O935    1.301   .     A
O936   C937    1.420   .     S
C937   C940    1.533   .     S
C937   H938    1.111   .     S
C937   H939    1.117   .     S
C940   H941    1.111   .     S
C940   H942    1.111   .     S
C940   C1016   1.525   .     S
C943   H946    1.111   .     S
C943   H945    1.111   .     S
C943   H944    1.111   .     S
C943   C1086   1.525   1_455 S
N947   O948    1.302   .     A
N947   O949    1.301   .     A
Zn950  O954    1.958   .     S
Zn950  O962    1.922   .     S
Zn950  O963    1.928   .     S
Zn950  O956    1.924   .     S
Zn951  O957    1.937   .     S
Zn951  O965    1.927   .     S
Zn951  O959    1.926   .     S
Zn951  O954    1.941   .     S
Zn952  O958    1.931   .     S
Zn952  O966    1.937   .     S
Zn952  O961    1.930   .     S
Zn952  O954    1.932   .     S
Zn953  O964    1.931   .     S
Zn953  O960    1.936   .     S
Zn953  O954    1.931   .     S
Zn953  O955    1.932   .     S
O955   C967    1.269   .     A
O956   C968    1.277   .     A
O957   C969    1.276   .     A
O958   C970    1.270   .     A
O959   C971    1.274   .     A
O960   C972    1.281   .     A
O961   C971    1.274   .     A
O962   C972    1.286   .     A
O963   C969    1.276   .     A
O964   C970    1.270   .     A
O965   C967    1.269   .     A
O966   C968    1.281   .     A
C967   C1000   1.438   .     S
C968   C998    1.455   .     S
C969   C1004   1.436   .     S
C970   C1002   1.451   .     S
C971   C974    1.454   .     S
C972   C973    1.471   .     S
C973   C976    1.399   .     A
C973   C977    1.395   .     A
C974   C989    1.392   .     A
C974   C990    1.392   .     A
C975   C979    1.409   .     A
C975   H993    1.081   .     S
C975   C976    1.392   .     A
C976   H994    1.083   .     S
C977   H995    1.080   .     S
C977   C978    1.408   .     A
C978   C979    1.420   .     A
C978   C980    1.424   .     A
C979   C326    1.407   1_556 S
C980   C984    1.422   .     A
C980   C324    1.418   1_556 S
C981   C987    1.425   .     A
C981   C982    1.415   .     A
C982   C983    1.396   .     A
C982   H996    1.075   .     S
C983   N1006   1.437   .     S
C984   N1020   1.445   .     S
C984   C985    1.405   .     A
C985   O1009   1.387   .     S
C985   C329    1.409   1_556 S
C986   C987    1.424   .     A
C986   C988    1.410   .     A
C987   C990    1.413   .     A
C988   C989    1.390   .     A
C988   H997    1.082   .     S
C989   H992    1.084   .     S
C990   H991    1.076   .     S
C998   H1072   1.088   .     S
C998   C1073   1.335   .     S
H1001  C1073   1.086   .     S
C1002  H1222   1.088   .     S
C1002  C1223   1.332   .     S
H1005  C1223   1.086   .     S
N1006  O1007   1.301   .     A
N1006  O1008   1.301   .     A
O1009  C1010   1.420   .     S
C1010  C1013   1.533   .     S
C1010  H1011   1.111   .     S
C1010  H1012   1.117   .     S
C1013  H1014   1.111   .     S
C1013  H1015   1.111   .     S
C1013  C1089   1.525   .     S
C1016  H1019   1.111   .     S
C1016  H1018   1.111   .     S
C1016  H1017   1.111   .     S
N1020  O1021   1.302   .     A
N1020  O1022   1.301   .     A
Zn1023 O1027   1.958   .     S
Zn1023 O1035   1.922   .     S
Zn1023 O1036   1.928   .     S
Zn1023 O1029   1.924   .     S
Zn1024 O1030   1.937   .     S
Zn1024 O1038   1.927   .     S
Zn1024 O1032   1.926   .     S
Zn1024 O1027   1.941   .     S
Zn1025 O1031   1.931   .     S
Zn1025 O1039   1.937   .     S
Zn1025 O1034   1.930   .     S
Zn1025 O1027   1.932   .     S
Zn1026 O1037   1.931   .     S
Zn1026 O1033   1.936   .     S
Zn1026 O1027   1.931   .     S
Zn1026 O1028   1.932   .     S
O1028  C1040   1.269   .     A
O1029  C1041   1.277   .     A
O1030  C1042   1.276   .     A
O1031  C1043   1.270   .     A
O1032  C1044   1.274   .     A
O1033  C1045   1.281   .     A
O1034  C1044   1.274   .     A
O1035  C1045   1.286   .     A
O1036  C1042   1.276   .     A
O1037  C1043   1.270   .     A
O1038  C1040   1.269   .     A
O1039  C1041   1.281   .     A
C1040  C1073   1.438   .     S
C1041  C1071   1.455   .     S
C1042  C1077   1.436   .     S
C1043  C1075   1.451   .     S
C1044  C1047   1.454   .     S
C1045  C1046   1.471   .     S
C1046  C1049   1.399   .     A
C1046  C1050   1.395   .     A
C1047  C1062   1.392   .     A
C1047  C1063   1.392   .     A
C1048  C1052   1.409   .     A
C1048  H1066   1.081   .     S
C1048  C1049   1.392   .     A
C1049  H1067   1.083   .     S
C1050  H1068   1.080   .     S
C1050  C1051   1.408   .     A
C1051  C1052   1.420   .     A
C1051  C1053   1.424   .     A
C1052  C399    1.407   1_556 S
C1053  C1057   1.422   .     A
C1053  C397    1.418   1_556 S
C1054  C1060   1.425   .     A
C1054  C1055   1.415   .     A
C1055  C1056   1.396   .     A
C1055  H1069   1.075   .     S
C1056  N1079   1.437   .     S
C1057  N1093   1.445   .     S
C1057  C1058   1.405   .     A
C1058  O1082   1.387   .     S
C1058  C402    1.409   1_556 S
C1059  C1060   1.424   .     A
C1059  C1061   1.410   .     A
C1060  C1063   1.413   .     A
C1061  C1062   1.390   .     A
C1061  H1070   1.082   .     S
C1062  H1065   1.084   .     S
C1063  H1064   1.076   .     S
C1071  H926    1.088   1_655 S
C1071  C927    1.335   1_655 S
H1074  C927    1.086   1_655 S
C1075  H1295   1.088   .     S
C1075  C1296   1.332   .     S
H1078  C1296   1.086   .     S
N1079  O1080   1.301   .     A
N1079  O1081   1.301   .     A
O1082  C1083   1.420   .     S
C1083  C1086   1.533   .     S
C1083  H1084   1.111   .     S
C1083  H1085   1.117   .     S
C1086  H1087   1.111   .     S
C1086  H1088   1.111   .     S
C1086  C943    1.525   1_655 S
C1089  H1092   1.111   .     S
C1089  H1091   1.111   .     S
C1089  H1090   1.111   .     S
N1093  O1094   1.302   .     A
N1093  O1095   1.301   .     A
Zn1096 O1100   1.958   .     S
Zn1096 O1108   1.922   .     S
Zn1096 O1109   1.928   .     S
Zn1096 O1102   1.924   .     S
Zn1097 O1103   1.937   .     S
Zn1097 O1111   1.927   .     S
Zn1097 O1105   1.926   .     S
Zn1097 O1100   1.941   .     S
Zn1098 O1104   1.931   .     S
Zn1098 O1112   1.937   .     S
Zn1098 O1107   1.930   .     S
Zn1098 O1100   1.932   .     S
Zn1099 O1110   1.931   .     S
Zn1099 O1106   1.936   .     S
Zn1099 O1100   1.931   .     S
Zn1099 O1101   1.932   .     S
O1101  C1113   1.269   .     A
O1102  C1114   1.277   .     A
O1103  C1115   1.276   .     A
O1104  C1116   1.270   .     A
O1105  C1117   1.274   .     A
O1106  C1118   1.281   .     A
O1107  C1117   1.274   .     A
O1108  C1118   1.286   .     A
O1109  C1115   1.276   .     A
O1110  C1116   1.270   .     A
O1111  C1113   1.269   .     A
O1112  C1114   1.281   .     A
C1113  C1146   1.438   .     S
C1114  C1144   1.455   .     S
C1115  C1150   1.436   .     S
C1116  C1148   1.451   .     S
C1117  C1120   1.454   .     S
C1118  C1119   1.471   .     S
C1119  C1122   1.399   .     A
C1119  C1123   1.395   .     A
C1120  C1135   1.392   .     A
C1120  C1136   1.392   .     A
C1121  C1125   1.409   .     A
C1121  H1139   1.081   .     S
C1121  C1122   1.392   .     A
C1122  H1140   1.083   .     S
C1123  H1141   1.080   .     S
C1123  C1124   1.408   .     A
C1124  C1125   1.420   .     A
C1124  C1126   1.424   .     A
C1125  C472    1.407   1_556 S
C1126  C1130   1.422   .     A
C1126  C470    1.418   1_556 S
C1127  C1133   1.425   .     A
C1127  C1128   1.415   .     A
C1128  C1129   1.396   .     A
C1128  H1142   1.075   .     S
C1129  N1152   1.437   .     S
C1130  N1166   1.445   .     S
C1130  C1131   1.405   .     A
C1131  O1155   1.387   .     S
C1131  C475    1.409   1_556 S
C1132  C1133   1.424   .     A
C1132  C1134   1.410   .     A
C1133  C1136   1.413   .     A
C1134  C1135   1.390   .     A
C1134  H1143   1.082   .     S
C1135  H1138   1.084   .     S
C1136  H1137   1.076   .     S
C1144  H1218   1.088   .     S
C1144  C1219   1.335   .     S
H1145  C1290   1.088   1_455 S
C1146  C1290   1.335   1_455 S
C1146  H1293   1.086   1_455 S
H1147  C1219   1.086   .     S
C1148  H711    1.088   1_565 S
C1148  C712    1.332   1_565 S
H1151  C712    1.086   1_565 S
N1152  O1153   1.301   .     A
N1152  O1154   1.301   .     A
O1155  C1156   1.420   .     S
C1156  C1159   1.533   .     S
C1156  H1157   1.111   .     S
C1156  H1158   1.117   .     S
C1159  H1160   1.111   .     S
C1159  H1161   1.111   .     S
C1159  C1235   1.525   .     S
C1162  H1165   1.111   .     S
C1162  H1164   1.111   .     S
C1162  H1163   1.111   .     S
C1162  C1305   1.525   1_455 S
N1166  O1167   1.302   .     A
N1166  O1168   1.301   .     A
Zn1169 O1173   1.958   .     S
Zn1169 O1181   1.922   .     S
Zn1169 O1182   1.928   .     S
Zn1169 O1175   1.924   .     S
Zn1170 O1176   1.937   .     S
Zn1170 O1184   1.927   .     S
Zn1170 O1178   1.926   .     S
Zn1170 O1173   1.941   .     S
Zn1171 O1177   1.931   .     S
Zn1171 O1185   1.937   .     S
Zn1171 O1180   1.930   .     S
Zn1171 O1173   1.932   .     S
Zn1172 O1183   1.931   .     S
Zn1172 O1179   1.936   .     S
Zn1172 O1173   1.931   .     S
Zn1172 O1174   1.932   .     S
O1174  C1186   1.269   .     A
O1175  C1187   1.277   .     A
O1176  C1188   1.276   .     A
O1177  C1189   1.270   .     A
O1178  C1190   1.274   .     A
O1179  C1191   1.281   .     A
O1180  C1190   1.274   .     A
O1181  C1191   1.286   .     A
O1182  C1188   1.276   .     A
O1183  C1189   1.270   .     A
O1184  C1186   1.269   .     A
O1185  C1187   1.281   .     A
C1186  C1219   1.438   .     S
C1187  C1217   1.455   .     S
C1188  C1223   1.436   .     S
C1189  C1221   1.451   .     S
C1190  C1193   1.454   .     S
C1191  C1192   1.471   .     S
C1192  C1195   1.399   .     A
C1192  C1196   1.395   .     A
C1193  C1208   1.392   .     A
C1193  C1209   1.392   .     A
C1194  C1198   1.409   .     A
C1194  H1212   1.081   .     S
C1194  C1195   1.392   .     A
C1195  H1213   1.083   .     S
C1196  H1214   1.080   .     S
C1196  C1197   1.408   .     A
C1197  C1198   1.420   .     A
C1197  C1199   1.424   .     A
C1198  C545    1.407   1_556 S
C1199  C1203   1.422   .     A
C1199  C543    1.418   1_556 S
C1200  C1206   1.425   .     A
C1200  C1201   1.415   .     A
C1201  C1202   1.396   .     A
C1201  H1215   1.075   .     S
C1202  N1225   1.437   .     S
C1203  N1239   1.445   .     S
C1203  C1204   1.405   .     A
C1204  O1228   1.387   .     S
C1204  C548    1.409   1_556 S
C1205  C1206   1.424   .     A
C1205  C1207   1.410   .     A
C1206  C1209   1.413   .     A
C1207  C1208   1.390   .     A
C1207  H1216   1.082   .     S
C1208  H1211   1.084   .     S
C1209  H1210   1.076   .     S
C1217  H1291   1.088   .     S
C1217  C1292   1.335   .     S
H1220  C1292   1.086   .     S
C1221  H784    1.088   1_565 S
C1221  C785    1.332   1_565 S
H1224  C785    1.086   1_565 S
N1225  O1226   1.301   .     A
N1225  O1227   1.301   .     A
O1228  C1229   1.420   .     S
C1229  C1232   1.533   .     S
C1229  H1230   1.111   .     S
C1229  H1231   1.117   .     S
C1232  H1233   1.111   .     S
C1232  H1234   1.111   .     S
C1232  C1308   1.525   .     S
C1235  H1238   1.111   .     S
C1235  H1237   1.111   .     S
C1235  H1236   1.111   .     S
N1239  O1240   1.302   .     A
N1239  O1241   1.301   .     A
Zn1242 O1246   1.958   .     S
Zn1242 O1254   1.922   .     S
Zn1242 O1255   1.928   .     S
Zn1242 O1248   1.924   .     S
Zn1243 O1249   1.937   .     S
Zn1243 O1257   1.927   .     S
Zn1243 O1251   1.926   .     S
Zn1243 O1246   1.941   .     S
Zn1244 O1250   1.931   .     S
Zn1244 O1258   1.937   .     S
Zn1244 O1253   1.930   .     S
Zn1244 O1246   1.932   .     S
Zn1245 O1256   1.931   .     S
Zn1245 O1252   1.936   .     S
Zn1245 O1246   1.931   .     S
Zn1245 O1247   1.932   .     S
O1247  C1259   1.269   .     A
O1248  C1260   1.277   .     A
O1249  C1261   1.276   .     A
O1250  C1262   1.270   .     A
O1251  C1263   1.274   .     A
O1252  C1264   1.281   .     A
O1253  C1263   1.274   .     A
O1254  C1264   1.286   .     A
O1255  C1261   1.276   .     A
O1256  C1262   1.270   .     A
O1257  C1259   1.269   .     A
O1258  C1260   1.281   .     A
C1259  C1292   1.438   .     S
C1260  C1290   1.455   .     S
C1261  C1296   1.436   .     S
C1262  C1294   1.451   .     S
C1263  C1266   1.454   .     S
C1264  C1265   1.471   .     S
C1265  C1268   1.399   .     A
C1265  C1269   1.395   .     A
C1266  C1281   1.392   .     A
C1266  C1282   1.392   .     A
C1267  C1271   1.409   .     A
C1267  H1285   1.081   .     S
C1267  C1268   1.392   .     A
C1268  H1286   1.083   .     S
C1269  H1287   1.080   .     S
C1269  C1270   1.408   .     A
C1270  C1271   1.420   .     A
C1270  C1272   1.424   .     A
C1271  C618    1.407   1_556 S
C1272  C1276   1.422   .     A
C1272  C616    1.418   1_556 S
C1273  C1279   1.425   .     A
C1273  C1274   1.415   .     A
C1274  C1275   1.396   .     A
C1274  H1288   1.075   .     S
C1275  N1298   1.437   .     S
C1276  N1312   1.445   .     S
C1276  C1277   1.405   .     A
C1277  O1301   1.387   .     S
C1277  C621    1.409   1_556 S
C1278  C1279   1.424   .     A
C1278  C1280   1.410   .     A
C1279  C1282   1.413   .     A
C1280  C1281   1.390   .     A
C1280  H1289   1.082   .     S
C1281  H1284   1.084   .     S
C1282  H1283   1.076   .     S
C1290  H1145   1.088   1_655 S
C1290  C1146   1.335   1_655 S
H1293  C1146   1.086   1_655 S
C1294  H857    1.088   1_565 S
C1294  C858    1.332   1_565 S
H1297  C858    1.086   1_565 S
N1298  O1299   1.301   .     A
N1298  O1300   1.301   .     A
O1301  C1302   1.420   .     S
C1302  C1305   1.533   .     S
C1302  H1303   1.111   .     S
C1302  H1304   1.117   .     S
C1305  H1306   1.111   .     S
C1305  H1307   1.111   .     S
C1305  C1162   1.525   1_655 S
C1308  H1311   1.111   .     S
C1308  H1310   1.111   .     S
C1308  H1309   1.111   .     S
N1312  O1313   1.302   .     A
N1312  O1314   1.301   .     A
