data_str_m1_o5_o17_pcu_sym.97
_audit_creation_date              2020-01-03
_audit_creation_method            'Materials Studio'
_symmetry_space_group_name_H-M    'P1'
_symmetry_Int_Tables_number       1
_symmetry_cell_setting            triclinic
loop_
_symmetry_equiv_pos_as_xyz
  x,y,z
_cell_length_a                    31.7913
_cell_length_b                    31.7909
_cell_length_c                    34.4949
_cell_angle_alpha                 89.9999
_cell_angle_beta                  90.0037
_cell_angle_gamma                 89.9984
loop_
_atom_site_label
_atom_site_type_symbol
_atom_site_fract_x
_atom_site_fract_y
_atom_site_fract_z
_atom_site_U_iso_or_equiv
_atom_site_adp_type
_atom_site_occupancy
C1     C     0.24999   0.00000   0.35578   0.00000  Uiso   1.00
C2     C     0.33002   0.41998   0.75000   0.00000  Uiso   1.00
C3     C     0.42456   0.23363   0.02039   0.00000  Uiso   1.00
C4     C     0.26646   0.07542   0.97961   0.00000  Uiso   1.00
C5     C     0.23759   0.42380   0.02006   0.00000  Uiso   1.00
C6     C     0.42378   0.23768   0.97993   0.00000  Uiso   1.00
C7     C     0.07544   0.26636   0.02040   0.00000  Uiso   1.00
C8     C     0.41998   0.16998   0.25000   0.00000  Uiso   1.00
C9     C     0.08002   0.33002   0.75000   0.00000  Uiso   1.00
C10    C     0.33002   0.41998   0.25000   0.00000  Uiso   1.00
C11    C     0.16998   0.08002   0.75000   0.00000  Uiso   1.00
C12    C     0.08002   0.33002   0.25000   0.00000  Uiso   1.00
C13    C     0.41998   0.16998   0.75000   0.00000  Uiso   1.00
C14    C     0.16998   0.41998   0.75000   0.00000  Uiso   1.00
C15    C     0.33002   0.08002   0.25000   0.00000  Uiso   1.00
C16    C     0.41998   0.33002   0.75000   0.00000  Uiso   1.00
C17    C     0.25000   0.00000   0.64417   0.00000  Uiso   1.00
C18    C     0.08002   0.16998   0.25000   0.00000  Uiso   1.00
C19    C     0.33002   0.08002   0.75000   0.00000  Uiso   1.00
C20    C     0.16998   0.41998   0.25000   0.00000  Uiso   1.00
C21    C     0.08002   0.16998   0.75000   0.00000  Uiso   1.00
C22    C     0.41998   0.33002   0.25000   0.00000  Uiso   1.00
C23    C     0.13833   0.38833   0.24999   0.00000  Uiso   1.00
C24    C     0.36167   0.11167   0.75001   0.00000  Uiso   1.00
C25    C     0.11167   0.13833   0.25001   0.00000  Uiso   1.00
C26    C     0.38833   0.36167   0.74999   0.00000  Uiso   1.00
C27    C     0.36167   0.11167   0.25000   0.00000  Uiso   1.00
C28    C     0.00001   0.24992   0.35583   0.00000  Uiso   1.00
C29    C     0.13833   0.38833   0.75001   0.00000  Uiso   1.00
C30    C     0.38833   0.36167   0.25001   0.00000  Uiso   1.00
C31    C     0.11167   0.13833   0.74999   0.00000  Uiso   1.00
C32    C     0.13833   0.11167   0.74999   0.00000  Uiso   1.00
C33    C     0.36167   0.38833   0.25001   0.00000  Uiso   1.00
C34    C     0.11167   0.36167   0.75001   0.00000  Uiso   1.00
C35    C     0.38833   0.13833   0.24999   0.00000  Uiso   1.00
C36    C     0.36167   0.38833   0.75000   0.00000  Uiso   1.00
C37    C     0.13833   0.11167   0.25001   0.00000  Uiso   1.00
C38    C     0.38833   0.13833   0.75001   0.00000  Uiso   1.00
C39    C    -0.00000   0.25000   0.64422   0.00000  Uiso   1.00
C40    C     0.11167   0.36167   0.25000   0.00000  Uiso   1.00
C41    C     0.48896   0.28688   0.41833   0.00000  Uiso   1.00
C42    C     0.00166   0.21142   0.58184   0.00000  Uiso   1.00
C43    C     0.21155   0.00262   0.41818   0.00000  Uiso   1.00
C44    C     0.28683   0.48850   0.58166   0.00000  Uiso   1.00
C45    C     0.01100   0.21290   0.41838   0.00000  Uiso   1.00
C46    C     0.49815   0.28843   0.58179   0.00000  Uiso   1.00
C47    C     0.28846   0.49742   0.41818   0.00000  Uiso   1.00
C48    C     0.21317   0.01153   0.58166   0.00000  Uiso   1.00
C49    C     0.25229   0.03847   0.91818   0.00000  Uiso   1.00
C50    C     0.00000   0.25000   0.85582   0.00000  Uiso   1.00
C51    C     0.23867   0.46311   0.08166   0.00000  Uiso   1.00
C52    C     0.46310   0.23870   0.91834   0.00000  Uiso   1.00
C53    C     0.03848   0.25223   0.08182   0.00000  Uiso   1.00
C54    C     0.24772   0.46153   0.91818   0.00000  Uiso   1.00
C55    C     0.26132   0.03689   0.08166   0.00000  Uiso   1.00
C56    C     0.03690   0.26129   0.91834   0.00000  Uiso   1.00
C57    C     0.46152   0.24777   0.08182   0.00000  Uiso   1.00
C58    C     0.00005   0.24990   0.39813   0.00000  Uiso   1.00
C59    C     0.49997   0.24995   0.60198   0.00000  Uiso   1.00
C60    C     0.25000   0.00000   0.39802   0.00000  Uiso   1.00
C61    C    -0.00000   0.25000   0.14422   0.00000  Uiso   1.00
C62    C     0.25000   0.00000   0.60187   0.00000  Uiso   1.00
C63    C     0.25000   0.00000   0.89802   0.00000  Uiso   1.00
C64    C     0.24999  -0.00000   0.10187   0.00000  Uiso   1.00
C65    C    -0.00000   0.25000   0.89813   0.00000  Uiso   1.00
C66    C    -0.00000   0.25000   0.10198   0.00000  Uiso   1.00
C67    C     0.00696   0.21174   0.45910   0.00000  Uiso   1.00
C68    C     0.49322   0.28812   0.54115   0.00000  Uiso   1.00
C69    C     0.28810   0.49270   0.45884   0.00000  Uiso   1.00
C70    C     0.21199   0.00783   0.54091   0.00000  Uiso   1.00
C71    C     0.49264   0.28802   0.45908   0.00000  Uiso   1.00
C72    C     0.25000  -0.00000   0.85579   0.00000  Uiso   1.00
C73    C     0.00635   0.21166   0.54117   0.00000  Uiso   1.00
C74    C     0.21191   0.00737   0.45883   0.00000  Uiso   1.00
C75    C     0.28801   0.49223   0.54092   0.00000  Uiso   1.00
C76    C     0.24295   0.46186   0.95884   0.00000  Uiso   1.00
C77    C     0.25758   0.03805   0.04092   0.00000  Uiso   1.00
C78    C     0.03806   0.25753   0.95909   0.00000  Uiso   1.00
C79    C     0.46185   0.24300   0.04116   0.00000  Uiso   1.00
C80    C     0.25705   0.03814   0.95884   0.00000  Uiso   1.00
C81    C     0.24242   0.46195   0.04091   0.00000  Uiso   1.00
C82    C     0.46194   0.24247   0.95908   0.00000  Uiso   1.00
C83    C     0.25000  -0.00000   0.14418   0.00000  Uiso   1.00
C84    C     0.03815   0.25700   0.04116   0.00000  Uiso   1.00
C85    C     0.49977   0.24988   0.47959   0.00000  Uiso   1.00
C86    C     0.49977   0.24988   0.52063   0.00000  Uiso   1.00
C87    C     0.25000   0.00004   0.47937   0.00000  Uiso   1.00
C88    C     0.25000   0.00003   0.52041   0.00000  Uiso   1.00
C89    C     0.25000   0.00000   0.97937   0.00000  Uiso   1.00
C90    C     0.25000  -0.00000   0.02041   0.00000  Uiso   1.00
C91    C     0.00000   0.25000   0.97959   0.00000  Uiso   1.00
C92    C     0.00000   0.25000   0.02063   0.00000  Uiso   1.00
C93    C     0.01126   0.17353   0.47995   0.00000  Uiso   1.00
C94    C     0.16998   0.08002   0.25000   0.00000  Uiso   1.00
C95    C     0.48415   0.32548   0.52039   0.00000  Uiso   1.00
C96    C     0.32531   0.48306   0.47962   0.00000  Uiso   1.00
C97    C     0.17388   0.01293   0.52005   0.00000  Uiso   1.00
C98    C     0.48813   0.32622   0.47993   0.00000  Uiso   1.00
C99    C     0.01526   0.17425   0.52041   0.00000  Uiso   1.00
C100   C     0.17470   0.01703   0.47961   0.00000  Uiso   1.00
C101   C     0.32613   0.48716   0.52006   0.00000  Uiso   1.00
C102   C     0.23354   0.42458   0.97961   0.00000  Uiso   1.00
C103   C     0.26241   0.07621   0.02006   0.00000  Uiso   1.00
C104   C     0.07622   0.26232   0.97994   0.00000  Uiso   1.00
H105   H     0.47845   0.32069   0.37135   0.00000  Uiso   1.00
H106   H     0.22785   0.42938   0.12861   0.00000  Uiso   1.00
H107   H     0.42940   0.22784   0.87137   0.00000  Uiso   1.00
H108   H     0.07273   0.23725   0.12750   0.00000  Uiso   1.00
H109   H     0.26270   0.42726   0.87252   0.00000  Uiso   1.00
H110   H     0.27210   0.07063   0.12861   0.00000  Uiso   1.00
H111   H     0.07060   0.27217   0.87138   0.00000  Uiso   1.00
H112   H     0.42727   0.26275   0.12749   0.00000  Uiso   1.00
H113   H     0.48671   0.17737   0.62767   0.00000  Uiso   1.00
H114   H     0.17716   0.48788   0.37253   0.00000  Uiso   1.00
H115   H     0.32059   0.47771   0.62859   0.00000  Uiso   1.00
H116   H     0.02382   0.17995   0.37124   0.00000  Uiso   1.00
H117   H     0.01366   0.32256   0.62739   0.00000  Uiso   1.00
H118   H     0.32284   0.01201   0.37248   0.00000  Uiso   1.00
H119   H     0.17937   0.02218   0.62858   0.00000  Uiso   1.00
H120   H     0.23735   0.07275   0.87251   0.00000  Uiso   1.00
I121   I     0.00181   0.11281   0.45332   0.00000  Uiso   1.00
I122   I     0.25364   0.13704   0.04664   0.00000  Uiso   1.00
I123   I     0.13705   0.25348   0.95337   0.00000  Uiso   1.00
I124   I     0.37096   0.20404   0.04736   0.00000  Uiso   1.00
I125   I     0.29612   0.12898   0.95264   0.00000  Uiso   1.00
I126   I     0.24636   0.36296   0.04664   0.00000  Uiso   1.00
I127   I     0.36295   0.24651   0.95336   0.00000  Uiso   1.00
I128   I     0.12904   0.29596   0.04737   0.00000  Uiso   1.00
I129   I     0.45505   0.37930   0.54744   0.00000  Uiso   1.00
I130   I     0.37868   0.45300   0.45270   0.00000  Uiso   1.00
I131   I     0.11299   0.00445   0.54659   0.00000  Uiso   1.00
I132   I     0.49727   0.38700   0.45334   0.00000  Uiso   1.00
I133   I     0.04415   0.12028   0.54739   0.00000  Uiso   1.00
I134   I     0.12135   0.04712   0.45267   0.00000  Uiso   1.00
I135   I     0.38701   0.49568   0.54661   0.00000  Uiso   1.00
I136   I     0.20389   0.37102   0.95263   0.00000  Uiso   1.00
O137   O     0.25000  -0.00000   0.25000   0.00000  Uiso   1.00
O138   O     0.25000   0.46539   0.66251   0.00000  Uiso   1.00
O139   O     0.46538   0.25000   0.33749   0.00000  Uiso   1.00
O140   O     0.03461   0.25000   0.66251   0.00000  Uiso   1.00
O141   O     0.00000   0.21538   0.83749   0.00000  Uiso   1.00
O142   O     0.00000   0.28461   0.16251   0.00000  Uiso   1.00
O143   O     0.28461   0.00000   0.83749   0.00000  Uiso   1.00
O144   O     0.21538  -0.00000   0.16251   0.00000  Uiso   1.00
O145   O     0.00000   0.28461   0.83749   0.00000  Uiso   1.00
O146   O     0.00000   0.21538   0.16251   0.00000  Uiso   1.00
O147   O     0.21538  -0.00000   0.83749   0.00000  Uiso   1.00
O148   O     0.25000  -0.00000   0.75000   0.00000  Uiso   1.00
O149   O     0.28461   0.00000   0.16251   0.00000  Uiso   1.00
O150   O     0.20126   0.08332   0.27298   0.00000  Uiso   1.00
O151   O     0.29873   0.41668   0.72702   0.00000  Uiso   1.00
O152   O     0.41668   0.20127   0.27298   0.00000  Uiso   1.00
O153   O     0.08332   0.29873   0.72702   0.00000  Uiso   1.00
O154   O     0.29873   0.41668   0.27298   0.00000  Uiso   1.00
O155   O     0.20126   0.08332   0.72702   0.00000  Uiso   1.00
O156   O     0.08332   0.29873   0.27298   0.00000  Uiso   1.00
O157   O     0.41668   0.20127   0.72702   0.00000  Uiso   1.00
O158   O     0.20126   0.41668   0.72702   0.00000  Uiso   1.00
O159   O     0.00000   0.25000   0.25000   0.00000  Uiso   1.00
O160   O     0.29873   0.08332   0.27298   0.00000  Uiso   1.00
O161   O     0.41668   0.29874   0.72702   0.00000  Uiso   1.00
O162   O     0.08332   0.20126   0.27298   0.00000  Uiso   1.00
O163   O     0.29873   0.08332   0.72702   0.00000  Uiso   1.00
O164   O     0.20126   0.41668   0.27298   0.00000  Uiso   1.00
O165   O     0.08332   0.20126   0.72702   0.00000  Uiso   1.00
O166   O     0.41668   0.29874   0.27298   0.00000  Uiso   1.00
O167   O     0.45126   0.33332   0.77298   0.00000  Uiso   1.00
O168   O     0.04873   0.16668   0.22702   0.00000  Uiso   1.00
O169   O     0.16668   0.45126   0.77298   0.00000  Uiso   1.00
O170   O     0.00000   0.25000   0.75000   0.00000  Uiso   1.00
O171   O     0.33332   0.04874   0.22702   0.00000  Uiso   1.00
O172   O     0.04873   0.16668   0.77298   0.00000  Uiso   1.00
O173   O     0.45126   0.33332   0.22702   0.00000  Uiso   1.00
O174   O     0.33332   0.04874   0.77298   0.00000  Uiso   1.00
O175   O     0.16668   0.45126   0.22702   0.00000  Uiso   1.00
O176   O     0.45126   0.16668   0.22702   0.00000  Uiso   1.00
O177   O     0.04873   0.33332   0.77298   0.00000  Uiso   1.00
O178   O     0.16668   0.04874   0.22702   0.00000  Uiso   1.00
O179   O     0.33332   0.45127   0.77298   0.00000  Uiso   1.00
O180   O     0.04873   0.33332   0.22702   0.00000  Uiso   1.00
O181   O     0.25000   0.46539   0.33749   0.00000  Uiso   1.00
O182   O     0.45126   0.16668   0.77298   0.00000  Uiso   1.00
O183   O     0.33332   0.45127   0.22702   0.00000  Uiso   1.00
O184   O     0.16668   0.04874   0.77298   0.00000  Uiso   1.00
O185   O     0.47194   0.32126   0.39934   0.00000  Uiso   1.00
O186   O     0.49669   0.17335   0.60080   0.00000  Uiso   1.00
O187   O     0.17337   0.49849   0.39923   0.00000  Uiso   1.00
O188   O     0.32099   0.47102   0.60063   0.00000  Uiso   1.00
O189   O     0.02811   0.17843   0.39957   0.00000  Uiso   1.00
O190   O     0.00317   0.32654   0.60067   0.00000  Uiso   1.00
O191   O     0.32663   0.00155   0.39923   0.00000  Uiso   1.00
O192   O     0.25000   0.03462   0.66251   0.00000  Uiso   1.00
O193   O     0.17901   0.02899   0.60064   0.00000  Uiso   1.00
O194   O     0.24783   0.07662   0.89924   0.00000  Uiso   1.00
O195   O     0.22134   0.42886   0.10062   0.00000  Uiso   1.00
O196   O     0.42883   0.22141   0.89938   0.00000  Uiso   1.00
O197   O     0.07662   0.24772   0.10076   0.00000  Uiso   1.00
O198   O     0.25218   0.42338   0.89924   0.00000  Uiso   1.00
O199   O     0.27864   0.07113   0.10063   0.00000  Uiso   1.00
O200   O     0.07117   0.27859   0.89939   0.00000  Uiso   1.00
O201   O     0.42338   0.25228   0.10075   0.00000  Uiso   1.00
O202   O     0.03461   0.25000   0.33749   0.00000  Uiso   1.00
O203   O     0.46538   0.25000   0.66251   0.00000  Uiso   1.00
O204   O     0.25000   0.03462   0.33749   0.00000  Uiso   1.00
Zn205  Zn    0.20052  -0.00000   0.21730   0.00000  Uiso   1.00
Zn206  Zn    0.04947   0.25000   0.28270   0.00000  Uiso   1.00
Zn207  Zn    0.25000   0.45053   0.71730   0.00000  Uiso   1.00
Zn208  Zn    0.25000   0.04948   0.28270   0.00000  Uiso   1.00
Zn209  Zn    0.04947   0.25000   0.71730   0.00000  Uiso   1.00
Zn210  Zn    0.45052   0.25000   0.28270   0.00000  Uiso   1.00
Zn211  Zn    0.25000   0.04948   0.71730   0.00000  Uiso   1.00
Zn212  Zn    0.25000   0.45053   0.28270   0.00000  Uiso   1.00
Zn213  Zn    0.29947   0.00000   0.78270   0.00000  Uiso   1.00
Zn214  Zn    0.00000   0.20052   0.21730   0.00000  Uiso   1.00
Zn215  Zn    0.00000   0.29947   0.78270   0.00000  Uiso   1.00
Zn216  Zn    0.29947   0.00000   0.21730   0.00000  Uiso   1.00
Zn217  Zn    0.20052  -0.00000   0.78270   0.00000  Uiso   1.00
Zn218  Zn    0.00000   0.29947   0.21730   0.00000  Uiso   1.00
Zn219  Zn    0.00000   0.20052   0.78270   0.00000  Uiso   1.00
Zn220  Zn    0.45052   0.25000   0.71730   0.00000  Uiso   1.00
C221   C     0.74999   0.00000   0.35578   0.00000  Uiso   1.00
C222   C     0.83002   0.41998   0.75000   0.00000  Uiso   1.00
C223   C     0.92456   0.23363   0.02039   0.00000  Uiso   1.00
C224   C     0.76646   0.07542   0.97961   0.00000  Uiso   1.00
C225   C     0.73759   0.42380   0.02006   0.00000  Uiso   1.00
C226   C     0.92378   0.23768   0.97993   0.00000  Uiso   1.00
C227   C     0.57544   0.26636   0.02040   0.00000  Uiso   1.00
C228   C     0.91998   0.16998   0.25000   0.00000  Uiso   1.00
C229   C     0.58002   0.33002   0.75000   0.00000  Uiso   1.00
C230   C     0.83002   0.41998   0.25000   0.00000  Uiso   1.00
C231   C     0.66998   0.08002   0.75000   0.00000  Uiso   1.00
C232   C     0.58002   0.33002   0.25000   0.00000  Uiso   1.00
C233   C     0.91998   0.16998   0.75000   0.00000  Uiso   1.00
C234   C     0.66998   0.41998   0.75000   0.00000  Uiso   1.00
C235   C     0.83002   0.08002   0.25000   0.00000  Uiso   1.00
C236   C     0.91998   0.33002   0.75000   0.00000  Uiso   1.00
C237   C     0.75000   0.00000   0.64417   0.00000  Uiso   1.00
C238   C     0.58002   0.16998   0.25000   0.00000  Uiso   1.00
C239   C     0.83002   0.08002   0.75000   0.00000  Uiso   1.00
C240   C     0.66998   0.41998   0.25000   0.00000  Uiso   1.00
C241   C     0.58002   0.16998   0.75000   0.00000  Uiso   1.00
C242   C     0.91998   0.33002   0.25000   0.00000  Uiso   1.00
C243   C     0.63833   0.38833   0.24999   0.00000  Uiso   1.00
C244   C     0.86167   0.11167   0.75001   0.00000  Uiso   1.00
C245   C     0.61167   0.13833   0.25001   0.00000  Uiso   1.00
C246   C     0.88833   0.36167   0.74999   0.00000  Uiso   1.00
C247   C     0.86167   0.11167   0.25000   0.00000  Uiso   1.00
C248   C     0.50001   0.24992   0.35583   0.00000  Uiso   1.00
C249   C     0.63833   0.38833   0.75001   0.00000  Uiso   1.00
C250   C     0.88833   0.36167   0.25001   0.00000  Uiso   1.00
C251   C     0.61167   0.13833   0.74999   0.00000  Uiso   1.00
C252   C     0.63833   0.11167   0.74999   0.00000  Uiso   1.00
C253   C     0.86167   0.38833   0.25001   0.00000  Uiso   1.00
C254   C     0.61167   0.36167   0.75001   0.00000  Uiso   1.00
C255   C     0.88833   0.13833   0.24999   0.00000  Uiso   1.00
C256   C     0.86167   0.38833   0.75000   0.00000  Uiso   1.00
C257   C     0.63833   0.11167   0.25001   0.00000  Uiso   1.00
C258   C     0.88833   0.13833   0.75001   0.00000  Uiso   1.00
C259   C     0.50000   0.25000   0.64422   0.00000  Uiso   1.00
C260   C     0.61167   0.36167   0.25000   0.00000  Uiso   1.00
C261   C     0.98896   0.28688   0.41833   0.00000  Uiso   1.00
C262   C     0.50166   0.21142   0.58184   0.00000  Uiso   1.00
C263   C     0.71155   0.00262   0.41818   0.00000  Uiso   1.00
C264   C     0.78683   0.48850   0.58166   0.00000  Uiso   1.00
C265   C     0.51100   0.21290   0.41838   0.00000  Uiso   1.00
C266   C     0.99815   0.28843   0.58179   0.00000  Uiso   1.00
C267   C     0.78846   0.49742   0.41818   0.00000  Uiso   1.00
C268   C     0.71317   0.01153   0.58166   0.00000  Uiso   1.00
C269   C     0.75229   0.03847   0.91818   0.00000  Uiso   1.00
C270   C     0.50000   0.25000   0.85582   0.00000  Uiso   1.00
C271   C     0.73867   0.46311   0.08166   0.00000  Uiso   1.00
C272   C     0.96310   0.23870   0.91834   0.00000  Uiso   1.00
C273   C     0.53848   0.25223   0.08182   0.00000  Uiso   1.00
C274   C     0.74772   0.46153   0.91818   0.00000  Uiso   1.00
C275   C     0.76132   0.03689   0.08166   0.00000  Uiso   1.00
C276   C     0.53690   0.26129   0.91834   0.00000  Uiso   1.00
C277   C     0.96152   0.24777   0.08182   0.00000  Uiso   1.00
C278   C     0.50005   0.24990   0.39813   0.00000  Uiso   1.00
C279   C     0.99997   0.24995   0.60198   0.00000  Uiso   1.00
C280   C     0.75000   0.00000   0.39802   0.00000  Uiso   1.00
C281   C     0.50000   0.25000   0.14422   0.00000  Uiso   1.00
C282   C     0.75000   0.00000   0.60187   0.00000  Uiso   1.00
C283   C     0.75000   0.00000   0.89802   0.00000  Uiso   1.00
C284   C     0.74999  -0.00000   0.10187   0.00000  Uiso   1.00
C285   C     0.50000   0.25000   0.89813   0.00000  Uiso   1.00
C286   C     0.50000   0.25000   0.10198   0.00000  Uiso   1.00
C287   C     0.50696   0.21174   0.45910   0.00000  Uiso   1.00
C288   C     0.99322   0.28812   0.54115   0.00000  Uiso   1.00
C289   C     0.78810   0.49270   0.45884   0.00000  Uiso   1.00
C290   C     0.71199   0.00783   0.54091   0.00000  Uiso   1.00
C291   C     0.99264   0.28802   0.45908   0.00000  Uiso   1.00
C292   C     0.75000  -0.00000   0.85579   0.00000  Uiso   1.00
C293   C     0.50635   0.21166   0.54117   0.00000  Uiso   1.00
C294   C     0.71191   0.00737   0.45883   0.00000  Uiso   1.00
C295   C     0.78801   0.49223   0.54092   0.00000  Uiso   1.00
C296   C     0.74295   0.46186   0.95884   0.00000  Uiso   1.00
C297   C     0.75758   0.03805   0.04092   0.00000  Uiso   1.00
C298   C     0.53806   0.25753   0.95909   0.00000  Uiso   1.00
C299   C     0.96185   0.24300   0.04116   0.00000  Uiso   1.00
C300   C     0.75705   0.03814   0.95884   0.00000  Uiso   1.00
C301   C     0.74242   0.46195   0.04091   0.00000  Uiso   1.00
C302   C     0.96194   0.24247   0.95908   0.00000  Uiso   1.00
C303   C     0.75000  -0.00000   0.14418   0.00000  Uiso   1.00
C304   C     0.53815   0.25700   0.04116   0.00000  Uiso   1.00
C305   C     0.99977   0.24988   0.47959   0.00000  Uiso   1.00
C306   C     0.99977   0.24988   0.52063   0.00000  Uiso   1.00
C307   C     0.75000   0.00004   0.47937   0.00000  Uiso   1.00
C308   C     0.75000   0.00003   0.52041   0.00000  Uiso   1.00
C309   C     0.75000   0.00000   0.97937   0.00000  Uiso   1.00
C310   C     0.75000  -0.00000   0.02041   0.00000  Uiso   1.00
C311   C     0.50000   0.25000   0.97959   0.00000  Uiso   1.00
C312   C     0.50000   0.25000   0.02063   0.00000  Uiso   1.00
C313   C     0.51126   0.17353   0.47995   0.00000  Uiso   1.00
C314   C     0.66998   0.08002   0.25000   0.00000  Uiso   1.00
C315   C     0.98415   0.32548   0.52039   0.00000  Uiso   1.00
C316   C     0.82531   0.48306   0.47962   0.00000  Uiso   1.00
C317   C     0.67388   0.01293   0.52005   0.00000  Uiso   1.00
C318   C     0.98813   0.32622   0.47993   0.00000  Uiso   1.00
C319   C     0.51526   0.17425   0.52041   0.00000  Uiso   1.00
C320   C     0.67470   0.01703   0.47961   0.00000  Uiso   1.00
C321   C     0.82613   0.48716   0.52006   0.00000  Uiso   1.00
C322   C     0.73354   0.42458   0.97961   0.00000  Uiso   1.00
C323   C     0.76241   0.07621   0.02006   0.00000  Uiso   1.00
C324   C     0.57622   0.26232   0.97994   0.00000  Uiso   1.00
H325   H     0.97845   0.32069   0.37135   0.00000  Uiso   1.00
H326   H     0.72785   0.42938   0.12861   0.00000  Uiso   1.00
H327   H     0.92940   0.22784   0.87137   0.00000  Uiso   1.00
H328   H     0.57273   0.23725   0.12750   0.00000  Uiso   1.00
H329   H     0.76270   0.42726   0.87252   0.00000  Uiso   1.00
H330   H     0.77210   0.07063   0.12861   0.00000  Uiso   1.00
H331   H     0.57060   0.27217   0.87138   0.00000  Uiso   1.00
H332   H     0.92727   0.26275   0.12749   0.00000  Uiso   1.00
H333   H     0.98671   0.17737   0.62767   0.00000  Uiso   1.00
H334   H     0.67716   0.48788   0.37253   0.00000  Uiso   1.00
H335   H     0.82059   0.47771   0.62859   0.00000  Uiso   1.00
H336   H     0.52382   0.17995   0.37124   0.00000  Uiso   1.00
H337   H     0.51366   0.32256   0.62739   0.00000  Uiso   1.00
H338   H     0.82284   0.01201   0.37248   0.00000  Uiso   1.00
H339   H     0.67937   0.02218   0.62858   0.00000  Uiso   1.00
H340   H     0.73735   0.07275   0.87251   0.00000  Uiso   1.00
I341   I     0.50181   0.11281   0.45332   0.00000  Uiso   1.00
I342   I     0.75364   0.13704   0.04664   0.00000  Uiso   1.00
I343   I     0.63705   0.25348   0.95337   0.00000  Uiso   1.00
I344   I     0.87096   0.20404   0.04736   0.00000  Uiso   1.00
I345   I     0.79612   0.12898   0.95264   0.00000  Uiso   1.00
I346   I     0.74636   0.36296   0.04664   0.00000  Uiso   1.00
I347   I     0.86295   0.24651   0.95336   0.00000  Uiso   1.00
I348   I     0.62904   0.29596   0.04737   0.00000  Uiso   1.00
I349   I     0.95505   0.37930   0.54744   0.00000  Uiso   1.00
I350   I     0.87868   0.45300   0.45270   0.00000  Uiso   1.00
I351   I     0.61299   0.00445   0.54659   0.00000  Uiso   1.00
I352   I     0.99727   0.38700   0.45334   0.00000  Uiso   1.00
I353   I     0.54415   0.12028   0.54739   0.00000  Uiso   1.00
I354   I     0.62135   0.04712   0.45267   0.00000  Uiso   1.00
I355   I     0.88701   0.49568   0.54661   0.00000  Uiso   1.00
I356   I     0.70389   0.37102   0.95263   0.00000  Uiso   1.00
O357   O     0.75000  -0.00000   0.25000   0.00000  Uiso   1.00
O358   O     0.75000   0.46539   0.66251   0.00000  Uiso   1.00
O359   O     0.96538   0.25000   0.33749   0.00000  Uiso   1.00
O360   O     0.53461   0.25000   0.66251   0.00000  Uiso   1.00
O361   O     0.50000   0.21538   0.83749   0.00000  Uiso   1.00
O362   O     0.50000   0.28461   0.16251   0.00000  Uiso   1.00
O363   O     0.78461   0.00000   0.83749   0.00000  Uiso   1.00
O364   O     0.71538  -0.00000   0.16251   0.00000  Uiso   1.00
O365   O     0.50000   0.28461   0.83749   0.00000  Uiso   1.00
O366   O     0.50000   0.21538   0.16251   0.00000  Uiso   1.00
O367   O     0.71538  -0.00000   0.83749   0.00000  Uiso   1.00
O368   O     0.75000  -0.00000   0.75000   0.00000  Uiso   1.00
O369   O     0.78461   0.00000   0.16251   0.00000  Uiso   1.00
O370   O     0.70126   0.08332   0.27298   0.00000  Uiso   1.00
O371   O     0.79873   0.41668   0.72702   0.00000  Uiso   1.00
O372   O     0.91668   0.20127   0.27298   0.00000  Uiso   1.00
O373   O     0.58332   0.29873   0.72702   0.00000  Uiso   1.00
O374   O     0.79873   0.41668   0.27298   0.00000  Uiso   1.00
O375   O     0.70126   0.08332   0.72702   0.00000  Uiso   1.00
O376   O     0.58332   0.29873   0.27298   0.00000  Uiso   1.00
O377   O     0.91668   0.20127   0.72702   0.00000  Uiso   1.00
O378   O     0.70126   0.41668   0.72702   0.00000  Uiso   1.00
O379   O     0.50000   0.25000   0.25000   0.00000  Uiso   1.00
O380   O     0.79873   0.08332   0.27298   0.00000  Uiso   1.00
O381   O     0.91668   0.29874   0.72702   0.00000  Uiso   1.00
O382   O     0.58332   0.20126   0.27298   0.00000  Uiso   1.00
O383   O     0.79873   0.08332   0.72702   0.00000  Uiso   1.00
O384   O     0.70126   0.41668   0.27298   0.00000  Uiso   1.00
O385   O     0.58332   0.20126   0.72702   0.00000  Uiso   1.00
O386   O     0.91668   0.29874   0.27298   0.00000  Uiso   1.00
O387   O     0.95126   0.33332   0.77298   0.00000  Uiso   1.00
O388   O     0.54873   0.16668   0.22702   0.00000  Uiso   1.00
O389   O     0.66668   0.45126   0.77298   0.00000  Uiso   1.00
O390   O     0.50000   0.25000   0.75000   0.00000  Uiso   1.00
O391   O     0.83332   0.04874   0.22702   0.00000  Uiso   1.00
O392   O     0.54873   0.16668   0.77298   0.00000  Uiso   1.00
O393   O     0.95126   0.33332   0.22702   0.00000  Uiso   1.00
O394   O     0.83332   0.04874   0.77298   0.00000  Uiso   1.00
O395   O     0.66668   0.45126   0.22702   0.00000  Uiso   1.00
O396   O     0.95126   0.16668   0.22702   0.00000  Uiso   1.00
O397   O     0.54873   0.33332   0.77298   0.00000  Uiso   1.00
O398   O     0.66668   0.04874   0.22702   0.00000  Uiso   1.00
O399   O     0.83332   0.45127   0.77298   0.00000  Uiso   1.00
O400   O     0.54873   0.33332   0.22702   0.00000  Uiso   1.00
O401   O     0.75000   0.46539   0.33749   0.00000  Uiso   1.00
O402   O     0.95126   0.16668   0.77298   0.00000  Uiso   1.00
O403   O     0.83332   0.45127   0.22702   0.00000  Uiso   1.00
O404   O     0.66668   0.04874   0.77298   0.00000  Uiso   1.00
O405   O     0.97194   0.32126   0.39934   0.00000  Uiso   1.00
O406   O     0.99669   0.17335   0.60080   0.00000  Uiso   1.00
O407   O     0.67337   0.49849   0.39923   0.00000  Uiso   1.00
O408   O     0.82099   0.47102   0.60063   0.00000  Uiso   1.00
O409   O     0.52811   0.17843   0.39957   0.00000  Uiso   1.00
O410   O     0.50317   0.32654   0.60067   0.00000  Uiso   1.00
O411   O     0.82663   0.00155   0.39923   0.00000  Uiso   1.00
O412   O     0.75000   0.03462   0.66251   0.00000  Uiso   1.00
O413   O     0.67901   0.02899   0.60064   0.00000  Uiso   1.00
O414   O     0.74783   0.07662   0.89924   0.00000  Uiso   1.00
O415   O     0.72134   0.42886   0.10062   0.00000  Uiso   1.00
O416   O     0.92883   0.22141   0.89938   0.00000  Uiso   1.00
O417   O     0.57662   0.24772   0.10076   0.00000  Uiso   1.00
O418   O     0.75218   0.42338   0.89924   0.00000  Uiso   1.00
O419   O     0.77864   0.07113   0.10063   0.00000  Uiso   1.00
O420   O     0.57117   0.27859   0.89939   0.00000  Uiso   1.00
O421   O     0.92338   0.25228   0.10075   0.00000  Uiso   1.00
O422   O     0.53461   0.25000   0.33749   0.00000  Uiso   1.00
O423   O     0.96538   0.25000   0.66251   0.00000  Uiso   1.00
O424   O     0.75000   0.03462   0.33749   0.00000  Uiso   1.00
Zn425  Zn    0.70052  -0.00000   0.21730   0.00000  Uiso   1.00
Zn426  Zn    0.54947   0.25000   0.28270   0.00000  Uiso   1.00
Zn427  Zn    0.75000   0.45053   0.71730   0.00000  Uiso   1.00
Zn428  Zn    0.75000   0.04948   0.28270   0.00000  Uiso   1.00
Zn429  Zn    0.54947   0.25000   0.71730   0.00000  Uiso   1.00
Zn430  Zn    0.95052   0.25000   0.28270   0.00000  Uiso   1.00
Zn431  Zn    0.75000   0.04948   0.71730   0.00000  Uiso   1.00
Zn432  Zn    0.75000   0.45053   0.28270   0.00000  Uiso   1.00
Zn433  Zn    0.79947   0.00000   0.78270   0.00000  Uiso   1.00
Zn434  Zn    0.50000   0.20052   0.21730   0.00000  Uiso   1.00
Zn435  Zn    0.50000   0.29947   0.78270   0.00000  Uiso   1.00
Zn436  Zn    0.79947   0.00000   0.21730   0.00000  Uiso   1.00
Zn437  Zn    0.70052  -0.00000   0.78270   0.00000  Uiso   1.00
Zn438  Zn    0.50000   0.29947   0.21730   0.00000  Uiso   1.00
Zn439  Zn    0.50000   0.20052   0.78270   0.00000  Uiso   1.00
Zn440  Zn    0.95052   0.25000   0.71730   0.00000  Uiso   1.00
C441   C     0.24999   0.50000   0.35578   0.00000  Uiso   1.00
C442   C     0.33002   0.91998   0.75000   0.00000  Uiso   1.00
C443   C     0.42456   0.73363   0.02039   0.00000  Uiso   1.00
C444   C     0.26646   0.57542   0.97961   0.00000  Uiso   1.00
C445   C     0.23759   0.92380   0.02006   0.00000  Uiso   1.00
C446   C     0.42378   0.73768   0.97993   0.00000  Uiso   1.00
C447   C     0.07544   0.76636   0.02040   0.00000  Uiso   1.00
C448   C     0.41998   0.66998   0.25000   0.00000  Uiso   1.00
C449   C     0.08002   0.83002   0.75000   0.00000  Uiso   1.00
C450   C     0.33002   0.91998   0.25000   0.00000  Uiso   1.00
C451   C     0.16998   0.58002   0.75000   0.00000  Uiso   1.00
C452   C     0.08002   0.83002   0.25000   0.00000  Uiso   1.00
C453   C     0.41998   0.66998   0.75000   0.00000  Uiso   1.00
C454   C     0.16998   0.91998   0.75000   0.00000  Uiso   1.00
C455   C     0.33002   0.58002   0.25000   0.00000  Uiso   1.00
C456   C     0.41998   0.83002   0.75000   0.00000  Uiso   1.00
C457   C     0.25000   0.50000   0.64417   0.00000  Uiso   1.00
C458   C     0.08002   0.66998   0.25000   0.00000  Uiso   1.00
C459   C     0.33002   0.58002   0.75000   0.00000  Uiso   1.00
C460   C     0.16998   0.91998   0.25000   0.00000  Uiso   1.00
C461   C     0.08002   0.66998   0.75000   0.00000  Uiso   1.00
C462   C     0.41998   0.83002   0.25000   0.00000  Uiso   1.00
C463   C     0.13833   0.88833   0.24999   0.00000  Uiso   1.00
C464   C     0.36167   0.61167   0.75001   0.00000  Uiso   1.00
C465   C     0.11167   0.63833   0.25001   0.00000  Uiso   1.00
C466   C     0.38833   0.86167   0.74999   0.00000  Uiso   1.00
C467   C     0.36167   0.61167   0.25000   0.00000  Uiso   1.00
C468   C     0.00001   0.74992   0.35583   0.00000  Uiso   1.00
C469   C     0.13833   0.88833   0.75001   0.00000  Uiso   1.00
C470   C     0.38833   0.86167   0.25001   0.00000  Uiso   1.00
C471   C     0.11167   0.63833   0.74999   0.00000  Uiso   1.00
C472   C     0.13833   0.61167   0.74999   0.00000  Uiso   1.00
C473   C     0.36167   0.88833   0.25001   0.00000  Uiso   1.00
C474   C     0.11167   0.86167   0.75001   0.00000  Uiso   1.00
C475   C     0.38833   0.63833   0.24999   0.00000  Uiso   1.00
C476   C     0.36167   0.88833   0.75000   0.00000  Uiso   1.00
C477   C     0.13833   0.61167   0.25001   0.00000  Uiso   1.00
C478   C     0.38833   0.63833   0.75001   0.00000  Uiso   1.00
C479   C    -0.00000   0.75000   0.64422   0.00000  Uiso   1.00
C480   C     0.11167   0.86167   0.25000   0.00000  Uiso   1.00
C481   C     0.48896   0.78688   0.41833   0.00000  Uiso   1.00
C482   C     0.00166   0.71142   0.58184   0.00000  Uiso   1.00
C483   C     0.21155   0.50262   0.41818   0.00000  Uiso   1.00
C484   C     0.28683   0.98850   0.58166   0.00000  Uiso   1.00
C485   C     0.01100   0.71290   0.41838   0.00000  Uiso   1.00
C486   C     0.49815   0.78843   0.58179   0.00000  Uiso   1.00
C487   C     0.28846   0.99742   0.41818   0.00000  Uiso   1.00
C488   C     0.21317   0.51153   0.58166   0.00000  Uiso   1.00
C489   C     0.25229   0.53847   0.91818   0.00000  Uiso   1.00
C490   C     0.00000   0.75000   0.85582   0.00000  Uiso   1.00
C491   C     0.23867   0.96311   0.08166   0.00000  Uiso   1.00
C492   C     0.46310   0.73870   0.91834   0.00000  Uiso   1.00
C493   C     0.03848   0.75223   0.08182   0.00000  Uiso   1.00
C494   C     0.24772   0.96153   0.91818   0.00000  Uiso   1.00
C495   C     0.26132   0.53689   0.08166   0.00000  Uiso   1.00
C496   C     0.03690   0.76129   0.91834   0.00000  Uiso   1.00
C497   C     0.46152   0.74777   0.08182   0.00000  Uiso   1.00
C498   C     0.00005   0.74990   0.39813   0.00000  Uiso   1.00
C499   C     0.49997   0.74995   0.60198   0.00000  Uiso   1.00
C500   C     0.25000   0.50000   0.39802   0.00000  Uiso   1.00
C501   C    -0.00000   0.75000   0.14422   0.00000  Uiso   1.00
C502   C     0.25000   0.50000   0.60187   0.00000  Uiso   1.00
C503   C     0.25000   0.50000   0.89802   0.00000  Uiso   1.00
C504   C     0.24999   0.50000   0.10187   0.00000  Uiso   1.00
C505   C    -0.00000   0.75000   0.89813   0.00000  Uiso   1.00
C506   C    -0.00000   0.75000   0.10198   0.00000  Uiso   1.00
C507   C     0.00696   0.71174   0.45910   0.00000  Uiso   1.00
C508   C     0.49322   0.78812   0.54115   0.00000  Uiso   1.00
C509   C     0.28810   0.99270   0.45884   0.00000  Uiso   1.00
C510   C     0.21199   0.50783   0.54091   0.00000  Uiso   1.00
C511   C     0.49264   0.78802   0.45908   0.00000  Uiso   1.00
C512   C     0.25000   0.50000   0.85579   0.00000  Uiso   1.00
C513   C     0.00635   0.71166   0.54117   0.00000  Uiso   1.00
C514   C     0.21191   0.50737   0.45883   0.00000  Uiso   1.00
C515   C     0.28801   0.99223   0.54092   0.00000  Uiso   1.00
C516   C     0.24295   0.96186   0.95884   0.00000  Uiso   1.00
C517   C     0.25758   0.53805   0.04092   0.00000  Uiso   1.00
C518   C     0.03806   0.75753   0.95909   0.00000  Uiso   1.00
C519   C     0.46185   0.74300   0.04116   0.00000  Uiso   1.00
C520   C     0.25705   0.53814   0.95884   0.00000  Uiso   1.00
C521   C     0.24242   0.96195   0.04091   0.00000  Uiso   1.00
C522   C     0.46194   0.74247   0.95908   0.00000  Uiso   1.00
C523   C     0.25000   0.50000   0.14418   0.00000  Uiso   1.00
C524   C     0.03815   0.75700   0.04116   0.00000  Uiso   1.00
C525   C     0.49977   0.74988   0.47959   0.00000  Uiso   1.00
C526   C     0.49977   0.74988   0.52063   0.00000  Uiso   1.00
C527   C     0.25000   0.50004   0.47937   0.00000  Uiso   1.00
C528   C     0.25000   0.50003   0.52041   0.00000  Uiso   1.00
C529   C     0.25000   0.50000   0.97937   0.00000  Uiso   1.00
C530   C     0.25000   0.50000   0.02041   0.00000  Uiso   1.00
C531   C     0.00000   0.75000   0.97959   0.00000  Uiso   1.00
C532   C     0.00000   0.75000   0.02063   0.00000  Uiso   1.00
C533   C     0.01126   0.67353   0.47995   0.00000  Uiso   1.00
C534   C     0.16998   0.58002   0.25000   0.00000  Uiso   1.00
C535   C     0.48415   0.82548   0.52039   0.00000  Uiso   1.00
C536   C     0.32531   0.98306   0.47962   0.00000  Uiso   1.00
C537   C     0.17388   0.51293   0.52005   0.00000  Uiso   1.00
C538   C     0.48813   0.82622   0.47993   0.00000  Uiso   1.00
C539   C     0.01526   0.67425   0.52041   0.00000  Uiso   1.00
C540   C     0.17470   0.51703   0.47961   0.00000  Uiso   1.00
C541   C     0.32613   0.98716   0.52006   0.00000  Uiso   1.00
C542   C     0.23354   0.92458   0.97961   0.00000  Uiso   1.00
C543   C     0.26241   0.57621   0.02006   0.00000  Uiso   1.00
C544   C     0.07622   0.76232   0.97994   0.00000  Uiso   1.00
H545   H     0.47845   0.82069   0.37135   0.00000  Uiso   1.00
H546   H     0.22785   0.92938   0.12861   0.00000  Uiso   1.00
H547   H     0.42940   0.72784   0.87137   0.00000  Uiso   1.00
H548   H     0.07273   0.73725   0.12750   0.00000  Uiso   1.00
H549   H     0.26270   0.92726   0.87252   0.00000  Uiso   1.00
H550   H     0.27210   0.57063   0.12861   0.00000  Uiso   1.00
H551   H     0.07060   0.77217   0.87138   0.00000  Uiso   1.00
H552   H     0.42727   0.76275   0.12749   0.00000  Uiso   1.00
H553   H     0.48671   0.67737   0.62767   0.00000  Uiso   1.00
H554   H     0.17716   0.98788   0.37253   0.00000  Uiso   1.00
H555   H     0.32059   0.97771   0.62859   0.00000  Uiso   1.00
H556   H     0.02382   0.67995   0.37124   0.00000  Uiso   1.00
H557   H     0.01366   0.82256   0.62739   0.00000  Uiso   1.00
H558   H     0.32284   0.51201   0.37248   0.00000  Uiso   1.00
H559   H     0.17937   0.52218   0.62858   0.00000  Uiso   1.00
H560   H     0.23735   0.57275   0.87251   0.00000  Uiso   1.00
I561   I     0.00181   0.61281   0.45332   0.00000  Uiso   1.00
I562   I     0.25364   0.63704   0.04664   0.00000  Uiso   1.00
I563   I     0.13705   0.75348   0.95337   0.00000  Uiso   1.00
I564   I     0.37096   0.70404   0.04736   0.00000  Uiso   1.00
I565   I     0.29612   0.62898   0.95264   0.00000  Uiso   1.00
I566   I     0.24636   0.86296   0.04664   0.00000  Uiso   1.00
I567   I     0.36295   0.74651   0.95336   0.00000  Uiso   1.00
I568   I     0.12904   0.79596   0.04737   0.00000  Uiso   1.00
I569   I     0.45505   0.87930   0.54744   0.00000  Uiso   1.00
I570   I     0.37868   0.95300   0.45270   0.00000  Uiso   1.00
I571   I     0.11299   0.50445   0.54659   0.00000  Uiso   1.00
I572   I     0.49727   0.88700   0.45334   0.00000  Uiso   1.00
I573   I     0.04415   0.62028   0.54739   0.00000  Uiso   1.00
I574   I     0.12135   0.54712   0.45267   0.00000  Uiso   1.00
I575   I     0.38701   0.99568   0.54661   0.00000  Uiso   1.00
I576   I     0.20389   0.87102   0.95263   0.00000  Uiso   1.00
O577   O     0.25000   0.50000   0.25000   0.00000  Uiso   1.00
O578   O     0.25000   0.96539   0.66251   0.00000  Uiso   1.00
O579   O     0.46538   0.75000   0.33749   0.00000  Uiso   1.00
O580   O     0.03461   0.75000   0.66251   0.00000  Uiso   1.00
O581   O     0.00000   0.71538   0.83749   0.00000  Uiso   1.00
O582   O     0.00000   0.78461   0.16251   0.00000  Uiso   1.00
O583   O     0.28461   0.50000   0.83749   0.00000  Uiso   1.00
O584   O     0.21538   0.50000   0.16251   0.00000  Uiso   1.00
O585   O     0.00000   0.78461   0.83749   0.00000  Uiso   1.00
O586   O     0.00000   0.71538   0.16251   0.00000  Uiso   1.00
O587   O     0.21538   0.50000   0.83749   0.00000  Uiso   1.00
O588   O     0.25000   0.50000   0.75000   0.00000  Uiso   1.00
O589   O     0.28461   0.50000   0.16251   0.00000  Uiso   1.00
O590   O     0.20126   0.58332   0.27298   0.00000  Uiso   1.00
O591   O     0.29873   0.91668   0.72702   0.00000  Uiso   1.00
O592   O     0.41668   0.70127   0.27298   0.00000  Uiso   1.00
O593   O     0.08332   0.79873   0.72702   0.00000  Uiso   1.00
O594   O     0.29873   0.91668   0.27298   0.00000  Uiso   1.00
O595   O     0.20126   0.58332   0.72702   0.00000  Uiso   1.00
O596   O     0.08332   0.79873   0.27298   0.00000  Uiso   1.00
O597   O     0.41668   0.70127   0.72702   0.00000  Uiso   1.00
O598   O     0.20126   0.91668   0.72702   0.00000  Uiso   1.00
O599   O     0.00000   0.75000   0.25000   0.00000  Uiso   1.00
O600   O     0.29873   0.58332   0.27298   0.00000  Uiso   1.00
O601   O     0.41668   0.79874   0.72702   0.00000  Uiso   1.00
O602   O     0.08332   0.70126   0.27298   0.00000  Uiso   1.00
O603   O     0.29873   0.58332   0.72702   0.00000  Uiso   1.00
O604   O     0.20126   0.91668   0.27298   0.00000  Uiso   1.00
O605   O     0.08332   0.70126   0.72702   0.00000  Uiso   1.00
O606   O     0.41668   0.79874   0.27298   0.00000  Uiso   1.00
O607   O     0.45126   0.83332   0.77298   0.00000  Uiso   1.00
O608   O     0.04873   0.66668   0.22702   0.00000  Uiso   1.00
O609   O     0.16668   0.95126   0.77298   0.00000  Uiso   1.00
O610   O     0.00000   0.75000   0.75000   0.00000  Uiso   1.00
O611   O     0.33332   0.54874   0.22702   0.00000  Uiso   1.00
O612   O     0.04873   0.66668   0.77298   0.00000  Uiso   1.00
O613   O     0.45126   0.83332   0.22702   0.00000  Uiso   1.00
O614   O     0.33332   0.54874   0.77298   0.00000  Uiso   1.00
O615   O     0.16668   0.95126   0.22702   0.00000  Uiso   1.00
O616   O     0.45126   0.66668   0.22702   0.00000  Uiso   1.00
O617   O     0.04873   0.83332   0.77298   0.00000  Uiso   1.00
O618   O     0.16668   0.54874   0.22702   0.00000  Uiso   1.00
O619   O     0.33332   0.95127   0.77298   0.00000  Uiso   1.00
O620   O     0.04873   0.83332   0.22702   0.00000  Uiso   1.00
O621   O     0.25000   0.96539   0.33749   0.00000  Uiso   1.00
O622   O     0.45126   0.66668   0.77298   0.00000  Uiso   1.00
O623   O     0.33332   0.95127   0.22702   0.00000  Uiso   1.00
O624   O     0.16668   0.54874   0.77298   0.00000  Uiso   1.00
O625   O     0.47194   0.82126   0.39934   0.00000  Uiso   1.00
O626   O     0.49669   0.67335   0.60080   0.00000  Uiso   1.00
O627   O     0.17337   0.99849   0.39923   0.00000  Uiso   1.00
O628   O     0.32099   0.97102   0.60063   0.00000  Uiso   1.00
O629   O     0.02811   0.67843   0.39957   0.00000  Uiso   1.00
O630   O     0.00317   0.82654   0.60067   0.00000  Uiso   1.00
O631   O     0.32663   0.50155   0.39923   0.00000  Uiso   1.00
O632   O     0.25000   0.53462   0.66251   0.00000  Uiso   1.00
O633   O     0.17901   0.52899   0.60064   0.00000  Uiso   1.00
O634   O     0.24783   0.57662   0.89924   0.00000  Uiso   1.00
O635   O     0.22134   0.92886   0.10062   0.00000  Uiso   1.00
O636   O     0.42883   0.72141   0.89938   0.00000  Uiso   1.00
O637   O     0.07662   0.74772   0.10076   0.00000  Uiso   1.00
O638   O     0.25218   0.92338   0.89924   0.00000  Uiso   1.00
O639   O     0.27864   0.57113   0.10063   0.00000  Uiso   1.00
O640   O     0.07117   0.77859   0.89939   0.00000  Uiso   1.00
O641   O     0.42338   0.75228   0.10075   0.00000  Uiso   1.00
O642   O     0.03461   0.75000   0.33749   0.00000  Uiso   1.00
O643   O     0.46538   0.75000   0.66251   0.00000  Uiso   1.00
O644   O     0.25000   0.53462   0.33749   0.00000  Uiso   1.00
Zn645  Zn    0.20052   0.50000   0.21730   0.00000  Uiso   1.00
Zn646  Zn    0.04947   0.75000   0.28270   0.00000  Uiso   1.00
Zn647  Zn    0.25000   0.95053   0.71730   0.00000  Uiso   1.00
Zn648  Zn    0.25000   0.54948   0.28270   0.00000  Uiso   1.00
Zn649  Zn    0.04947   0.75000   0.71730   0.00000  Uiso   1.00
Zn650  Zn    0.45052   0.75000   0.28270   0.00000  Uiso   1.00
Zn651  Zn    0.25000   0.54948   0.71730   0.00000  Uiso   1.00
Zn652  Zn    0.25000   0.95053   0.28270   0.00000  Uiso   1.00
Zn653  Zn    0.29947   0.50000   0.78270   0.00000  Uiso   1.00
Zn654  Zn    0.00000   0.70052   0.21730   0.00000  Uiso   1.00
Zn655  Zn    0.00000   0.79947   0.78270   0.00000  Uiso   1.00
Zn656  Zn    0.29947   0.50000   0.21730   0.00000  Uiso   1.00
Zn657  Zn    0.20052   0.50000   0.78270   0.00000  Uiso   1.00
Zn658  Zn    0.00000   0.79947   0.21730   0.00000  Uiso   1.00
Zn659  Zn    0.00000   0.70052   0.78270   0.00000  Uiso   1.00
Zn660  Zn    0.45052   0.75000   0.71730   0.00000  Uiso   1.00
C661   C     0.74999   0.50000   0.35578   0.00000  Uiso   1.00
C662   C     0.83002   0.91998   0.75000   0.00000  Uiso   1.00
C663   C     0.92456   0.73363   0.02039   0.00000  Uiso   1.00
C664   C     0.76646   0.57542   0.97961   0.00000  Uiso   1.00
C665   C     0.73759   0.92380   0.02006   0.00000  Uiso   1.00
C666   C     0.92378   0.73768   0.97993   0.00000  Uiso   1.00
C667   C     0.57544   0.76636   0.02040   0.00000  Uiso   1.00
C668   C     0.91998   0.66998   0.25000   0.00000  Uiso   1.00
C669   C     0.58002   0.83002   0.75000   0.00000  Uiso   1.00
C670   C     0.83002   0.91998   0.25000   0.00000  Uiso   1.00
C671   C     0.66998   0.58002   0.75000   0.00000  Uiso   1.00
C672   C     0.58002   0.83002   0.25000   0.00000  Uiso   1.00
C673   C     0.91998   0.66998   0.75000   0.00000  Uiso   1.00
C674   C     0.66998   0.91998   0.75000   0.00000  Uiso   1.00
C675   C     0.83002   0.58002   0.25000   0.00000  Uiso   1.00
C676   C     0.91998   0.83002   0.75000   0.00000  Uiso   1.00
C677   C     0.75000   0.50000   0.64417   0.00000  Uiso   1.00
C678   C     0.58002   0.66998   0.25000   0.00000  Uiso   1.00
C679   C     0.83002   0.58002   0.75000   0.00000  Uiso   1.00
C680   C     0.66998   0.91998   0.25000   0.00000  Uiso   1.00
C681   C     0.58002   0.66998   0.75000   0.00000  Uiso   1.00
C682   C     0.91998   0.83002   0.25000   0.00000  Uiso   1.00
C683   C     0.63833   0.88833   0.24999   0.00000  Uiso   1.00
C684   C     0.86167   0.61167   0.75001   0.00000  Uiso   1.00
C685   C     0.61167   0.63833   0.25001   0.00000  Uiso   1.00
C686   C     0.88833   0.86167   0.74999   0.00000  Uiso   1.00
C687   C     0.86167   0.61167   0.25000   0.00000  Uiso   1.00
C688   C     0.50001   0.74992   0.35583   0.00000  Uiso   1.00
C689   C     0.63833   0.88833   0.75001   0.00000  Uiso   1.00
C690   C     0.88833   0.86167   0.25001   0.00000  Uiso   1.00
C691   C     0.61167   0.63833   0.74999   0.00000  Uiso   1.00
C692   C     0.63833   0.61167   0.74999   0.00000  Uiso   1.00
C693   C     0.86167   0.88833   0.25001   0.00000  Uiso   1.00
C694   C     0.61167   0.86167   0.75001   0.00000  Uiso   1.00
C695   C     0.88833   0.63833   0.24999   0.00000  Uiso   1.00
C696   C     0.86167   0.88833   0.75000   0.00000  Uiso   1.00
C697   C     0.63833   0.61167   0.25001   0.00000  Uiso   1.00
C698   C     0.88833   0.63833   0.75001   0.00000  Uiso   1.00
C699   C     0.50000   0.75000   0.64422   0.00000  Uiso   1.00
C700   C     0.61167   0.86167   0.25000   0.00000  Uiso   1.00
C701   C     0.98896   0.78688   0.41833   0.00000  Uiso   1.00
C702   C     0.50166   0.71142   0.58184   0.00000  Uiso   1.00
C703   C     0.71155   0.50262   0.41818   0.00000  Uiso   1.00
C704   C     0.78683   0.98850   0.58166   0.00000  Uiso   1.00
C705   C     0.51100   0.71290   0.41838   0.00000  Uiso   1.00
C706   C     0.99815   0.78843   0.58179   0.00000  Uiso   1.00
C707   C     0.78846   0.99742   0.41818   0.00000  Uiso   1.00
C708   C     0.71317   0.51153   0.58166   0.00000  Uiso   1.00
C709   C     0.75229   0.53847   0.91818   0.00000  Uiso   1.00
C710   C     0.50000   0.75000   0.85582   0.00000  Uiso   1.00
C711   C     0.73867   0.96311   0.08166   0.00000  Uiso   1.00
C712   C     0.96310   0.73870   0.91834   0.00000  Uiso   1.00
C713   C     0.53848   0.75223   0.08182   0.00000  Uiso   1.00
C714   C     0.74772   0.96153   0.91818   0.00000  Uiso   1.00
C715   C     0.76132   0.53689   0.08166   0.00000  Uiso   1.00
C716   C     0.53690   0.76129   0.91834   0.00000  Uiso   1.00
C717   C     0.96152   0.74777   0.08182   0.00000  Uiso   1.00
C718   C     0.50005   0.74990   0.39813   0.00000  Uiso   1.00
C719   C     0.99997   0.74995   0.60198   0.00000  Uiso   1.00
C720   C     0.75000   0.50000   0.39802   0.00000  Uiso   1.00
C721   C     0.50000   0.75000   0.14422   0.00000  Uiso   1.00
C722   C     0.75000   0.50000   0.60187   0.00000  Uiso   1.00
C723   C     0.75000   0.50000   0.89802   0.00000  Uiso   1.00
C724   C     0.74999   0.50000   0.10187   0.00000  Uiso   1.00
C725   C     0.50000   0.75000   0.89813   0.00000  Uiso   1.00
C726   C     0.50000   0.75000   0.10198   0.00000  Uiso   1.00
C727   C     0.50696   0.71174   0.45910   0.00000  Uiso   1.00
C728   C     0.99322   0.78812   0.54115   0.00000  Uiso   1.00
C729   C     0.78810   0.99270   0.45884   0.00000  Uiso   1.00
C730   C     0.71199   0.50783   0.54091   0.00000  Uiso   1.00
C731   C     0.99264   0.78802   0.45908   0.00000  Uiso   1.00
C732   C     0.75000   0.50000   0.85579   0.00000  Uiso   1.00
C733   C     0.50635   0.71166   0.54117   0.00000  Uiso   1.00
C734   C     0.71191   0.50737   0.45883   0.00000  Uiso   1.00
C735   C     0.78801   0.99223   0.54092   0.00000  Uiso   1.00
C736   C     0.74295   0.96186   0.95884   0.00000  Uiso   1.00
C737   C     0.75758   0.53805   0.04092   0.00000  Uiso   1.00
C738   C     0.53806   0.75753   0.95909   0.00000  Uiso   1.00
C739   C     0.96185   0.74300   0.04116   0.00000  Uiso   1.00
C740   C     0.75705   0.53814   0.95884   0.00000  Uiso   1.00
C741   C     0.74242   0.96195   0.04091   0.00000  Uiso   1.00
C742   C     0.96194   0.74247   0.95908   0.00000  Uiso   1.00
C743   C     0.75000   0.50000   0.14418   0.00000  Uiso   1.00
C744   C     0.53815   0.75700   0.04116   0.00000  Uiso   1.00
C745   C     0.99977   0.74988   0.47959   0.00000  Uiso   1.00
C746   C     0.99977   0.74988   0.52063   0.00000  Uiso   1.00
C747   C     0.75000   0.50004   0.47937   0.00000  Uiso   1.00
C748   C     0.75000   0.50003   0.52041   0.00000  Uiso   1.00
C749   C     0.75000   0.50000   0.97937   0.00000  Uiso   1.00
C750   C     0.75000   0.50000   0.02041   0.00000  Uiso   1.00
C751   C     0.50000   0.75000   0.97959   0.00000  Uiso   1.00
C752   C     0.50000   0.75000   0.02063   0.00000  Uiso   1.00
C753   C     0.51126   0.67353   0.47995   0.00000  Uiso   1.00
C754   C     0.66998   0.58002   0.25000   0.00000  Uiso   1.00
C755   C     0.98415   0.82548   0.52039   0.00000  Uiso   1.00
C756   C     0.82531   0.98306   0.47962   0.00000  Uiso   1.00
C757   C     0.67388   0.51293   0.52005   0.00000  Uiso   1.00
C758   C     0.98813   0.82622   0.47993   0.00000  Uiso   1.00
C759   C     0.51526   0.67425   0.52041   0.00000  Uiso   1.00
C760   C     0.67470   0.51703   0.47961   0.00000  Uiso   1.00
C761   C     0.82613   0.98716   0.52006   0.00000  Uiso   1.00
C762   C     0.73354   0.92458   0.97961   0.00000  Uiso   1.00
C763   C     0.76241   0.57621   0.02006   0.00000  Uiso   1.00
C764   C     0.57622   0.76232   0.97994   0.00000  Uiso   1.00
H765   H     0.97845   0.82069   0.37135   0.00000  Uiso   1.00
H766   H     0.72785   0.92938   0.12861   0.00000  Uiso   1.00
H767   H     0.92940   0.72784   0.87137   0.00000  Uiso   1.00
H768   H     0.57273   0.73725   0.12750   0.00000  Uiso   1.00
H769   H     0.76270   0.92726   0.87252   0.00000  Uiso   1.00
H770   H     0.77210   0.57063   0.12861   0.00000  Uiso   1.00
H771   H     0.57060   0.77217   0.87138   0.00000  Uiso   1.00
H772   H     0.92727   0.76275   0.12749   0.00000  Uiso   1.00
H773   H     0.98671   0.67737   0.62767   0.00000  Uiso   1.00
H774   H     0.67716   0.98788   0.37253   0.00000  Uiso   1.00
H775   H     0.82059   0.97771   0.62859   0.00000  Uiso   1.00
H776   H     0.52382   0.67995   0.37124   0.00000  Uiso   1.00
H777   H     0.51366   0.82256   0.62739   0.00000  Uiso   1.00
H778   H     0.82284   0.51201   0.37248   0.00000  Uiso   1.00
H779   H     0.67937   0.52218   0.62858   0.00000  Uiso   1.00
H780   H     0.73735   0.57275   0.87251   0.00000  Uiso   1.00
I781   I     0.50181   0.61281   0.45332   0.00000  Uiso   1.00
I782   I     0.75364   0.63704   0.04664   0.00000  Uiso   1.00
I783   I     0.63705   0.75348   0.95337   0.00000  Uiso   1.00
I784   I     0.87096   0.70404   0.04736   0.00000  Uiso   1.00
I785   I     0.79612   0.62898   0.95264   0.00000  Uiso   1.00
I786   I     0.74636   0.86296   0.04664   0.00000  Uiso   1.00
I787   I     0.86295   0.74651   0.95336   0.00000  Uiso   1.00
I788   I     0.62904   0.79596   0.04737   0.00000  Uiso   1.00
I789   I     0.95505   0.87930   0.54744   0.00000  Uiso   1.00
I790   I     0.87868   0.95300   0.45270   0.00000  Uiso   1.00
I791   I     0.61299   0.50445   0.54659   0.00000  Uiso   1.00
I792   I     0.99727   0.88700   0.45334   0.00000  Uiso   1.00
I793   I     0.54415   0.62028   0.54739   0.00000  Uiso   1.00
I794   I     0.62135   0.54712   0.45267   0.00000  Uiso   1.00
I795   I     0.88701   0.99568   0.54661   0.00000  Uiso   1.00
I796   I     0.70389   0.87102   0.95263   0.00000  Uiso   1.00
O797   O     0.75000   0.50000   0.25000   0.00000  Uiso   1.00
O798   O     0.75000   0.96539   0.66251   0.00000  Uiso   1.00
O799   O     0.96538   0.75000   0.33749   0.00000  Uiso   1.00
O800   O     0.53461   0.75000   0.66251   0.00000  Uiso   1.00
O801   O     0.50000   0.71538   0.83749   0.00000  Uiso   1.00
O802   O     0.50000   0.78461   0.16251   0.00000  Uiso   1.00
O803   O     0.78461   0.50000   0.83749   0.00000  Uiso   1.00
O804   O     0.71538   0.50000   0.16251   0.00000  Uiso   1.00
O805   O     0.50000   0.78461   0.83749   0.00000  Uiso   1.00
O806   O     0.50000   0.71538   0.16251   0.00000  Uiso   1.00
O807   O     0.71538   0.50000   0.83749   0.00000  Uiso   1.00
O808   O     0.75000   0.50000   0.75000   0.00000  Uiso   1.00
O809   O     0.78461   0.50000   0.16251   0.00000  Uiso   1.00
O810   O     0.70126   0.58332   0.27298   0.00000  Uiso   1.00
O811   O     0.79873   0.91668   0.72702   0.00000  Uiso   1.00
O812   O     0.91668   0.70127   0.27298   0.00000  Uiso   1.00
O813   O     0.58332   0.79873   0.72702   0.00000  Uiso   1.00
O814   O     0.79873   0.91668   0.27298   0.00000  Uiso   1.00
O815   O     0.70126   0.58332   0.72702   0.00000  Uiso   1.00
O816   O     0.58332   0.79873   0.27298   0.00000  Uiso   1.00
O817   O     0.91668   0.70127   0.72702   0.00000  Uiso   1.00
O818   O     0.70126   0.91668   0.72702   0.00000  Uiso   1.00
O819   O     0.50000   0.75000   0.25000   0.00000  Uiso   1.00
O820   O     0.79873   0.58332   0.27298   0.00000  Uiso   1.00
O821   O     0.91668   0.79874   0.72702   0.00000  Uiso   1.00
O822   O     0.58332   0.70126   0.27298   0.00000  Uiso   1.00
O823   O     0.79873   0.58332   0.72702   0.00000  Uiso   1.00
O824   O     0.70126   0.91668   0.27298   0.00000  Uiso   1.00
O825   O     0.58332   0.70126   0.72702   0.00000  Uiso   1.00
O826   O     0.91668   0.79874   0.27298   0.00000  Uiso   1.00
O827   O     0.95126   0.83332   0.77298   0.00000  Uiso   1.00
O828   O     0.54873   0.66668   0.22702   0.00000  Uiso   1.00
O829   O     0.66668   0.95126   0.77298   0.00000  Uiso   1.00
O830   O     0.50000   0.75000   0.75000   0.00000  Uiso   1.00
O831   O     0.83332   0.54874   0.22702   0.00000  Uiso   1.00
O832   O     0.54873   0.66668   0.77298   0.00000  Uiso   1.00
O833   O     0.95126   0.83332   0.22702   0.00000  Uiso   1.00
O834   O     0.83332   0.54874   0.77298   0.00000  Uiso   1.00
O835   O     0.66668   0.95126   0.22702   0.00000  Uiso   1.00
O836   O     0.95126   0.66668   0.22702   0.00000  Uiso   1.00
O837   O     0.54873   0.83332   0.77298   0.00000  Uiso   1.00
O838   O     0.66668   0.54874   0.22702   0.00000  Uiso   1.00
O839   O     0.83332   0.95127   0.77298   0.00000  Uiso   1.00
O840   O     0.54873   0.83332   0.22702   0.00000  Uiso   1.00
O841   O     0.75000   0.96539   0.33749   0.00000  Uiso   1.00
O842   O     0.95126   0.66668   0.77298   0.00000  Uiso   1.00
O843   O     0.83332   0.95127   0.22702   0.00000  Uiso   1.00
O844   O     0.66668   0.54874   0.77298   0.00000  Uiso   1.00
O845   O     0.97194   0.82126   0.39934   0.00000  Uiso   1.00
O846   O     0.99669   0.67335   0.60080   0.00000  Uiso   1.00
O847   O     0.67337   0.99849   0.39923   0.00000  Uiso   1.00
O848   O     0.82099   0.97102   0.60063   0.00000  Uiso   1.00
O849   O     0.52811   0.67843   0.39957   0.00000  Uiso   1.00
O850   O     0.50317   0.82654   0.60067   0.00000  Uiso   1.00
O851   O     0.82663   0.50155   0.39923   0.00000  Uiso   1.00
O852   O     0.75000   0.53462   0.66251   0.00000  Uiso   1.00
O853   O     0.67901   0.52899   0.60064   0.00000  Uiso   1.00
O854   O     0.74783   0.57662   0.89924   0.00000  Uiso   1.00
O855   O     0.72134   0.92886   0.10062   0.00000  Uiso   1.00
O856   O     0.92883   0.72141   0.89938   0.00000  Uiso   1.00
O857   O     0.57662   0.74772   0.10076   0.00000  Uiso   1.00
O858   O     0.75218   0.92338   0.89924   0.00000  Uiso   1.00
O859   O     0.77864   0.57113   0.10063   0.00000  Uiso   1.00
O860   O     0.57117   0.77859   0.89939   0.00000  Uiso   1.00
O861   O     0.92338   0.75228   0.10075   0.00000  Uiso   1.00
O862   O     0.53461   0.75000   0.33749   0.00000  Uiso   1.00
O863   O     0.96538   0.75000   0.66251   0.00000  Uiso   1.00
O864   O     0.75000   0.53462   0.33749   0.00000  Uiso   1.00
Zn865  Zn    0.70052   0.50000   0.21730   0.00000  Uiso   1.00
Zn866  Zn    0.54947   0.75000   0.28270   0.00000  Uiso   1.00
Zn867  Zn    0.75000   0.95053   0.71730   0.00000  Uiso   1.00
Zn868  Zn    0.75000   0.54948   0.28270   0.00000  Uiso   1.00
Zn869  Zn    0.54947   0.75000   0.71730   0.00000  Uiso   1.00
Zn870  Zn    0.95052   0.75000   0.28270   0.00000  Uiso   1.00
Zn871  Zn    0.75000   0.54948   0.71730   0.00000  Uiso   1.00
Zn872  Zn    0.75000   0.95053   0.28270   0.00000  Uiso   1.00
Zn873  Zn    0.79947   0.50000   0.78270   0.00000  Uiso   1.00
Zn874  Zn    0.50000   0.70052   0.21730   0.00000  Uiso   1.00
Zn875  Zn    0.50000   0.79947   0.78270   0.00000  Uiso   1.00
Zn876  Zn    0.79947   0.50000   0.21730   0.00000  Uiso   1.00
Zn877  Zn    0.70052   0.50000   0.78270   0.00000  Uiso   1.00
Zn878  Zn    0.50000   0.79947   0.21730   0.00000  Uiso   1.00
Zn879  Zn    0.50000   0.70052   0.78270   0.00000  Uiso   1.00
Zn880  Zn    0.95052   0.75000   0.71730   0.00000  Uiso   1.00
loop_
_geom_bond_atom_site_label_1
_geom_bond_atom_site_label_2
_geom_bond_distance
_geom_bond_site_symmetry_2
_ccdc_geom_bond_type
C1     O204    1.269   .     A
C1     C60     1.457   .     S
C1     O621    1.269   1_545 S
C2     O179    1.276   .     A
C2     C36     1.423   .     S
C2     O151    1.276   .     A
C3     C79     1.417   .     A
C3     I124    2.157   .     S
C3     C6      1.402   1_554 S
C4     C80     1.417   .     A
C4     I125    2.157   .     S
C4     C103    1.402   1_556 S
C5     I126    2.158   .     S
C5     C81     1.418   .     A
C5     C102    1.402   1_554 S
C6     C82     1.418   .     A
C6     I127    2.158   .     S
C6     C3      1.402   1_556 S
C7     I128    2.157   .     S
C7     C84     1.417   .     A
C7     C104    1.402   1_554 S
C8     O152    1.276   .     A
C8     C35     1.423   .     S
C8     O176    1.276   .     A
C9     C34     1.423   .     S
C9     O177    1.276   .     A
C9     O153    1.276   .     A
C10    O154    1.276   .     A
C10    O183    1.276   .     A
C10    C33     1.423   .     S
C11    O155    1.276   .     A
C11    C32     1.423   .     S
C11    O184    1.276   .     A
C12    C40     1.423   .     S
C12    O180    1.276   .     A
C12    O156    1.276   .     A
C13    O157    1.276   .     A
C13    C38     1.423   .     S
C13    O182    1.276   .     A
C14    O158    1.276   .     A
C14    O169    1.276   .     A
C14    C29     1.423   .     S
C15    C27     1.423   .     S
C15    O171    1.276   .     A
C15    O160    1.276   .     A
C16    O167    1.276   .     A
C16    C26     1.423   .     S
C16    O161    1.276   .     A
C17    O192    1.269   .     A
C17    C62     1.459   .     S
C17    O578    1.269   1_545 S
C18    C25     1.423   .     S
C18    O168    1.276   .     A
C18    O162    1.276   .     A
C19    O163    1.276   .     A
C19    C24     1.423   .     S
C19    O174    1.276   .     A
C20    O175    1.276   .     A
C20    O164    1.276   .     A
C20    C23     1.423   .     S
C21    O165    1.276   .     A
C21    O172    1.276   .     A
C21    C31     1.423   .     S
C22    O173    1.276   .     A
C22    C30     1.423   .     S
C22    O166    1.276   .     A
C23    C40     1.199   .     T
C24    C38     1.199   .     T
C25    C37     1.199   .     T
C26    C36     1.199   .     T
C27    C35     1.199   .     T
C28    O202    1.269   .     A
C28    C58     1.459   .     S
C28    O359    1.269   1_455 S
C29    C34     1.199   .     T
C30    C33     1.199   .     T
C31    C32     1.199   .     T
C37    C94     1.423   .     S
C39    O423    1.268   1_455 A
C39    C279    1.457   1_455 S
C39    O140    1.269   .     S
C41    C71     1.411   .     A
C41    O185    1.384   .     S
C41    C278    1.411   .     S
C42    C73     1.411   .     A
C42    C279    1.409   1_455 S
C42    O406    1.385   1_455 S
C43    C74     1.411   .     A
C43    C60     1.409   .     A
C43    O627    1.385   1_545 S
C44    C75     1.411   .     A
C44    O188    1.384   .     S
C44    C502    1.411   .     S
C45    C67     1.411   .     A
C45    C58     1.412   .     A
C45    O189    1.385   .     S
C46    C68     1.411   .     A
C46    C59     1.409   .     A
C46    O410    1.385   .     S
C47    C69     1.411   .     A
C47    C500    1.409   .     S
C47    O631    1.385   .     S
C48    O193    1.384   .     S
C48    C62     1.411   .     A
C48    C70     1.411   .     A
C49    C63     1.409   .     A
C49    O194    1.385   .     S
C49    C80     1.411   .     A
C50    O141    1.269   .     A
C50    O145    1.269   .     A
C50    C65     1.459   .     S
C51    C81     1.411   .     A
C51    C504    1.411   .     A
C51    O195    1.384   .     S
C52    O196    1.384   .     S
C52    C82     1.411   .     A
C52    C285    1.411   .     A
C53    C84     1.411   .     A
C53    O197    1.385   .     S
C53    C66     1.409   .     S
C54    C76     1.411   .     A
C54    O198    1.385   .     S
C54    C503    1.409   .     S
C55    C77     1.411   .     A
C55    O199    1.384   .     S
C55    C64     1.411   .     S
C56    C78     1.411   .     A
C56    O200    1.384   .     S
C56    C65     1.411   .     S
C57    C286    1.409   .     A
C57    C79     1.411   .     A
C57    O201    1.385   .     S
C58    C261    1.411   1_455 S
C59    C259    1.457   .     S
C59    C262    1.409   .     S
C60    C487    1.409   1_545 S
C61    C66     1.457   .     S
C61    O142    1.269   .     S
C61    O146    1.269   .     S
C62    C484    1.411   1_545 S
C63    C494    1.409   1_545 S
C63    C72     1.457   .     S
C64    C491    1.411   1_545 A
C64    C83     1.459   .     S
C65    C272    1.411   1_455 A
C66    C277    1.409   1_455 A
C67    C93     1.418   .     A
C67    C305    1.422   1_455 S
C68    C86     1.422   .     A
C68    C95     1.417   .     A
C69    C96     1.417   .     A
C69    C527    1.422   .     S
C70    C88     1.422   .     A
C70    C97     1.418   .     A
C71    C85     1.422   .     A
C71    C98     1.419   .     A
C72    O143    1.269   .     A
C72    O147    1.269   .     A
C73    C99     1.417   .     A
C73    C306    1.422   1_455 S
C74    C100    1.417   .     A
C74    C87     1.422   .     A
C75    C101    1.418   .     A
C75    C528    1.422   .     S
C76    C102    1.417   .     A
C76    C529    1.422   .     S
C77    C103    1.418   .     A
C77    C90     1.422   .     S
C78    C104    1.418   .     A
C78    C91     1.422   .     A
C79    C312    1.422   .     S
C80    C89     1.422   .     A
C81    C530    1.422   .     A
C82    C311    1.422   .     S
C83    O144    1.269   .     A
C83    O149    1.269   .     A
C84    C92     1.422   .     A
C85    C86     1.416   .     A
C85    C287    1.422   .     S
C86    C293    1.422   .     S
C87    C88     1.416   .     A
C87    C509    1.422   1_545 S
C88    C515    1.422   1_545 S
C89    C516    1.422   1_545 S
C89    C90     1.416   1_556 S
C90    C521    1.422   1_545 A
C90    C89     1.416   1_554 S
C91    C302    1.422   1_455 S
C91    C92     1.416   1_556 S
C92    C299    1.422   1_455 S
C92    C91     1.416   1_554 S
C93    I121    2.159   .     S
C93    C99     1.401   .     A
C94    O178    1.276   .     A
C94    O150    1.276   .     A
C95    C98     1.401   .     A
C95    I129    2.158   .     S
C96    C101    1.401   .     A
C96    I130    2.158   .     S
C97    I131    2.158   .     S
C97    C100    1.401   .     A
C98    I132    2.159   .     S
C99    I133    2.157   .     S
C100   I134    2.158   .     S
C101   I135    2.158   .     S
C102   I136    2.157   .     S
C102   C5      1.402   1_556 S
C103   I122    2.158   .     S
C103   C4      1.402   1_554 S
C104   I123    2.158   .     S
C104   C7      1.402   1_556 S
H105   O185    0.988   .     S
H106   O195    0.988   .     S
H107   O196    0.988   .     S
H108   O197    0.988   .     S
H109   O198    0.988   .     S
H110   O199    0.988   .     S
H111   O200    0.988   .     S
H112   O201    0.988   .     S
H113   O186    0.988   .     S
H114   O187    0.988   .     S
H115   O188    0.988   .     S
H116   O189    0.988   .     S
H117   O190    0.988   .     S
H118   O191    0.988   .     S
H119   O193    0.988   .     S
H120   O194    0.988   .     S
O137   Zn205   1.935   .     S
O137   Zn652   1.936   1_545 S
O137   Zn216   1.936   .     S
O137   Zn208   1.936   .     S
O138   Zn207   1.948   .     S
O138   C457    1.269   .     S
O139   Zn210   1.948   .     S
O139   C248    1.269   .     S
O140   Zn209   1.948   .     S
O141   Zn219   1.948   .     S
O142   Zn218   1.948   .     S
O143   Zn213   1.948   .     S
O144   Zn205   1.948   .     S
O145   Zn215   1.948   .     S
O146   Zn214   1.948   .     S
O147   Zn217   1.948   .     S
O148   Zn213   1.935   .     S
O148   Zn647   1.936   1_545 S
O148   Zn217   1.936   .     S
O148   Zn211   1.936   .     S
O149   Zn216   1.948   .     S
O150   Zn208   1.916   .     S
O151   Zn207   1.916   .     S
O152   Zn210   1.916   .     S
O153   Zn209   1.916   .     S
O154   Zn212   1.916   .     S
O155   Zn211   1.916   .     S
O156   Zn206   1.916   .     S
O157   Zn220   1.916   .     S
O158   Zn207   1.916   .     S
O159   Zn214   1.936   .     S
O159   Zn218   1.936   .     S
O159   Zn206   1.935   .     S
O159   Zn430   1.936   1_455 S
O160   Zn208   1.916   .     S
O161   Zn220   1.916   .     S
O162   Zn206   1.916   .     S
O163   Zn211   1.916   .     S
O164   Zn212   1.916   .     S
O165   Zn209   1.916   .     S
O166   Zn210   1.916   .     S
O167   Zn435   1.916   .     S
O168   Zn214   1.916   .     S
O169   Zn657   1.916   .     S
O170   Zn215   1.936   .     S
O170   Zn219   1.936   .     S
O170   Zn209   1.936   .     S
O170   Zn440   1.935   1_455 S
O171   Zn216   1.916   .     S
O172   Zn219   1.916   .     S
O173   Zn438   1.916   .     S
O174   Zn213   1.916   .     S
O175   Zn645   1.916   .     S
O176   Zn434   1.916   .     S
O177   Zn215   1.916   .     S
O178   Zn205   1.916   .     S
O179   Zn653   1.916   .     S
O180   Zn218   1.916   .     S
O181   Zn212   1.948   .     S
O181   C441    1.269   .     S
O182   Zn439   1.916   .     S
O183   Zn656   1.916   .     S
O184   Zn217   1.916   .     S
O186   C262    1.385   .     S
O187   C483    1.385   .     S
O190   C266    1.385   1_455 S
O191   C487    1.385   1_545 S
O192   Zn211   1.948   .     S
O202   Zn206   1.948   .     S
O203   C259    1.268   .     A
O203   Zn220   1.948   .     S
O204   Zn208   1.948   .     S
Zn205  O615    1.916   1_545 S
Zn207  O588    1.936   .     S
Zn210  O379    1.936   .     S
Zn212  O577    1.936   .     S
Zn213  O619    1.916   1_545 S
Zn214  O396    1.916   1_455 S
Zn215  O387    1.916   1_455 S
Zn216  O623    1.916   1_545 S
Zn217  O609    1.916   1_545 S
Zn218  O393    1.916   1_455 S
Zn219  O402    1.916   1_455 S
Zn220  O390    1.935   .     S
C221   O424    1.269   .     A
C221   C280    1.457   .     S
C221   O841    1.269   1_545 S
C222   O399    1.276   .     A
C222   C256    1.423   .     S
C222   O371    1.276   .     A
C223   C299    1.417   .     A
C223   I344    2.157   .     S
C223   C226    1.402   1_554 S
C224   C300    1.417   .     A
C224   I345    2.157   .     S
C224   C323    1.402   1_556 S
C225   I346    2.158   .     S
C225   C301    1.418   .     A
C225   C322    1.402   1_554 S
C226   C302    1.418   .     A
C226   I347    2.158   .     S
C226   C223    1.402   1_556 S
C227   I348    2.157   .     S
C227   C304    1.417   .     A
C227   C324    1.402   1_554 S
C228   O372    1.276   .     A
C228   C255    1.423   .     S
C228   O396    1.276   .     A
C229   C254    1.423   .     S
C229   O397    1.276   .     A
C229   O373    1.276   .     A
C230   O374    1.276   .     A
C230   O403    1.276   .     A
C230   C253    1.423   .     S
C231   O375    1.276   .     A
C231   C252    1.423   .     S
C231   O404    1.276   .     A
C232   C260    1.423   .     S
C232   O400    1.276   .     A
C232   O376    1.276   .     A
C233   O377    1.276   .     A
C233   C258    1.423   .     S
C233   O402    1.276   .     A
C234   O378    1.276   .     A
C234   O389    1.276   .     A
C234   C249    1.423   .     S
C235   C247    1.423   .     S
C235   O391    1.276   .     A
C235   O380    1.276   .     A
C236   O387    1.276   .     A
C236   C246    1.423   .     S
C236   O381    1.276   .     A
C237   O412    1.269   .     A
C237   C282    1.459   .     S
C237   O798    1.269   1_545 S
C238   C245    1.423   .     S
C238   O388    1.276   .     A
C238   O382    1.276   .     A
C239   O383    1.276   .     A
C239   C244    1.423   .     S
C239   O394    1.276   .     A
C240   O395    1.276   .     A
C240   O384    1.276   .     A
C240   C243    1.423   .     S
C241   O385    1.276   .     A
C241   O392    1.276   .     A
C241   C251    1.423   .     S
C242   O393    1.276   .     A
C242   C250    1.423   .     S
C242   O386    1.276   .     A
C243   C260    1.199   .     T
C244   C258    1.199   .     T
C245   C257    1.199   .     T
C246   C256    1.199   .     T
C247   C255    1.199   .     T
C248   O422    1.269   .     A
C248   C278    1.459   .     S
C249   C254    1.199   .     T
C250   C253    1.199   .     T
C251   C252    1.199   .     T
C257   C314    1.423   .     S
C259   O360    1.269   .     S
C261   C291    1.411   .     A
C261   O405    1.384   .     S
C261   C58     1.411   1_655 S
C262   C293    1.411   .     A
C263   C294    1.411   .     A
C263   C280    1.409   .     A
C263   O847    1.385   1_545 S
C264   C295    1.411   .     A
C264   O408    1.384   .     S
C264   C722    1.411   .     S
C265   C287    1.411   .     A
C265   C278    1.412   .     A
C265   O409    1.385   .     S
C266   C288    1.411   .     A
C266   C279    1.409   .     A
C266   O190    1.385   1_655 S
C267   C289    1.411   .     A
C267   C720    1.409   .     S
C267   O851    1.385   .     S
C268   O413    1.384   .     S
C268   C282    1.411   .     A
C268   C290    1.411   .     A
C269   C283    1.409   .     A
C269   O414    1.385   .     S
C269   C300    1.411   .     A
C270   O361    1.269   .     A
C270   O365    1.269   .     A
C270   C285    1.459   .     S
C271   C301    1.411   .     A
C271   C724    1.411   .     A
C271   O415    1.384   .     S
C272   O416    1.384   .     S
C272   C302    1.411   .     A
C272   C65     1.411   1_655 A
C273   C304    1.411   .     A
C273   O417    1.385   .     S
C273   C286    1.409   .     S
C274   C296    1.411   .     A
C274   O418    1.385   .     S
C274   C723    1.409   .     S
C275   C297    1.411   .     A
C275   O419    1.384   .     S
C275   C284    1.411   .     S
C276   C298    1.411   .     A
C276   O420    1.384   .     S
C276   C285    1.411   .     S
C277   C66     1.409   1_655 A
C277   C299    1.411   .     A
C277   O421    1.385   .     S
C279   C39     1.457   1_655 S
C279   C42     1.409   1_655 S
C280   C707    1.409   1_545 S
C281   C286    1.457   .     S
C281   O362    1.269   .     S
C281   O366    1.269   .     S
C282   C704    1.411   1_545 S
C283   C714    1.409   1_545 S
C283   C292    1.457   .     S
C284   C711    1.411   1_545 A
C284   C303    1.459   .     S
C287   C313    1.418   .     A
C288   C306    1.422   .     A
C288   C315    1.417   .     A
C289   C316    1.417   .     A
C289   C747    1.422   .     S
C290   C308    1.422   .     A
C290   C317    1.418   .     A
C291   C305    1.422   .     A
C291   C318    1.419   .     A
C292   O363    1.269   .     A
C292   O367    1.269   .     A
C293   C319    1.417   .     A
C294   C320    1.417   .     A
C294   C307    1.422   .     A
C295   C321    1.418   .     A
C295   C748    1.422   .     S
C296   C322    1.417   .     A
C296   C749    1.422   .     S
C297   C323    1.418   .     A
C297   C310    1.422   .     S
C298   C324    1.418   .     A
C298   C311    1.422   .     A
C299   C92     1.422   1_655 S
C300   C309    1.422   .     A
C301   C750    1.422   .     A
C302   C91     1.422   1_655 S
C303   O364    1.269   .     A
C303   O369    1.269   .     A
C304   C312    1.422   .     A
C305   C306    1.416   .     A
C305   C67     1.422   1_655 S
C306   C73     1.422   1_655 S
C307   C308    1.416   .     A
C307   C729    1.422   1_545 S
C308   C735    1.422   1_545 S
C309   C736    1.422   1_545 S
C309   C310    1.416   1_556 S
C310   C741    1.422   1_545 A
C310   C309    1.416   1_554 S
C311   C312    1.416   1_556 S
C312   C311    1.416   1_554 S
C313   I341    2.159   .     S
C313   C319    1.401   .     A
C314   O398    1.276   .     A
C314   O370    1.276   .     A
C315   C318    1.401   .     A
C315   I349    2.158   .     S
C316   C321    1.401   .     A
C316   I350    2.158   .     S
C317   I351    2.158   .     S
C317   C320    1.401   .     A
C318   I352    2.159   .     S
C319   I353    2.157   .     S
C320   I354    2.158   .     S
C321   I355    2.158   .     S
C322   I356    2.157   .     S
C322   C225    1.402   1_556 S
C323   I342    2.158   .     S
C323   C224    1.402   1_554 S
C324   I343    2.158   .     S
C324   C227    1.402   1_556 S
H325   O405    0.988   .     S
H326   O415    0.988   .     S
H327   O416    0.988   .     S
H328   O417    0.988   .     S
H329   O418    0.988   .     S
H330   O419    0.988   .     S
H331   O420    0.988   .     S
H332   O421    0.988   .     S
H333   O406    0.988   .     S
H334   O407    0.988   .     S
H335   O408    0.988   .     S
H336   O409    0.988   .     S
H337   O410    0.988   .     S
H338   O411    0.988   .     S
H339   O413    0.988   .     S
H340   O414    0.988   .     S
O357   Zn425   1.935   .     S
O357   Zn872   1.936   1_545 S
O357   Zn436   1.936   .     S
O357   Zn428   1.936   .     S
O358   Zn427   1.948   .     S
O358   C677    1.269   .     S
O359   Zn430   1.948   .     S
O359   C28     1.269   1_655 S
O360   Zn429   1.948   .     S
O361   Zn439   1.948   .     S
O362   Zn438   1.948   .     S
O363   Zn433   1.948   .     S
O364   Zn425   1.948   .     S
O365   Zn435   1.948   .     S
O366   Zn434   1.948   .     S
O367   Zn437   1.948   .     S
O368   Zn433   1.935   .     S
O368   Zn867   1.936   1_545 S
O368   Zn437   1.936   .     S
O368   Zn431   1.936   .     S
O369   Zn436   1.948   .     S
O370   Zn428   1.916   .     S
O371   Zn427   1.916   .     S
O372   Zn430   1.916   .     S
O373   Zn429   1.916   .     S
O374   Zn432   1.916   .     S
O375   Zn431   1.916   .     S
O376   Zn426   1.916   .     S
O377   Zn440   1.916   .     S
O378   Zn427   1.916   .     S
O379   Zn434   1.936   .     S
O379   Zn438   1.936   .     S
O379   Zn426   1.935   .     S
O380   Zn428   1.916   .     S
O381   Zn440   1.916   .     S
O382   Zn426   1.916   .     S
O383   Zn431   1.916   .     S
O384   Zn432   1.916   .     S
O385   Zn429   1.916   .     S
O386   Zn430   1.916   .     S
O387   Zn215   1.916   1_655 S
O388   Zn434   1.916   .     S
O389   Zn877   1.916   .     S
O390   Zn435   1.936   .     S
O390   Zn439   1.936   .     S
O390   Zn429   1.936   .     S
O391   Zn436   1.916   .     S
O392   Zn439   1.916   .     S
O393   Zn218   1.916   1_655 S
O394   Zn433   1.916   .     S
O395   Zn865   1.916   .     S
O396   Zn214   1.916   1_655 S
O397   Zn435   1.916   .     S
O398   Zn425   1.916   .     S
O399   Zn873   1.916   .     S
O400   Zn438   1.916   .     S
O401   Zn432   1.948   .     S
O401   C661    1.269   .     S
O402   Zn219   1.916   1_655 S
O403   Zn876   1.916   .     S
O404   Zn437   1.916   .     S
O406   C42     1.385   1_655 S
O407   C703    1.385   .     S
O411   C707    1.385   1_545 S
O412   Zn431   1.948   .     S
O422   Zn426   1.948   .     S
O423   C39     1.268   1_655 A
O423   Zn440   1.948   .     S
O424   Zn428   1.948   .     S
Zn425  O835    1.916   1_545 S
Zn427  O808    1.936   .     S
Zn430  O159    1.936   1_655 S
Zn432  O797    1.936   .     S
Zn433  O839    1.916   1_545 S
Zn436  O843    1.916   1_545 S
Zn437  O829    1.916   1_545 S
Zn440  O170    1.935   1_655 S
C441   O644    1.269   .     A
C441   C500    1.457   .     S
C442   O619    1.276   .     A
C442   C476    1.423   .     S
C442   O591    1.276   .     A
C443   C519    1.417   .     A
C443   I564    2.157   .     S
C443   C446    1.402   1_554 S
C444   C520    1.417   .     A
C444   I565    2.157   .     S
C444   C543    1.402   1_556 S
C445   I566    2.158   .     S
C445   C521    1.418   .     A
C445   C542    1.402   1_554 S
C446   C522    1.418   .     A
C446   I567    2.158   .     S
C446   C443    1.402   1_556 S
C447   I568    2.157   .     S
C447   C524    1.417   .     A
C447   C544    1.402   1_554 S
C448   O592    1.276   .     A
C448   C475    1.423   .     S
C448   O616    1.276   .     A
C449   C474    1.423   .     S
C449   O617    1.276   .     A
C449   O593    1.276   .     A
C450   O594    1.276   .     A
C450   O623    1.276   .     A
C450   C473    1.423   .     S
C451   O595    1.276   .     A
C451   C472    1.423   .     S
C451   O624    1.276   .     A
C452   C480    1.423   .     S
C452   O620    1.276   .     A
C452   O596    1.276   .     A
C453   O597    1.276   .     A
C453   C478    1.423   .     S
C453   O622    1.276   .     A
C454   O598    1.276   .     A
C454   O609    1.276   .     A
C454   C469    1.423   .     S
C455   C467    1.423   .     S
C455   O611    1.276   .     A
C455   O600    1.276   .     A
C456   O607    1.276   .     A
C456   C466    1.423   .     S
C456   O601    1.276   .     A
C457   O632    1.269   .     A
C457   C502    1.459   .     S
C458   C465    1.423   .     S
C458   O608    1.276   .     A
C458   O602    1.276   .     A
C459   O603    1.276   .     A
C459   C464    1.423   .     S
C459   O614    1.276   .     A
C460   O615    1.276   .     A
C460   O604    1.276   .     A
C460   C463    1.423   .     S
C461   O605    1.276   .     A
C461   O612    1.276   .     A
C461   C471    1.423   .     S
C462   O613    1.276   .     A
C462   C470    1.423   .     S
C462   O606    1.276   .     A
C463   C480    1.199   .     T
C464   C478    1.199   .     T
C465   C477    1.199   .     T
C466   C476    1.199   .     T
C467   C475    1.199   .     T
C468   O642    1.269   .     A
C468   C498    1.459   .     S
C468   O799    1.269   1_455 S
C469   C474    1.199   .     T
C470   C473    1.199   .     T
C471   C472    1.199   .     T
C477   C534    1.423   .     S
C479   O863    1.268   1_455 A
C479   C719    1.457   1_455 S
C479   O580    1.269   .     S
C481   C511    1.411   .     A
C481   O625    1.384   .     S
C481   C718    1.411   .     S
C482   C513    1.411   .     A
C482   C719    1.409   1_455 S
C482   O846    1.385   1_455 S
C483   C514    1.411   .     A
C483   C500    1.409   .     A
C484   C515    1.411   .     A
C484   O628    1.384   .     S
C484   C62     1.411   1_565 S
C485   C507    1.411   .     A
C485   C498    1.412   .     A
C485   O629    1.385   .     S
C486   C508    1.411   .     A
C486   C499    1.409   .     A
C486   O850    1.385   .     S
C487   C509    1.411   .     A
C487   C60     1.409   1_565 S
C487   O191    1.385   1_565 S
C488   O633    1.384   .     S
C488   C502    1.411   .     A
C488   C510    1.411   .     A
C489   C503    1.409   .     A
C489   O634    1.385   .     S
C489   C520    1.411   .     A
C490   O581    1.269   .     A
C490   O585    1.269   .     A
C490   C505    1.459   .     S
C491   C521    1.411   .     A
C491   C64     1.411   1_565 A
C491   O635    1.384   .     S
C492   O636    1.384   .     S
C492   C522    1.411   .     A
C492   C725    1.411   .     A
C493   C524    1.411   .     A
C493   O637    1.385   .     S
C493   C506    1.409   .     S
C494   C516    1.411   .     A
C494   O638    1.385   .     S
C494   C63     1.409   1_565 S
C495   C517    1.411   .     A
C495   O639    1.384   .     S
C495   C504    1.411   .     S
C496   C518    1.411   .     A
C496   O640    1.384   .     S
C496   C505    1.411   .     S
C497   C726    1.409   .     A
C497   C519    1.411   .     A
C497   O641    1.385   .     S
C498   C701    1.411   1_455 S
C499   C699    1.457   .     S
C499   C702    1.409   .     S
C501   C506    1.457   .     S
C501   O582    1.269   .     S
C501   O586    1.269   .     S
C503   C512    1.457   .     S
C504   C523    1.459   .     S
C505   C712    1.411   1_455 A
C506   C717    1.409   1_455 A
C507   C533    1.418   .     A
C507   C745    1.422   1_455 S
C508   C526    1.422   .     A
C508   C535    1.417   .     A
C509   C536    1.417   .     A
C509   C87     1.422   1_565 S
C510   C528    1.422   .     A
C510   C537    1.418   .     A
C511   C525    1.422   .     A
C511   C538    1.419   .     A
C512   O583    1.269   .     A
C512   O587    1.269   .     A
C513   C539    1.417   .     A
C513   C746    1.422   1_455 S
C514   C540    1.417   .     A
C514   C527    1.422   .     A
C515   C541    1.418   .     A
C515   C88     1.422   1_565 S
C516   C542    1.417   .     A
C516   C89     1.422   1_565 S
C517   C543    1.418   .     A
C517   C530    1.422   .     S
C518   C544    1.418   .     A
C518   C531    1.422   .     A
C519   C752    1.422   .     S
C520   C529    1.422   .     A
C521   C90     1.422   1_565 A
C522   C751    1.422   .     S
C523   O584    1.269   .     A
C523   O589    1.269   .     A
C524   C532    1.422   .     A
C525   C526    1.416   .     A
C525   C727    1.422   .     S
C526   C733    1.422   .     S
C527   C528    1.416   .     A
C529   C530    1.416   1_556 S
C530   C529    1.416   1_554 S
C531   C742    1.422   1_455 S
C531   C532    1.416   1_556 S
C532   C739    1.422   1_455 S
C532   C531    1.416   1_554 S
C533   I561    2.159   .     S
C533   C539    1.401   .     A
C534   O618    1.276   .     A
C534   O590    1.276   .     A
C535   C538    1.401   .     A
C535   I569    2.158   .     S
C536   C541    1.401   .     A
C536   I570    2.158   .     S
C537   I571    2.158   .     S
C537   C540    1.401   .     A
C538   I572    2.159   .     S
C539   I573    2.157   .     S
C540   I574    2.158   .     S
C541   I575    2.158   .     S
C542   I576    2.157   .     S
C542   C445    1.402   1_556 S
C543   I562    2.158   .     S
C543   C444    1.402   1_554 S
C544   I563    2.158   .     S
C544   C447    1.402   1_556 S
H545   O625    0.988   .     S
H546   O635    0.988   .     S
H547   O636    0.988   .     S
H548   O637    0.988   .     S
H549   O638    0.988   .     S
H550   O639    0.988   .     S
H551   O640    0.988   .     S
H552   O641    0.988   .     S
H553   O626    0.988   .     S
H554   O627    0.988   .     S
H555   O628    0.988   .     S
H556   O629    0.988   .     S
H557   O630    0.988   .     S
H558   O631    0.988   .     S
H559   O633    0.988   .     S
H560   O634    0.988   .     S
O577   Zn645   1.935   .     S
O577   Zn656   1.936   .     S
O577   Zn648   1.936   .     S
O578   Zn647   1.948   .     S
O578   C17     1.269   1_565 S
O579   Zn650   1.948   .     S
O579   C688    1.269   .     S
O580   Zn649   1.948   .     S
O581   Zn659   1.948   .     S
O582   Zn658   1.948   .     S
O583   Zn653   1.948   .     S
O584   Zn645   1.948   .     S
O585   Zn655   1.948   .     S
O586   Zn654   1.948   .     S
O587   Zn657   1.948   .     S
O588   Zn653   1.935   .     S
O588   Zn657   1.936   .     S
O588   Zn651   1.936   .     S
O589   Zn656   1.948   .     S
O590   Zn648   1.916   .     S
O591   Zn647   1.916   .     S
O592   Zn650   1.916   .     S
O593   Zn649   1.916   .     S
O594   Zn652   1.916   .     S
O595   Zn651   1.916   .     S
O596   Zn646   1.916   .     S
O597   Zn660   1.916   .     S
O598   Zn647   1.916   .     S
O599   Zn654   1.936   .     S
O599   Zn658   1.936   .     S
O599   Zn646   1.935   .     S
O599   Zn870   1.936   1_455 S
O600   Zn648   1.916   .     S
O601   Zn660   1.916   .     S
O602   Zn646   1.916   .     S
O603   Zn651   1.916   .     S
O604   Zn652   1.916   .     S
O605   Zn649   1.916   .     S
O606   Zn650   1.916   .     S
O607   Zn875   1.916   .     S
O608   Zn654   1.916   .     S
O609   Zn217   1.916   1_565 S
O610   Zn655   1.936   .     S
O610   Zn659   1.936   .     S
O610   Zn649   1.936   .     S
O610   Zn880   1.935   1_455 S
O611   Zn656   1.916   .     S
O612   Zn659   1.916   .     S
O613   Zn878   1.916   .     S
O614   Zn653   1.916   .     S
O615   Zn205   1.916   1_565 S
O616   Zn874   1.916   .     S
O617   Zn655   1.916   .     S
O618   Zn645   1.916   .     S
O619   Zn213   1.916   1_565 S
O620   Zn658   1.916   .     S
O621   Zn652   1.948   .     S
O621   C1      1.269   1_565 S
O622   Zn879   1.916   .     S
O623   Zn216   1.916   1_565 S
O624   Zn657   1.916   .     S
O626   C702    1.385   .     S
O627   C43     1.385   1_565 S
O630   C706    1.385   1_455 S
O632   Zn651   1.948   .     S
O642   Zn646   1.948   .     S
O643   C699    1.268   .     A
O643   Zn660   1.948   .     S
O644   Zn648   1.948   .     S
Zn647  O148    1.936   1_565 S
Zn650  O819    1.936   .     S
Zn652  O137    1.936   1_565 S
Zn654  O836    1.916   1_455 S
Zn655  O827    1.916   1_455 S
Zn658  O833    1.916   1_455 S
Zn659  O842    1.916   1_455 S
Zn660  O830    1.935   .     S
C661   O864    1.269   .     A
C661   C720    1.457   .     S
C662   O839    1.276   .     A
C662   C696    1.423   .     S
C662   O811    1.276   .     A
C663   C739    1.417   .     A
C663   I784    2.157   .     S
C663   C666    1.402   1_554 S
C664   C740    1.417   .     A
C664   I785    2.157   .     S
C664   C763    1.402   1_556 S
C665   I786    2.158   .     S
C665   C741    1.418   .     A
C665   C762    1.402   1_554 S
C666   C742    1.418   .     A
C666   I787    2.158   .     S
C666   C663    1.402   1_556 S
C667   I788    2.157   .     S
C667   C744    1.417   .     A
C667   C764    1.402   1_554 S
C668   O812    1.276   .     A
C668   C695    1.423   .     S
C668   O836    1.276   .     A
C669   C694    1.423   .     S
C669   O837    1.276   .     A
C669   O813    1.276   .     A
C670   O814    1.276   .     A
C670   O843    1.276   .     A
C670   C693    1.423   .     S
C671   O815    1.276   .     A
C671   C692    1.423   .     S
C671   O844    1.276   .     A
C672   C700    1.423   .     S
C672   O840    1.276   .     A
C672   O816    1.276   .     A
C673   O817    1.276   .     A
C673   C698    1.423   .     S
C673   O842    1.276   .     A
C674   O818    1.276   .     A
C674   O829    1.276   .     A
C674   C689    1.423   .     S
C675   C687    1.423   .     S
C675   O831    1.276   .     A
C675   O820    1.276   .     A
C676   O827    1.276   .     A
C676   C686    1.423   .     S
C676   O821    1.276   .     A
C677   O852    1.269   .     A
C677   C722    1.459   .     S
C678   C685    1.423   .     S
C678   O828    1.276   .     A
C678   O822    1.276   .     A
C679   O823    1.276   .     A
C679   C684    1.423   .     S
C679   O834    1.276   .     A
C680   O835    1.276   .     A
C680   O824    1.276   .     A
C680   C683    1.423   .     S
C681   O825    1.276   .     A
C681   O832    1.276   .     A
C681   C691    1.423   .     S
C682   O833    1.276   .     A
C682   C690    1.423   .     S
C682   O826    1.276   .     A
C683   C700    1.199   .     T
C684   C698    1.199   .     T
C685   C697    1.199   .     T
C686   C696    1.199   .     T
C687   C695    1.199   .     T
C688   O862    1.269   .     A
C688   C718    1.459   .     S
C689   C694    1.199   .     T
C690   C693    1.199   .     T
C691   C692    1.199   .     T
C697   C754    1.423   .     S
C699   O800    1.269   .     S
C701   C731    1.411   .     A
C701   O845    1.384   .     S
C701   C498    1.411   1_655 S
C702   C733    1.411   .     A
C703   C734    1.411   .     A
C703   C720    1.409   .     A
C704   C735    1.411   .     A
C704   O848    1.384   .     S
C704   C282    1.411   1_565 S
C705   C727    1.411   .     A
C705   C718    1.412   .     A
C705   O849    1.385   .     S
C706   C728    1.411   .     A
C706   C719    1.409   .     A
C706   O630    1.385   1_655 S
C707   C729    1.411   .     A
C707   C280    1.409   1_565 S
C707   O411    1.385   1_565 S
C708   O853    1.384   .     S
C708   C722    1.411   .     A
C708   C730    1.411   .     A
C709   C723    1.409   .     A
C709   O854    1.385   .     S
C709   C740    1.411   .     A
C710   O801    1.269   .     A
C710   O805    1.269   .     A
C710   C725    1.459   .     S
C711   C741    1.411   .     A
C711   C284    1.411   1_565 A
C711   O855    1.384   .     S
C712   O856    1.384   .     S
C712   C742    1.411   .     A
C712   C505    1.411   1_655 A
C713   C744    1.411   .     A
C713   O857    1.385   .     S
C713   C726    1.409   .     S
C714   C736    1.411   .     A
C714   O858    1.385   .     S
C714   C283    1.409   1_565 S
C715   C737    1.411   .     A
C715   O859    1.384   .     S
C715   C724    1.411   .     S
C716   C738    1.411   .     A
C716   O860    1.384   .     S
C716   C725    1.411   .     S
C717   C506    1.409   1_655 A
C717   C739    1.411   .     A
C717   O861    1.385   .     S
C719   C479    1.457   1_655 S
C719   C482    1.409   1_655 S
C721   C726    1.457   .     S
C721   O802    1.269   .     S
C721   O806    1.269   .     S
C723   C732    1.457   .     S
C724   C743    1.459   .     S
C727   C753    1.418   .     A
C728   C746    1.422   .     A
C728   C755    1.417   .     A
C729   C756    1.417   .     A
C729   C307    1.422   1_565 S
C730   C748    1.422   .     A
C730   C757    1.418   .     A
C731   C745    1.422   .     A
C731   C758    1.419   .     A
C732   O803    1.269   .     A
C732   O807    1.269   .     A
C733   C759    1.417   .     A
C734   C760    1.417   .     A
C734   C747    1.422   .     A
C735   C761    1.418   .     A
C735   C308    1.422   1_565 S
C736   C762    1.417   .     A
C736   C309    1.422   1_565 S
C737   C763    1.418   .     A
C737   C750    1.422   .     S
C738   C764    1.418   .     A
C738   C751    1.422   .     A
C739   C532    1.422   1_655 S
C740   C749    1.422   .     A
C741   C310    1.422   1_565 A
C742   C531    1.422   1_655 S
C743   O804    1.269   .     A
C743   O809    1.269   .     A
C744   C752    1.422   .     A
C745   C746    1.416   .     A
C745   C507    1.422   1_655 S
C746   C513    1.422   1_655 S
C747   C748    1.416   .     A
C749   C750    1.416   1_556 S
C750   C749    1.416   1_554 S
C751   C752    1.416   1_556 S
C752   C751    1.416   1_554 S
C753   I781    2.159   .     S
C753   C759    1.401   .     A
C754   O838    1.276   .     A
C754   O810    1.276   .     A
C755   C758    1.401   .     A
C755   I789    2.158   .     S
C756   C761    1.401   .     A
C756   I790    2.158   .     S
C757   I791    2.158   .     S
C757   C760    1.401   .     A
C758   I792    2.159   .     S
C759   I793    2.157   .     S
C760   I794    2.158   .     S
C761   I795    2.158   .     S
C762   I796    2.157   .     S
C762   C665    1.402   1_556 S
C763   I782    2.158   .     S
C763   C664    1.402   1_554 S
C764   I783    2.158   .     S
C764   C667    1.402   1_556 S
H765   O845    0.988   .     S
H766   O855    0.988   .     S
H767   O856    0.988   .     S
H768   O857    0.988   .     S
H769   O858    0.988   .     S
H770   O859    0.988   .     S
H771   O860    0.988   .     S
H772   O861    0.988   .     S
H773   O846    0.988   .     S
H774   O847    0.988   .     S
H775   O848    0.988   .     S
H776   O849    0.988   .     S
H777   O850    0.988   .     S
H778   O851    0.988   .     S
H779   O853    0.988   .     S
H780   O854    0.988   .     S
O797   Zn865   1.935   .     S
O797   Zn876   1.936   .     S
O797   Zn868   1.936   .     S
O798   Zn867   1.948   .     S
O798   C237    1.269   1_565 S
O799   Zn870   1.948   .     S
O799   C468    1.269   1_655 S
O800   Zn869   1.948   .     S
O801   Zn879   1.948   .     S
O802   Zn878   1.948   .     S
O803   Zn873   1.948   .     S
O804   Zn865   1.948   .     S
O805   Zn875   1.948   .     S
O806   Zn874   1.948   .     S
O807   Zn877   1.948   .     S
O808   Zn873   1.935   .     S
O808   Zn877   1.936   .     S
O808   Zn871   1.936   .     S
O809   Zn876   1.948   .     S
O810   Zn868   1.916   .     S
O811   Zn867   1.916   .     S
O812   Zn870   1.916   .     S
O813   Zn869   1.916   .     S
O814   Zn872   1.916   .     S
O815   Zn871   1.916   .     S
O816   Zn866   1.916   .     S
O817   Zn880   1.916   .     S
O818   Zn867   1.916   .     S
O819   Zn874   1.936   .     S
O819   Zn878   1.936   .     S
O819   Zn866   1.935   .     S
O820   Zn868   1.916   .     S
O821   Zn880   1.916   .     S
O822   Zn866   1.916   .     S
O823   Zn871   1.916   .     S
O824   Zn872   1.916   .     S
O825   Zn869   1.916   .     S
O826   Zn870   1.916   .     S
O827   Zn655   1.916   1_655 S
O828   Zn874   1.916   .     S
O829   Zn437   1.916   1_565 S
O830   Zn875   1.936   .     S
O830   Zn879   1.936   .     S
O830   Zn869   1.936   .     S
O831   Zn876   1.916   .     S
O832   Zn879   1.916   .     S
O833   Zn658   1.916   1_655 S
O834   Zn873   1.916   .     S
O835   Zn425   1.916   1_565 S
O836   Zn654   1.916   1_655 S
O837   Zn875   1.916   .     S
O838   Zn865   1.916   .     S
O839   Zn433   1.916   1_565 S
O840   Zn878   1.916   .     S
O841   Zn872   1.948   .     S
O841   C221    1.269   1_565 S
O842   Zn659   1.916   1_655 S
O843   Zn436   1.916   1_565 S
O844   Zn877   1.916   .     S
O846   C482    1.385   1_655 S
O847   C263    1.385   1_565 S
O852   Zn871   1.948   .     S
O862   Zn866   1.948   .     S
O863   C479    1.268   1_655 A
O863   Zn880   1.948   .     S
O864   Zn868   1.948   .     S
Zn867  O368    1.936   1_565 S
Zn870  O599    1.936   1_655 S
Zn872  O357    1.936   1_565 S
Zn880  O610    1.935   1_655 S
