data_str_m1_o1_o17_pcu_sym.120
_audit_creation_date              2020-01-03
_audit_creation_method            'Materials Studio'
_symmetry_space_group_name_H-M    'P1'
_symmetry_Int_Tables_number       1
_symmetry_cell_setting            triclinic
loop_
_symmetry_equiv_pos_as_xyz
  x,y,z
_cell_length_a                    36.6865
_cell_length_b                    36.6865
_cell_length_c                    34.3663
_cell_angle_alpha                 90.0006
_cell_angle_beta                  90.0006
_cell_angle_gamma                 89.9983
loop_
_atom_site_label
_atom_site_type_symbol
_atom_site_fract_x
_atom_site_fract_y
_atom_site_fract_z
_atom_site_U_iso_or_equiv
_atom_site_adp_type
_atom_site_occupancy
C1     C     0.49221   0.28226   0.41799   0.00000  Uiso   1.00
C2     C     0.24497   0.46719   0.08209   0.00000  Uiso   1.00
C3     C     0.21632   0.49999   0.54128   0.00000  Uiso   1.00
C4     C     0.49693   0.28353   0.45881   0.00000  Uiso   1.00
C5     C     0.49970   0.21632   0.54127   0.00000  Uiso   1.00
C6     C     0.21649   0.00342   0.45882   0.00000  Uiso   1.00
C7     C     0.28368   0.00005   0.54128   0.00000  Uiso   1.00
C8     C     0.25313   0.46647   0.95881   0.00000  Uiso   1.00
C9     C     0.25030   0.03368   0.04127   0.00000  Uiso   1.00
C10    C     0.03352   0.24661   0.95882   0.00000  Uiso   1.00
C11    C     0.46632   0.24991   0.04128   0.00000  Uiso   1.00
C12    C     0.24688   0.03353   0.95881   0.00000  Uiso   1.00
C13    C     0.46780   0.25806   0.91800   0.00000  Uiso   1.00
C14    C     0.24970   0.46632   0.04127   0.00000  Uiso   1.00
C15    C     0.46650   0.25335   0.95881   0.00000  Uiso   1.00
C16    C     0.03368   0.25003   0.04128   0.00000  Uiso   1.00
C17    C     0.09816   0.34811   0.24996   0.00000  Uiso   1.00
C18    C     0.40189   0.15184   0.74996   0.00000  Uiso   1.00
C19    C     0.15184   0.09811   0.25004   0.00000  Uiso   1.00
C20    C     0.34811   0.40184   0.75004   0.00000  Uiso   1.00
C21    C     0.40184   0.15189   0.24996   0.00000  Uiso   1.00
C22    C     0.09811   0.34816   0.74996   0.00000  Uiso   1.00
C23    C     0.34816   0.40189   0.25004   0.00000  Uiso   1.00
C24    C     0.03285   0.25478   0.08210   0.00000  Uiso   1.00
C25    C     0.15189   0.09816   0.75004   0.00000  Uiso   1.00
C26    C     0.09816   0.15189   0.75004   0.00000  Uiso   1.00
C27    C     0.40189   0.34816   0.25004   0.00000  Uiso   1.00
C28    C     0.15184   0.40189   0.74996   0.00000  Uiso   1.00
C29    C     0.34811   0.09816   0.24996   0.00000  Uiso   1.00
C30    C     0.40184   0.34811   0.75004   0.00000  Uiso   1.00
C31    C     0.09811   0.15184   0.25004   0.00000  Uiso   1.00
C32    C     0.34816   0.09811   0.74996   0.00000  Uiso   1.00
C33    C     0.15189   0.40184   0.24996   0.00000  Uiso   1.00
C34    C     0.00003   0.25000   0.47944   0.00000  Uiso   1.00
C35    C     0.25783   0.46773   0.91799   0.00000  Uiso   1.00
C36    C     0.00003   0.25000   0.52063   0.00000  Uiso   1.00
C37    C     0.25000   0.00002   0.47945   0.00000  Uiso   1.00
C38    C     0.25000   0.00002   0.52064   0.00000  Uiso   1.00
C39    C     0.25000  -0.00000   0.97944   0.00000  Uiso   1.00
C40    C     0.25000  -0.00000   0.02064   0.00000  Uiso   1.00
C41    C     0.00001   0.24998   0.97945   0.00000  Uiso   1.00
C42    C     0.00000   0.24997   0.02064   0.00000  Uiso   1.00
C43    C     0.25502   0.03281   0.08209   0.00000  Uiso   1.00
C44    C     0.03222   0.24194   0.91800   0.00000  Uiso   1.00
C45    C     0.46715   0.24519   0.08210   0.00000  Uiso   1.00
C46    C     0.00000   0.24999   0.39805   0.00000  Uiso   1.00
C47    C     0.00000   0.25000   0.60200   0.00000  Uiso   1.00
C48    C     0.24999   0.00000   0.39805   0.00000  Uiso   1.00
C49    C     0.49495   0.21719   0.58209   0.00000  Uiso   1.00
C50    C     0.25000   0.00000   0.60201   0.00000  Uiso   1.00
C51    C     0.25000  -0.00000   0.89805   0.00000  Uiso   1.00
C52    C     0.25000  -0.00000   0.10200   0.00000  Uiso   1.00
C53    C     0.00001   0.25000   0.89805   0.00000  Uiso   1.00
C54    C    -0.00000   0.25000   0.10201   0.00000  Uiso   1.00
C55    C     0.00235   0.18320   0.47971   0.00000  Uiso   1.00
C56    C     0.49691   0.31676   0.52036   0.00000  Uiso   1.00
C57    C     0.31676   0.49714   0.47971   0.00000  Uiso   1.00
C58    C     0.18327   0.00376   0.52038   0.00000  Uiso   1.00
C59    C     0.49774   0.31678   0.47970   0.00000  Uiso   1.00
C60    C     0.21779   0.00810   0.41800   0.00000  Uiso   1.00
C61    C     0.00318   0.18324   0.52037   0.00000  Uiso   1.00
C62    C     0.18323   0.00293   0.47972   0.00000  Uiso   1.00
C63    C     0.31673   0.49631   0.52037   0.00000  Uiso   1.00
C64    C     0.25237   0.43321   0.97971   0.00000  Uiso   1.00
C65    C     0.24680   0.06676   0.02037   0.00000  Uiso   1.00
C66    C     0.06678   0.24713   0.97973   0.00000  Uiso   1.00
C67    C     0.43327   0.25363   0.02037   0.00000  Uiso   1.00
C68    C     0.24764   0.06679   0.97971   0.00000  Uiso   1.00
C69    C     0.25320   0.43324   0.02037   0.00000  Uiso   1.00
C70    C     0.43324   0.25280   0.97971   0.00000  Uiso   1.00
C71    C     0.28285   0.00477   0.58210   0.00000  Uiso   1.00
C72    C     0.06673   0.24629   0.02039   0.00000  Uiso   1.00
C73    C     0.25000  -0.00000   0.35574   0.00000  Uiso   1.00
C74    C     0.25000  -0.00000   0.64428   0.00000  Uiso   1.00
C75    C     0.00000   0.25000   0.35574   0.00000  Uiso   1.00
C76    C     0.00000   0.25000   0.64428   0.00000  Uiso   1.00
C77    C     0.00000   0.25000   0.85574   0.00000  Uiso   1.00
C78    C    -0.00000   0.25000   0.14428   0.00000  Uiso   1.00
C79    C     0.25000  -0.00000   0.85574   0.00000  Uiso   1.00
C80    C     0.25000  -0.00000   0.14428   0.00000  Uiso   1.00
C81    C     0.17992   0.07006   0.25001   0.00000  Uiso   1.00
C82    C     0.00782   0.21772   0.41799   0.00000  Uiso   1.00
C83    C     0.32006   0.42992   0.75001   0.00000  Uiso   1.00
C84    C     0.42992   0.17994   0.24999   0.00000  Uiso   1.00
C85    C     0.07006   0.32008   0.74999   0.00000  Uiso   1.00
C86    C     0.32008   0.42994   0.25001   0.00000  Uiso   1.00
C87    C     0.17994   0.07008   0.75001   0.00000  Uiso   1.00
C88    C     0.07008   0.32006   0.24999   0.00000  Uiso   1.00
C89    C     0.42994   0.17992   0.74999   0.00000  Uiso   1.00
C90    C     0.17992   0.42994   0.74999   0.00000  Uiso   1.00
C91    C     0.32006   0.07008   0.24999   0.00000  Uiso   1.00
C92    C     0.42992   0.32006   0.75001   0.00000  Uiso   1.00
C93    C     0.00507   0.28281   0.58209   0.00000  Uiso   1.00
C94    C     0.07006   0.17992   0.25001   0.00000  Uiso   1.00
C95    C     0.32008   0.07006   0.74999   0.00000  Uiso   1.00
C96    C     0.17994   0.42992   0.24999   0.00000  Uiso   1.00
C97    C     0.07008   0.17994   0.75001   0.00000  Uiso   1.00
C98    C     0.42994   0.32008   0.25001   0.00000  Uiso   1.00
C99    C     0.12209   0.40464   0.22461   0.00000  Uiso   1.00
C100   C     0.37797   0.09530   0.77529   0.00000  Uiso   1.00
C101   C     0.09536   0.12208   0.22462   0.00000  Uiso   1.00
C102   C     0.40458   0.37785   0.77548   0.00000  Uiso   1.00
C103   C     0.37791   0.09536   0.22461   0.00000  Uiso   1.00
C104   C     0.28219   0.49192   0.41800   0.00000  Uiso   1.00
C105   C     0.12203   0.40470   0.77530   0.00000  Uiso   1.00
C106   C     0.40464   0.37791   0.22462   0.00000  Uiso   1.00
C107   C     0.09543   0.12215   0.77549   0.00000  Uiso   1.00
C108   C     0.12215   0.09543   0.77549   0.00000  Uiso   1.00
C109   C     0.37792   0.40464   0.22462   0.00000  Uiso   1.00
C110   C     0.09530   0.37797   0.77530   0.00000  Uiso   1.00
C111   C     0.40464   0.12208   0.22461   0.00000  Uiso   1.00
C112   C     0.37785   0.40458   0.77548   0.00000  Uiso   1.00
C113   C     0.12208   0.09536   0.22462   0.00000  Uiso   1.00
C114   C     0.40470   0.12203   0.77530   0.00000  Uiso   1.00
C115   C     0.21715   0.49525   0.58210   0.00000  Uiso   1.00
C116   C     0.09536   0.37791   0.22461   0.00000  Uiso   1.00
C117   C     0.37209   0.15464   0.72461   0.00000  Uiso   1.00
C118   C     0.12797   0.34530   0.27530   0.00000  Uiso   1.00
C119   C     0.34536   0.37208   0.72462   0.00000  Uiso   1.00
C120   C     0.15458   0.12785   0.27548   0.00000  Uiso   1.00
C121   C     0.12791   0.34536   0.72461   0.00000  Uiso   1.00
C122   C     0.37203   0.15470   0.27530   0.00000  Uiso   1.00
C123   C     0.15464   0.12792   0.72462   0.00000  Uiso   1.00
C124   C     0.34543   0.37215   0.27549   0.00000  Uiso   1.00
C125   C     0.37215   0.34543   0.27549   0.00000  Uiso   1.00
C126   C     0.24218   0.03227   0.91799   0.00000  Uiso   1.00
C127   C     0.12792   0.15464   0.72462   0.00000  Uiso   1.00
C128   C     0.34530   0.12797   0.27529   0.00000  Uiso   1.00
C129   C     0.15464   0.37208   0.72461   0.00000  Uiso   1.00
C130   C     0.12785   0.15458   0.27548   0.00000  Uiso   1.00
C131   C     0.37208   0.34536   0.72462   0.00000  Uiso   1.00
C132   C     0.15470   0.37203   0.27530   0.00000  Uiso   1.00
C133   C     0.34536   0.12791   0.72461   0.00000  Uiso   1.00
C134   C     0.00313   0.21646   0.45881   0.00000  Uiso   1.00
C135   C     0.00036   0.28368   0.54127   0.00000  Uiso   1.00
C136   C     0.28350   0.49662   0.45881   0.00000  Uiso   1.00
Cl137  Cl    0.49403   0.14059   0.45693   0.00000  Uiso   1.00
Cl138  Cl    0.23504   0.10855   0.04316   0.00000  Uiso   1.00
Cl139  Cl    0.10946   0.25512   0.95696   0.00000  Uiso   1.00
Cl140  Cl    0.39155   0.26564   0.04316   0.00000  Uiso   1.00
Cl141  Cl    0.25597   0.10940   0.95693   0.00000  Uiso   1.00
Cl142  Cl    0.26494   0.39145   0.04316   0.00000  Uiso   1.00
Cl143  Cl    0.39058   0.24477   0.95691   0.00000  Uiso   1.00
Cl144  Cl    0.10843   0.23423   0.04319   0.00000  Uiso   1.00
Cl145  Cl    0.47290   0.31871   0.39087   0.00000  Uiso   1.00
Cl146  Cl    0.47865   0.17936   0.60929   0.00000  Uiso   1.00
Cl147  Cl    0.18150   0.02768   0.39086   0.00000  Uiso   1.00
Cl148  Cl    0.48523   0.35858   0.54314   0.00000  Uiso   1.00
Cl149  Cl    0.32083   0.02071   0.60932   0.00000  Uiso   1.00
Cl150  Cl    0.02710   0.18128   0.39085   0.00000  Uiso   1.00
Cl151  Cl    0.02135   0.32064   0.60931   0.00000  Uiso   1.00
Cl152  Cl    0.31848   0.47230   0.39089   0.00000  Uiso   1.00
Cl153  Cl    0.17918   0.47928   0.60930   0.00000  Uiso   1.00
Cl154  Cl    0.22287   0.06871   0.89086   0.00000  Uiso   1.00
Cl155  Cl    0.22872   0.42933   0.10930   0.00000  Uiso   1.00
Cl156  Cl    0.43150   0.27766   0.89089   0.00000  Uiso   1.00
Cl157  Cl    0.07081   0.27078   0.10930   0.00000  Uiso   1.00
Cl158  Cl    0.27715   0.43130   0.89086   0.00000  Uiso   1.00
Cl159  Cl    0.35943   0.00514   0.45692   0.00000  Uiso   1.00
Cl160  Cl    0.27126   0.07067   0.10930   0.00000  Uiso   1.00
Cl161  Cl    0.06853   0.22240   0.89085   0.00000  Uiso   1.00
Cl162  Cl    0.42920   0.22920   0.10931   0.00000  Uiso   1.00
Cl163  Cl    0.14158   0.01586   0.54319   0.00000  Uiso   1.00
Cl164  Cl    0.00612   0.35938   0.45690   0.00000  Uiso   1.00
Cl165  Cl    0.01490   0.14145   0.54318   0.00000  Uiso   1.00
Cl166  Cl    0.14054   0.49497   0.45695   0.00000  Uiso   1.00
Cl167  Cl    0.35844   0.48425   0.54316   0.00000  Uiso   1.00
Cl168  Cl    0.24405   0.39060   0.95692   0.00000  Uiso   1.00
H169   H     0.11938   0.42742   0.20477   0.00000  Uiso   1.00
H170   H     0.38057   0.42737   0.20472   0.00000  Uiso   1.00
H171   H     0.07252   0.38068   0.79513   0.00000  Uiso   1.00
H172   H     0.42742   0.11938   0.20477   0.00000  Uiso   1.00
H173   H     0.38051   0.42731   0.79539   0.00000  Uiso   1.00
H174   H     0.11942   0.07262   0.20472   0.00000  Uiso   1.00
H175   H     0.42748   0.11932   0.79513   0.00000  Uiso   1.00
H176   H     0.07258   0.38062   0.20477   0.00000  Uiso   1.00
H177   H     0.36938   0.17742   0.70477   0.00000  Uiso   1.00
H178   H     0.13068   0.32252   0.29513   0.00000  Uiso   1.00
H179   H     0.32262   0.36942   0.70472   0.00000  Uiso   1.00
H180   H     0.38068   0.07252   0.79513   0.00000  Uiso   1.00
H181   H     0.17731   0.13051   0.29539   0.00000  Uiso   1.00
H182   H     0.13062   0.32258   0.70477   0.00000  Uiso   1.00
H183   H     0.36932   0.17748   0.29513   0.00000  Uiso   1.00
H184   H     0.17738   0.13057   0.70472   0.00000  Uiso   1.00
H185   H     0.32269   0.36950   0.29539   0.00000  Uiso   1.00
H186   H     0.36950   0.32269   0.29539   0.00000  Uiso   1.00
H187   H     0.13057   0.17737   0.70472   0.00000  Uiso   1.00
H188   H     0.32252   0.13068   0.29513   0.00000  Uiso   1.00
H189   H     0.17742   0.36938   0.70477   0.00000  Uiso   1.00
H190   H     0.13051   0.17731   0.29539   0.00000  Uiso   1.00
H191   H     0.07262   0.11942   0.20472   0.00000  Uiso   1.00
H192   H     0.36942   0.32262   0.70472   0.00000  Uiso   1.00
H193   H     0.17748   0.36932   0.29513   0.00000  Uiso   1.00
H194   H     0.32258   0.13062   0.70477   0.00000  Uiso   1.00
H195   H     0.42731   0.38051   0.79539   0.00000  Uiso   1.00
H196   H     0.38062   0.07258   0.20477   0.00000  Uiso   1.00
H197   H     0.11932   0.42748   0.79513   0.00000  Uiso   1.00
H198   H     0.42738   0.38057   0.20472   0.00000  Uiso   1.00
H199   H     0.07269   0.11950   0.79539   0.00000  Uiso   1.00
H200   H     0.11950   0.07269   0.79539   0.00000  Uiso   1.00
O201   O     0.25000  -0.00000   0.25000   0.00000  Uiso   1.00
O202   O     0.25000   0.46963   0.66245   0.00000  Uiso   1.00
O203   O     0.46964   0.25000   0.33755   0.00000  Uiso   1.00
O204   O     0.03037   0.25000   0.66245   0.00000  Uiso   1.00
O205   O     0.00000   0.21963   0.83755   0.00000  Uiso   1.00
O206   O     0.00000   0.28036   0.16245   0.00000  Uiso   1.00
O207   O     0.28037  -0.00000   0.83755   0.00000  Uiso   1.00
O208   O     0.21964  -0.00000   0.16245   0.00000  Uiso   1.00
O209   O     0.00000   0.28036   0.83755   0.00000  Uiso   1.00
O210   O     0.00000   0.21963   0.16245   0.00000  Uiso   1.00
O211   O     0.21964  -0.00000   0.83755   0.00000  Uiso   1.00
O212   O     0.25000  -0.00000   0.75000   0.00000  Uiso   1.00
O213   O     0.28037  -0.00000   0.16245   0.00000  Uiso   1.00
O214   O     0.20725   0.07307   0.27302   0.00000  Uiso   1.00
O215   O     0.29276   0.42692   0.72698   0.00000  Uiso   1.00
O216   O     0.42693   0.20724   0.27302   0.00000  Uiso   1.00
O217   O     0.07308   0.29275   0.72698   0.00000  Uiso   1.00
O218   O     0.29276   0.42692   0.27302   0.00000  Uiso   1.00
O219   O     0.20725   0.07307   0.72698   0.00000  Uiso   1.00
O220   O     0.07308   0.29275   0.27302   0.00000  Uiso   1.00
O221   O     0.42693   0.20724   0.72698   0.00000  Uiso   1.00
O222   O     0.20725   0.42692   0.72698   0.00000  Uiso   1.00
O223   O     0.00000   0.25000   0.25000   0.00000  Uiso   1.00
O224   O     0.29276   0.07307   0.27302   0.00000  Uiso   1.00
O225   O     0.42693   0.29275   0.72698   0.00000  Uiso   1.00
O226   O     0.07308   0.20724   0.27302   0.00000  Uiso   1.00
O227   O     0.29276   0.07307   0.72698   0.00000  Uiso   1.00
O228   O     0.20725   0.42692   0.27302   0.00000  Uiso   1.00
O229   O     0.07308   0.20724   0.72698   0.00000  Uiso   1.00
O230   O     0.42693   0.29275   0.27302   0.00000  Uiso   1.00
O231   O     0.45725   0.32307   0.77302   0.00000  Uiso   1.00
O232   O     0.04276   0.17692   0.22698   0.00000  Uiso   1.00
O233   O     0.17693   0.45724   0.77302   0.00000  Uiso   1.00
O234   O     0.00000   0.25000   0.75000   0.00000  Uiso   1.00
O235   O     0.32308   0.04275   0.22698   0.00000  Uiso   1.00
O236   O     0.04276   0.17692   0.77302   0.00000  Uiso   1.00
O237   O     0.45725   0.32307   0.22698   0.00000  Uiso   1.00
O238   O     0.32308   0.04275   0.77302   0.00000  Uiso   1.00
O239   O     0.17693   0.45724   0.22698   0.00000  Uiso   1.00
O240   O     0.45725   0.17692   0.22698   0.00000  Uiso   1.00
O241   O     0.04276   0.32307   0.77302   0.00000  Uiso   1.00
O242   O     0.17693   0.04275   0.22698   0.00000  Uiso   1.00
O243   O     0.32308   0.45724   0.77302   0.00000  Uiso   1.00
O244   O     0.04276   0.32307   0.22698   0.00000  Uiso   1.00
O245   O     0.25000   0.46963   0.33755   0.00000  Uiso   1.00
O246   O     0.45725   0.17692   0.77302   0.00000  Uiso   1.00
O247   O     0.32308   0.45724   0.22698   0.00000  Uiso   1.00
O248   O     0.17693   0.04275   0.77302   0.00000  Uiso   1.00
O249   O     0.25000   0.03036   0.66245   0.00000  Uiso   1.00
O250   O     0.03037   0.25000   0.33755   0.00000  Uiso   1.00
O251   O     0.46964   0.25000   0.66245   0.00000  Uiso   1.00
O252   O     0.25000   0.03036   0.33755   0.00000  Uiso   1.00
Zn253  Zn    0.20660  -0.00000   0.21735   0.00000  Uiso   1.00
Zn254  Zn    0.04341   0.25000   0.28265   0.00000  Uiso   1.00
Zn255  Zn    0.25000   0.45659   0.71735   0.00000  Uiso   1.00
Zn256  Zn    0.25000   0.04340   0.28265   0.00000  Uiso   1.00
Zn257  Zn    0.04341   0.25000   0.71735   0.00000  Uiso   1.00
Zn258  Zn    0.45660   0.25000   0.28265   0.00000  Uiso   1.00
Zn259  Zn    0.25000   0.04340   0.71735   0.00000  Uiso   1.00
Zn260  Zn    0.25000   0.45659   0.28265   0.00000  Uiso   1.00
Zn261  Zn    0.29341  -0.00000   0.78265   0.00000  Uiso   1.00
Zn262  Zn    0.00000   0.20659   0.21735   0.00000  Uiso   1.00
Zn263  Zn    0.00000   0.29340   0.78265   0.00000  Uiso   1.00
Zn264  Zn    0.29341  -0.00000   0.21735   0.00000  Uiso   1.00
Zn265  Zn    0.20660  -0.00000   0.78265   0.00000  Uiso   1.00
Zn266  Zn    0.00000   0.29340   0.21735   0.00000  Uiso   1.00
Zn267  Zn    0.00000   0.20659   0.78265   0.00000  Uiso   1.00
Zn268  Zn    0.45660   0.25000   0.71735   0.00000  Uiso   1.00
C269   C     0.99221   0.28226   0.41799   0.00000  Uiso   1.00
C270   C     0.74497   0.46719   0.08209   0.00000  Uiso   1.00
C271   C     0.71632   0.49999   0.54128   0.00000  Uiso   1.00
C272   C     0.99693   0.28353   0.45881   0.00000  Uiso   1.00
C273   C     0.99970   0.21632   0.54127   0.00000  Uiso   1.00
C274   C     0.71649   0.00342   0.45882   0.00000  Uiso   1.00
C275   C     0.78368   0.00005   0.54128   0.00000  Uiso   1.00
C276   C     0.75313   0.46647   0.95881   0.00000  Uiso   1.00
C277   C     0.75030   0.03368   0.04127   0.00000  Uiso   1.00
C278   C     0.53352   0.24661   0.95882   0.00000  Uiso   1.00
C279   C     0.96632   0.24991   0.04128   0.00000  Uiso   1.00
C280   C     0.74688   0.03353   0.95881   0.00000  Uiso   1.00
C281   C     0.96780   0.25806   0.91800   0.00000  Uiso   1.00
C282   C     0.74970   0.46632   0.04127   0.00000  Uiso   1.00
C283   C     0.96650   0.25335   0.95881   0.00000  Uiso   1.00
C284   C     0.53368   0.25003   0.04128   0.00000  Uiso   1.00
C285   C     0.59816   0.34811   0.24996   0.00000  Uiso   1.00
C286   C     0.90189   0.15184   0.74996   0.00000  Uiso   1.00
C287   C     0.65184   0.09811   0.25004   0.00000  Uiso   1.00
C288   C     0.84811   0.40184   0.75004   0.00000  Uiso   1.00
C289   C     0.90184   0.15189   0.24996   0.00000  Uiso   1.00
C290   C     0.59811   0.34816   0.74996   0.00000  Uiso   1.00
C291   C     0.84816   0.40189   0.25004   0.00000  Uiso   1.00
C292   C     0.53285   0.25478   0.08210   0.00000  Uiso   1.00
C293   C     0.65189   0.09816   0.75004   0.00000  Uiso   1.00
C294   C     0.59816   0.15189   0.75004   0.00000  Uiso   1.00
C295   C     0.90189   0.34816   0.25004   0.00000  Uiso   1.00
C296   C     0.65184   0.40189   0.74996   0.00000  Uiso   1.00
C297   C     0.84811   0.09816   0.24996   0.00000  Uiso   1.00
C298   C     0.90184   0.34811   0.75004   0.00000  Uiso   1.00
C299   C     0.59811   0.15184   0.25004   0.00000  Uiso   1.00
C300   C     0.84816   0.09811   0.74996   0.00000  Uiso   1.00
C301   C     0.65189   0.40184   0.24996   0.00000  Uiso   1.00
C302   C     0.50003   0.25000   0.47944   0.00000  Uiso   1.00
C303   C     0.75783   0.46773   0.91799   0.00000  Uiso   1.00
C304   C     0.50003   0.25000   0.52063   0.00000  Uiso   1.00
C305   C     0.75000   0.00002   0.47945   0.00000  Uiso   1.00
C306   C     0.75000   0.00002   0.52064   0.00000  Uiso   1.00
C307   C     0.75000  -0.00000   0.97944   0.00000  Uiso   1.00
C308   C     0.75000  -0.00000   0.02064   0.00000  Uiso   1.00
C309   C     0.50001   0.24998   0.97945   0.00000  Uiso   1.00
C310   C     0.50000   0.24997   0.02064   0.00000  Uiso   1.00
C311   C     0.75502   0.03281   0.08209   0.00000  Uiso   1.00
C312   C     0.53222   0.24194   0.91800   0.00000  Uiso   1.00
C313   C     0.96715   0.24519   0.08210   0.00000  Uiso   1.00
C314   C     0.50000   0.24999   0.39805   0.00000  Uiso   1.00
C315   C     0.50000   0.25000   0.60200   0.00000  Uiso   1.00
C316   C     0.74999   0.00000   0.39805   0.00000  Uiso   1.00
C317   C     0.99495   0.21719   0.58209   0.00000  Uiso   1.00
C318   C     0.75000   0.00000   0.60201   0.00000  Uiso   1.00
C319   C     0.75000  -0.00000   0.89805   0.00000  Uiso   1.00
C320   C     0.75000  -0.00000   0.10200   0.00000  Uiso   1.00
C321   C     0.50001   0.25000   0.89805   0.00000  Uiso   1.00
C322   C     0.50000   0.25000   0.10201   0.00000  Uiso   1.00
C323   C     0.50235   0.18320   0.47971   0.00000  Uiso   1.00
C324   C     0.99691   0.31676   0.52036   0.00000  Uiso   1.00
C325   C     0.81676   0.49714   0.47971   0.00000  Uiso   1.00
C326   C     0.68327   0.00376   0.52038   0.00000  Uiso   1.00
C327   C     0.99774   0.31678   0.47970   0.00000  Uiso   1.00
C328   C     0.71779   0.00810   0.41800   0.00000  Uiso   1.00
C329   C     0.50318   0.18324   0.52037   0.00000  Uiso   1.00
C330   C     0.68323   0.00293   0.47972   0.00000  Uiso   1.00
C331   C     0.81673   0.49631   0.52037   0.00000  Uiso   1.00
C332   C     0.75237   0.43321   0.97971   0.00000  Uiso   1.00
C333   C     0.74680   0.06676   0.02037   0.00000  Uiso   1.00
C334   C     0.56678   0.24713   0.97973   0.00000  Uiso   1.00
C335   C     0.93327   0.25363   0.02037   0.00000  Uiso   1.00
C336   C     0.74764   0.06679   0.97971   0.00000  Uiso   1.00
C337   C     0.75320   0.43324   0.02037   0.00000  Uiso   1.00
C338   C     0.93324   0.25280   0.97971   0.00000  Uiso   1.00
C339   C     0.78285   0.00477   0.58210   0.00000  Uiso   1.00
C340   C     0.56673   0.24629   0.02039   0.00000  Uiso   1.00
C341   C     0.75000  -0.00000   0.35574   0.00000  Uiso   1.00
C342   C     0.75000  -0.00000   0.64428   0.00000  Uiso   1.00
C343   C     0.50000   0.25000   0.35574   0.00000  Uiso   1.00
C344   C     0.50000   0.25000   0.64428   0.00000  Uiso   1.00
C345   C     0.50000   0.25000   0.85574   0.00000  Uiso   1.00
C346   C     0.50000   0.25000   0.14428   0.00000  Uiso   1.00
C347   C     0.75000  -0.00000   0.85574   0.00000  Uiso   1.00
C348   C     0.75000  -0.00000   0.14428   0.00000  Uiso   1.00
C349   C     0.67992   0.07006   0.25001   0.00000  Uiso   1.00
C350   C     0.50782   0.21772   0.41799   0.00000  Uiso   1.00
C351   C     0.82006   0.42992   0.75001   0.00000  Uiso   1.00
C352   C     0.92992   0.17994   0.24999   0.00000  Uiso   1.00
C353   C     0.57006   0.32008   0.74999   0.00000  Uiso   1.00
C354   C     0.82008   0.42994   0.25001   0.00000  Uiso   1.00
C355   C     0.67994   0.07008   0.75001   0.00000  Uiso   1.00
C356   C     0.57008   0.32006   0.24999   0.00000  Uiso   1.00
C357   C     0.92994   0.17992   0.74999   0.00000  Uiso   1.00
C358   C     0.67992   0.42994   0.74999   0.00000  Uiso   1.00
C359   C     0.82006   0.07008   0.24999   0.00000  Uiso   1.00
C360   C     0.92992   0.32006   0.75001   0.00000  Uiso   1.00
C361   C     0.50507   0.28281   0.58209   0.00000  Uiso   1.00
C362   C     0.57006   0.17992   0.25001   0.00000  Uiso   1.00
C363   C     0.82008   0.07006   0.74999   0.00000  Uiso   1.00
C364   C     0.67994   0.42992   0.24999   0.00000  Uiso   1.00
C365   C     0.57008   0.17994   0.75001   0.00000  Uiso   1.00
C366   C     0.92994   0.32008   0.25001   0.00000  Uiso   1.00
C367   C     0.62209   0.40464   0.22461   0.00000  Uiso   1.00
C368   C     0.87797   0.09530   0.77529   0.00000  Uiso   1.00
C369   C     0.59536   0.12208   0.22462   0.00000  Uiso   1.00
C370   C     0.90458   0.37785   0.77548   0.00000  Uiso   1.00
C371   C     0.87791   0.09536   0.22461   0.00000  Uiso   1.00
C372   C     0.78219   0.49192   0.41800   0.00000  Uiso   1.00
C373   C     0.62203   0.40470   0.77530   0.00000  Uiso   1.00
C374   C     0.90464   0.37791   0.22462   0.00000  Uiso   1.00
C375   C     0.59543   0.12215   0.77549   0.00000  Uiso   1.00
C376   C     0.62215   0.09543   0.77549   0.00000  Uiso   1.00
C377   C     0.87792   0.40464   0.22462   0.00000  Uiso   1.00
C378   C     0.59530   0.37797   0.77530   0.00000  Uiso   1.00
C379   C     0.90464   0.12208   0.22461   0.00000  Uiso   1.00
C380   C     0.87785   0.40458   0.77548   0.00000  Uiso   1.00
C381   C     0.62208   0.09536   0.22462   0.00000  Uiso   1.00
C382   C     0.90470   0.12203   0.77530   0.00000  Uiso   1.00
C383   C     0.71715   0.49525   0.58210   0.00000  Uiso   1.00
C384   C     0.59536   0.37791   0.22461   0.00000  Uiso   1.00
C385   C     0.87209   0.15464   0.72461   0.00000  Uiso   1.00
C386   C     0.62797   0.34530   0.27530   0.00000  Uiso   1.00
C387   C     0.84536   0.37208   0.72462   0.00000  Uiso   1.00
C388   C     0.65458   0.12785   0.27548   0.00000  Uiso   1.00
C389   C     0.62791   0.34536   0.72461   0.00000  Uiso   1.00
C390   C     0.87203   0.15470   0.27530   0.00000  Uiso   1.00
C391   C     0.65464   0.12792   0.72462   0.00000  Uiso   1.00
C392   C     0.84543   0.37215   0.27549   0.00000  Uiso   1.00
C393   C     0.87215   0.34543   0.27549   0.00000  Uiso   1.00
C394   C     0.74218   0.03227   0.91799   0.00000  Uiso   1.00
C395   C     0.62792   0.15464   0.72462   0.00000  Uiso   1.00
C396   C     0.84530   0.12797   0.27529   0.00000  Uiso   1.00
C397   C     0.65464   0.37208   0.72461   0.00000  Uiso   1.00
C398   C     0.62785   0.15458   0.27548   0.00000  Uiso   1.00
C399   C     0.87208   0.34536   0.72462   0.00000  Uiso   1.00
C400   C     0.65470   0.37203   0.27530   0.00000  Uiso   1.00
C401   C     0.84536   0.12791   0.72461   0.00000  Uiso   1.00
C402   C     0.50313   0.21646   0.45881   0.00000  Uiso   1.00
C403   C     0.50036   0.28368   0.54127   0.00000  Uiso   1.00
C404   C     0.78350   0.49662   0.45881   0.00000  Uiso   1.00
Cl405  Cl    0.99403   0.14059   0.45693   0.00000  Uiso   1.00
Cl406  Cl    0.73504   0.10855   0.04316   0.00000  Uiso   1.00
Cl407  Cl    0.60946   0.25512   0.95696   0.00000  Uiso   1.00
Cl408  Cl    0.89155   0.26564   0.04316   0.00000  Uiso   1.00
Cl409  Cl    0.75597   0.10940   0.95693   0.00000  Uiso   1.00
Cl410  Cl    0.76494   0.39145   0.04316   0.00000  Uiso   1.00
Cl411  Cl    0.89058   0.24477   0.95691   0.00000  Uiso   1.00
Cl412  Cl    0.60843   0.23423   0.04319   0.00000  Uiso   1.00
Cl413  Cl    0.97290   0.31871   0.39087   0.00000  Uiso   1.00
Cl414  Cl    0.97865   0.17936   0.60929   0.00000  Uiso   1.00
Cl415  Cl    0.68150   0.02768   0.39086   0.00000  Uiso   1.00
Cl416  Cl    0.98523   0.35858   0.54314   0.00000  Uiso   1.00
Cl417  Cl    0.82083   0.02071   0.60932   0.00000  Uiso   1.00
Cl418  Cl    0.52710   0.18128   0.39085   0.00000  Uiso   1.00
Cl419  Cl    0.52135   0.32064   0.60931   0.00000  Uiso   1.00
Cl420  Cl    0.81848   0.47230   0.39089   0.00000  Uiso   1.00
Cl421  Cl    0.67918   0.47928   0.60930   0.00000  Uiso   1.00
Cl422  Cl    0.72287   0.06871   0.89086   0.00000  Uiso   1.00
Cl423  Cl    0.72872   0.42933   0.10930   0.00000  Uiso   1.00
Cl424  Cl    0.93150   0.27766   0.89089   0.00000  Uiso   1.00
Cl425  Cl    0.57081   0.27078   0.10930   0.00000  Uiso   1.00
Cl426  Cl    0.77715   0.43130   0.89086   0.00000  Uiso   1.00
Cl427  Cl    0.85943   0.00514   0.45692   0.00000  Uiso   1.00
Cl428  Cl    0.77126   0.07067   0.10930   0.00000  Uiso   1.00
Cl429  Cl    0.56853   0.22240   0.89085   0.00000  Uiso   1.00
Cl430  Cl    0.92920   0.22920   0.10931   0.00000  Uiso   1.00
Cl431  Cl    0.64158   0.01586   0.54319   0.00000  Uiso   1.00
Cl432  Cl    0.50612   0.35938   0.45690   0.00000  Uiso   1.00
Cl433  Cl    0.51490   0.14145   0.54318   0.00000  Uiso   1.00
Cl434  Cl    0.64054   0.49497   0.45695   0.00000  Uiso   1.00
Cl435  Cl    0.85844   0.48425   0.54316   0.00000  Uiso   1.00
Cl436  Cl    0.74405   0.39060   0.95692   0.00000  Uiso   1.00
H437   H     0.61938   0.42742   0.20477   0.00000  Uiso   1.00
H438   H     0.88057   0.42737   0.20472   0.00000  Uiso   1.00
H439   H     0.57252   0.38068   0.79513   0.00000  Uiso   1.00
H440   H     0.92742   0.11938   0.20477   0.00000  Uiso   1.00
H441   H     0.88051   0.42731   0.79539   0.00000  Uiso   1.00
H442   H     0.61942   0.07262   0.20472   0.00000  Uiso   1.00
H443   H     0.92748   0.11932   0.79513   0.00000  Uiso   1.00
H444   H     0.57258   0.38062   0.20477   0.00000  Uiso   1.00
H445   H     0.86938   0.17742   0.70477   0.00000  Uiso   1.00
H446   H     0.63068   0.32252   0.29513   0.00000  Uiso   1.00
H447   H     0.82262   0.36942   0.70472   0.00000  Uiso   1.00
H448   H     0.88068   0.07252   0.79513   0.00000  Uiso   1.00
H449   H     0.67731   0.13051   0.29539   0.00000  Uiso   1.00
H450   H     0.63062   0.32258   0.70477   0.00000  Uiso   1.00
H451   H     0.86932   0.17748   0.29513   0.00000  Uiso   1.00
H452   H     0.67738   0.13057   0.70472   0.00000  Uiso   1.00
H453   H     0.82269   0.36950   0.29539   0.00000  Uiso   1.00
H454   H     0.86950   0.32269   0.29539   0.00000  Uiso   1.00
H455   H     0.63057   0.17737   0.70472   0.00000  Uiso   1.00
H456   H     0.82252   0.13068   0.29513   0.00000  Uiso   1.00
H457   H     0.67742   0.36938   0.70477   0.00000  Uiso   1.00
H458   H     0.63051   0.17731   0.29539   0.00000  Uiso   1.00
H459   H     0.57262   0.11942   0.20472   0.00000  Uiso   1.00
H460   H     0.86942   0.32262   0.70472   0.00000  Uiso   1.00
H461   H     0.67748   0.36932   0.29513   0.00000  Uiso   1.00
H462   H     0.82258   0.13062   0.70477   0.00000  Uiso   1.00
H463   H     0.92731   0.38051   0.79539   0.00000  Uiso   1.00
H464   H     0.88062   0.07258   0.20477   0.00000  Uiso   1.00
H465   H     0.61932   0.42748   0.79513   0.00000  Uiso   1.00
H466   H     0.92738   0.38057   0.20472   0.00000  Uiso   1.00
H467   H     0.57269   0.11950   0.79539   0.00000  Uiso   1.00
H468   H     0.61950   0.07269   0.79539   0.00000  Uiso   1.00
O469   O     0.75000  -0.00000   0.25000   0.00000  Uiso   1.00
O470   O     0.75000   0.46963   0.66245   0.00000  Uiso   1.00
O471   O     0.96964   0.25000   0.33755   0.00000  Uiso   1.00
O472   O     0.53037   0.25000   0.66245   0.00000  Uiso   1.00
O473   O     0.50000   0.21963   0.83755   0.00000  Uiso   1.00
O474   O     0.50000   0.28036   0.16245   0.00000  Uiso   1.00
O475   O     0.78037  -0.00000   0.83755   0.00000  Uiso   1.00
O476   O     0.71964  -0.00000   0.16245   0.00000  Uiso   1.00
O477   O     0.50000   0.28036   0.83755   0.00000  Uiso   1.00
O478   O     0.50000   0.21963   0.16245   0.00000  Uiso   1.00
O479   O     0.71964  -0.00000   0.83755   0.00000  Uiso   1.00
O480   O     0.75000  -0.00000   0.75000   0.00000  Uiso   1.00
O481   O     0.78037  -0.00000   0.16245   0.00000  Uiso   1.00
O482   O     0.70725   0.07307   0.27302   0.00000  Uiso   1.00
O483   O     0.79276   0.42692   0.72698   0.00000  Uiso   1.00
O484   O     0.92693   0.20724   0.27302   0.00000  Uiso   1.00
O485   O     0.57308   0.29275   0.72698   0.00000  Uiso   1.00
O486   O     0.79276   0.42692   0.27302   0.00000  Uiso   1.00
O487   O     0.70725   0.07307   0.72698   0.00000  Uiso   1.00
O488   O     0.57308   0.29275   0.27302   0.00000  Uiso   1.00
O489   O     0.92693   0.20724   0.72698   0.00000  Uiso   1.00
O490   O     0.70725   0.42692   0.72698   0.00000  Uiso   1.00
O491   O     0.50000   0.25000   0.25000   0.00000  Uiso   1.00
O492   O     0.79276   0.07307   0.27302   0.00000  Uiso   1.00
O493   O     0.92693   0.29275   0.72698   0.00000  Uiso   1.00
O494   O     0.57308   0.20724   0.27302   0.00000  Uiso   1.00
O495   O     0.79276   0.07307   0.72698   0.00000  Uiso   1.00
O496   O     0.70725   0.42692   0.27302   0.00000  Uiso   1.00
O497   O     0.57308   0.20724   0.72698   0.00000  Uiso   1.00
O498   O     0.92693   0.29275   0.27302   0.00000  Uiso   1.00
O499   O     0.95725   0.32307   0.77302   0.00000  Uiso   1.00
O500   O     0.54276   0.17692   0.22698   0.00000  Uiso   1.00
O501   O     0.67693   0.45724   0.77302   0.00000  Uiso   1.00
O502   O     0.50000   0.25000   0.75000   0.00000  Uiso   1.00
O503   O     0.82308   0.04275   0.22698   0.00000  Uiso   1.00
O504   O     0.54276   0.17692   0.77302   0.00000  Uiso   1.00
O505   O     0.95725   0.32307   0.22698   0.00000  Uiso   1.00
O506   O     0.82308   0.04275   0.77302   0.00000  Uiso   1.00
O507   O     0.67693   0.45724   0.22698   0.00000  Uiso   1.00
O508   O     0.95725   0.17692   0.22698   0.00000  Uiso   1.00
O509   O     0.54276   0.32307   0.77302   0.00000  Uiso   1.00
O510   O     0.67693   0.04275   0.22698   0.00000  Uiso   1.00
O511   O     0.82308   0.45724   0.77302   0.00000  Uiso   1.00
O512   O     0.54276   0.32307   0.22698   0.00000  Uiso   1.00
O513   O     0.75000   0.46963   0.33755   0.00000  Uiso   1.00
O514   O     0.95725   0.17692   0.77302   0.00000  Uiso   1.00
O515   O     0.82308   0.45724   0.22698   0.00000  Uiso   1.00
O516   O     0.67693   0.04275   0.77302   0.00000  Uiso   1.00
O517   O     0.75000   0.03036   0.66245   0.00000  Uiso   1.00
O518   O     0.53037   0.25000   0.33755   0.00000  Uiso   1.00
O519   O     0.96964   0.25000   0.66245   0.00000  Uiso   1.00
O520   O     0.75000   0.03036   0.33755   0.00000  Uiso   1.00
Zn521  Zn    0.70660  -0.00000   0.21735   0.00000  Uiso   1.00
Zn522  Zn    0.54341   0.25000   0.28265   0.00000  Uiso   1.00
Zn523  Zn    0.75000   0.45659   0.71735   0.00000  Uiso   1.00
Zn524  Zn    0.75000   0.04340   0.28265   0.00000  Uiso   1.00
Zn525  Zn    0.54341   0.25000   0.71735   0.00000  Uiso   1.00
Zn526  Zn    0.95660   0.25000   0.28265   0.00000  Uiso   1.00
Zn527  Zn    0.75000   0.04340   0.71735   0.00000  Uiso   1.00
Zn528  Zn    0.75000   0.45659   0.28265   0.00000  Uiso   1.00
Zn529  Zn    0.79341  -0.00000   0.78265   0.00000  Uiso   1.00
Zn530  Zn    0.50000   0.20659   0.21735   0.00000  Uiso   1.00
Zn531  Zn    0.50000   0.29340   0.78265   0.00000  Uiso   1.00
Zn532  Zn    0.79341  -0.00000   0.21735   0.00000  Uiso   1.00
Zn533  Zn    0.70660  -0.00000   0.78265   0.00000  Uiso   1.00
Zn534  Zn    0.50000   0.29340   0.21735   0.00000  Uiso   1.00
Zn535  Zn    0.50000   0.20659   0.78265   0.00000  Uiso   1.00
Zn536  Zn    0.95660   0.25000   0.71735   0.00000  Uiso   1.00
C537   C     0.49221   0.78226   0.41799   0.00000  Uiso   1.00
C538   C     0.24497   0.96719   0.08209   0.00000  Uiso   1.00
C539   C     0.21632   0.99999   0.54128   0.00000  Uiso   1.00
C540   C     0.49693   0.78353   0.45881   0.00000  Uiso   1.00
C541   C     0.49970   0.71632   0.54127   0.00000  Uiso   1.00
C542   C     0.21649   0.50342   0.45882   0.00000  Uiso   1.00
C543   C     0.28368   0.50005   0.54128   0.00000  Uiso   1.00
C544   C     0.25313   0.96647   0.95881   0.00000  Uiso   1.00
C545   C     0.25030   0.53368   0.04127   0.00000  Uiso   1.00
C546   C     0.03352   0.74661   0.95882   0.00000  Uiso   1.00
C547   C     0.46632   0.74991   0.04128   0.00000  Uiso   1.00
C548   C     0.24688   0.53353   0.95881   0.00000  Uiso   1.00
C549   C     0.46780   0.75806   0.91800   0.00000  Uiso   1.00
C550   C     0.24970   0.96632   0.04127   0.00000  Uiso   1.00
C551   C     0.46650   0.75335   0.95881   0.00000  Uiso   1.00
C552   C     0.03368   0.75003   0.04128   0.00000  Uiso   1.00
C553   C     0.09816   0.84811   0.24996   0.00000  Uiso   1.00
C554   C     0.40189   0.65184   0.74996   0.00000  Uiso   1.00
C555   C     0.15184   0.59811   0.25004   0.00000  Uiso   1.00
C556   C     0.34811   0.90184   0.75004   0.00000  Uiso   1.00
C557   C     0.40184   0.65189   0.24996   0.00000  Uiso   1.00
C558   C     0.09811   0.84816   0.74996   0.00000  Uiso   1.00
C559   C     0.34816   0.90189   0.25004   0.00000  Uiso   1.00
C560   C     0.03285   0.75478   0.08210   0.00000  Uiso   1.00
C561   C     0.15189   0.59816   0.75004   0.00000  Uiso   1.00
C562   C     0.09816   0.65189   0.75004   0.00000  Uiso   1.00
C563   C     0.40189   0.84816   0.25004   0.00000  Uiso   1.00
C564   C     0.15184   0.90189   0.74996   0.00000  Uiso   1.00
C565   C     0.34811   0.59816   0.24996   0.00000  Uiso   1.00
C566   C     0.40184   0.84811   0.75004   0.00000  Uiso   1.00
C567   C     0.09811   0.65184   0.25004   0.00000  Uiso   1.00
C568   C     0.34816   0.59811   0.74996   0.00000  Uiso   1.00
C569   C     0.15189   0.90184   0.24996   0.00000  Uiso   1.00
C570   C     0.00003   0.75000   0.47944   0.00000  Uiso   1.00
C571   C     0.25783   0.96773   0.91799   0.00000  Uiso   1.00
C572   C     0.00003   0.75000   0.52063   0.00000  Uiso   1.00
C573   C     0.25000   0.50002   0.47945   0.00000  Uiso   1.00
C574   C     0.25000   0.50002   0.52064   0.00000  Uiso   1.00
C575   C     0.25000   0.50000   0.97944   0.00000  Uiso   1.00
C576   C     0.25000   0.50000   0.02064   0.00000  Uiso   1.00
C577   C     0.00001   0.74998   0.97945   0.00000  Uiso   1.00
C578   C     0.00000   0.74997   0.02064   0.00000  Uiso   1.00
C579   C     0.25502   0.53281   0.08209   0.00000  Uiso   1.00
C580   C     0.03222   0.74194   0.91800   0.00000  Uiso   1.00
C581   C     0.46715   0.74519   0.08210   0.00000  Uiso   1.00
C582   C     0.00000   0.74999   0.39805   0.00000  Uiso   1.00
C583   C     0.00000   0.75000   0.60200   0.00000  Uiso   1.00
C584   C     0.24999   0.50000   0.39805   0.00000  Uiso   1.00
C585   C     0.49495   0.71719   0.58209   0.00000  Uiso   1.00
C586   C     0.25000   0.50000   0.60201   0.00000  Uiso   1.00
C587   C     0.25000   0.50000   0.89805   0.00000  Uiso   1.00
C588   C     0.25000   0.50000   0.10200   0.00000  Uiso   1.00
C589   C     0.00001   0.75000   0.89805   0.00000  Uiso   1.00
C590   C    -0.00000   0.75000   0.10201   0.00000  Uiso   1.00
C591   C     0.00235   0.68320   0.47971   0.00000  Uiso   1.00
C592   C     0.49691   0.81676   0.52036   0.00000  Uiso   1.00
C593   C     0.31676   0.99714   0.47971   0.00000  Uiso   1.00
C594   C     0.18327   0.50376   0.52038   0.00000  Uiso   1.00
C595   C     0.49774   0.81678   0.47970   0.00000  Uiso   1.00
C596   C     0.21779   0.50810   0.41800   0.00000  Uiso   1.00
C597   C     0.00318   0.68324   0.52037   0.00000  Uiso   1.00
C598   C     0.18323   0.50293   0.47972   0.00000  Uiso   1.00
C599   C     0.31673   0.99631   0.52037   0.00000  Uiso   1.00
C600   C     0.25237   0.93321   0.97971   0.00000  Uiso   1.00
C601   C     0.24680   0.56676   0.02037   0.00000  Uiso   1.00
C602   C     0.06678   0.74713   0.97973   0.00000  Uiso   1.00
C603   C     0.43327   0.75363   0.02037   0.00000  Uiso   1.00
C604   C     0.24764   0.56679   0.97971   0.00000  Uiso   1.00
C605   C     0.25320   0.93324   0.02037   0.00000  Uiso   1.00
C606   C     0.43324   0.75280   0.97971   0.00000  Uiso   1.00
C607   C     0.28285   0.50477   0.58210   0.00000  Uiso   1.00
C608   C     0.06673   0.74629   0.02039   0.00000  Uiso   1.00
C609   C     0.25000   0.50000   0.35574   0.00000  Uiso   1.00
C610   C     0.25000   0.50000   0.64428   0.00000  Uiso   1.00
C611   C     0.00000   0.75000   0.35574   0.00000  Uiso   1.00
C612   C     0.00000   0.75000   0.64428   0.00000  Uiso   1.00
C613   C     0.00000   0.75000   0.85574   0.00000  Uiso   1.00
C614   C    -0.00000   0.75000   0.14428   0.00000  Uiso   1.00
C615   C     0.25000   0.50000   0.85574   0.00000  Uiso   1.00
C616   C     0.25000   0.50000   0.14428   0.00000  Uiso   1.00
C617   C     0.17992   0.57006   0.25001   0.00000  Uiso   1.00
C618   C     0.00782   0.71772   0.41799   0.00000  Uiso   1.00
C619   C     0.32006   0.92992   0.75001   0.00000  Uiso   1.00
C620   C     0.42992   0.67994   0.24999   0.00000  Uiso   1.00
C621   C     0.07006   0.82008   0.74999   0.00000  Uiso   1.00
C622   C     0.32008   0.92994   0.25001   0.00000  Uiso   1.00
C623   C     0.17994   0.57008   0.75001   0.00000  Uiso   1.00
C624   C     0.07008   0.82006   0.24999   0.00000  Uiso   1.00
C625   C     0.42994   0.67992   0.74999   0.00000  Uiso   1.00
C626   C     0.17992   0.92994   0.74999   0.00000  Uiso   1.00
C627   C     0.32006   0.57008   0.24999   0.00000  Uiso   1.00
C628   C     0.42992   0.82006   0.75001   0.00000  Uiso   1.00
C629   C     0.00507   0.78281   0.58209   0.00000  Uiso   1.00
C630   C     0.07006   0.67992   0.25001   0.00000  Uiso   1.00
C631   C     0.32008   0.57006   0.74999   0.00000  Uiso   1.00
C632   C     0.17994   0.92992   0.24999   0.00000  Uiso   1.00
C633   C     0.07008   0.67994   0.75001   0.00000  Uiso   1.00
C634   C     0.42994   0.82008   0.25001   0.00000  Uiso   1.00
C635   C     0.12209   0.90464   0.22461   0.00000  Uiso   1.00
C636   C     0.37797   0.59530   0.77529   0.00000  Uiso   1.00
C637   C     0.09536   0.62208   0.22462   0.00000  Uiso   1.00
C638   C     0.40458   0.87785   0.77548   0.00000  Uiso   1.00
C639   C     0.37791   0.59536   0.22461   0.00000  Uiso   1.00
C640   C     0.28219   0.99192   0.41800   0.00000  Uiso   1.00
C641   C     0.12203   0.90470   0.77530   0.00000  Uiso   1.00
C642   C     0.40464   0.87791   0.22462   0.00000  Uiso   1.00
C643   C     0.09543   0.62215   0.77549   0.00000  Uiso   1.00
C644   C     0.12215   0.59543   0.77549   0.00000  Uiso   1.00
C645   C     0.37792   0.90464   0.22462   0.00000  Uiso   1.00
C646   C     0.09530   0.87797   0.77530   0.00000  Uiso   1.00
C647   C     0.40464   0.62208   0.22461   0.00000  Uiso   1.00
C648   C     0.37785   0.90458   0.77548   0.00000  Uiso   1.00
C649   C     0.12208   0.59536   0.22462   0.00000  Uiso   1.00
C650   C     0.40470   0.62203   0.77530   0.00000  Uiso   1.00
C651   C     0.21715   0.99525   0.58210   0.00000  Uiso   1.00
C652   C     0.09536   0.87791   0.22461   0.00000  Uiso   1.00
C653   C     0.37209   0.65464   0.72461   0.00000  Uiso   1.00
C654   C     0.12797   0.84530   0.27530   0.00000  Uiso   1.00
C655   C     0.34536   0.87208   0.72462   0.00000  Uiso   1.00
C656   C     0.15458   0.62785   0.27548   0.00000  Uiso   1.00
C657   C     0.12791   0.84536   0.72461   0.00000  Uiso   1.00
C658   C     0.37203   0.65470   0.27530   0.00000  Uiso   1.00
C659   C     0.15464   0.62792   0.72462   0.00000  Uiso   1.00
C660   C     0.34543   0.87215   0.27549   0.00000  Uiso   1.00
C661   C     0.37215   0.84543   0.27549   0.00000  Uiso   1.00
C662   C     0.24218   0.53227   0.91799   0.00000  Uiso   1.00
C663   C     0.12792   0.65464   0.72462   0.00000  Uiso   1.00
C664   C     0.34530   0.62797   0.27529   0.00000  Uiso   1.00
C665   C     0.15464   0.87208   0.72461   0.00000  Uiso   1.00
C666   C     0.12785   0.65458   0.27548   0.00000  Uiso   1.00
C667   C     0.37208   0.84536   0.72462   0.00000  Uiso   1.00
C668   C     0.15470   0.87203   0.27530   0.00000  Uiso   1.00
C669   C     0.34536   0.62791   0.72461   0.00000  Uiso   1.00
C670   C     0.00313   0.71646   0.45881   0.00000  Uiso   1.00
C671   C     0.00036   0.78368   0.54127   0.00000  Uiso   1.00
C672   C     0.28350   0.99662   0.45881   0.00000  Uiso   1.00
Cl673  Cl    0.49403   0.64059   0.45693   0.00000  Uiso   1.00
Cl674  Cl    0.23504   0.60855   0.04316   0.00000  Uiso   1.00
Cl675  Cl    0.10946   0.75512   0.95696   0.00000  Uiso   1.00
Cl676  Cl    0.39155   0.76564   0.04316   0.00000  Uiso   1.00
Cl677  Cl    0.25597   0.60940   0.95693   0.00000  Uiso   1.00
Cl678  Cl    0.26494   0.89145   0.04316   0.00000  Uiso   1.00
Cl679  Cl    0.39058   0.74477   0.95691   0.00000  Uiso   1.00
Cl680  Cl    0.10843   0.73423   0.04319   0.00000  Uiso   1.00
Cl681  Cl    0.47290   0.81871   0.39087   0.00000  Uiso   1.00
Cl682  Cl    0.47865   0.67936   0.60929   0.00000  Uiso   1.00
Cl683  Cl    0.18150   0.52768   0.39086   0.00000  Uiso   1.00
Cl684  Cl    0.48523   0.85858   0.54314   0.00000  Uiso   1.00
Cl685  Cl    0.32083   0.52071   0.60932   0.00000  Uiso   1.00
Cl686  Cl    0.02710   0.68128   0.39085   0.00000  Uiso   1.00
Cl687  Cl    0.02135   0.82064   0.60931   0.00000  Uiso   1.00
Cl688  Cl    0.31848   0.97230   0.39089   0.00000  Uiso   1.00
Cl689  Cl    0.17918   0.97928   0.60930   0.00000  Uiso   1.00
Cl690  Cl    0.22287   0.56871   0.89086   0.00000  Uiso   1.00
Cl691  Cl    0.22872   0.92933   0.10930   0.00000  Uiso   1.00
Cl692  Cl    0.43150   0.77766   0.89089   0.00000  Uiso   1.00
Cl693  Cl    0.07081   0.77078   0.10930   0.00000  Uiso   1.00
Cl694  Cl    0.27715   0.93130   0.89086   0.00000  Uiso   1.00
Cl695  Cl    0.35943   0.50514   0.45692   0.00000  Uiso   1.00
Cl696  Cl    0.27126   0.57067   0.10930   0.00000  Uiso   1.00
Cl697  Cl    0.06853   0.72240   0.89085   0.00000  Uiso   1.00
Cl698  Cl    0.42920   0.72920   0.10931   0.00000  Uiso   1.00
Cl699  Cl    0.14158   0.51586   0.54319   0.00000  Uiso   1.00
Cl700  Cl    0.00612   0.85938   0.45690   0.00000  Uiso   1.00
Cl701  Cl    0.01490   0.64145   0.54318   0.00000  Uiso   1.00
Cl702  Cl    0.14054   0.99497   0.45695   0.00000  Uiso   1.00
Cl703  Cl    0.35844   0.98425   0.54316   0.00000  Uiso   1.00
Cl704  Cl    0.24405   0.89060   0.95692   0.00000  Uiso   1.00
H705   H     0.11938   0.92742   0.20477   0.00000  Uiso   1.00
H706   H     0.38057   0.92737   0.20472   0.00000  Uiso   1.00
H707   H     0.07252   0.88068   0.79513   0.00000  Uiso   1.00
H708   H     0.42742   0.61938   0.20477   0.00000  Uiso   1.00
H709   H     0.38051   0.92731   0.79539   0.00000  Uiso   1.00
H710   H     0.11942   0.57262   0.20472   0.00000  Uiso   1.00
H711   H     0.42748   0.61932   0.79513   0.00000  Uiso   1.00
H712   H     0.07258   0.88062   0.20477   0.00000  Uiso   1.00
H713   H     0.36938   0.67742   0.70477   0.00000  Uiso   1.00
H714   H     0.13068   0.82252   0.29513   0.00000  Uiso   1.00
H715   H     0.32262   0.86942   0.70472   0.00000  Uiso   1.00
H716   H     0.38068   0.57252   0.79513   0.00000  Uiso   1.00
H717   H     0.17731   0.63051   0.29539   0.00000  Uiso   1.00
H718   H     0.13062   0.82258   0.70477   0.00000  Uiso   1.00
H719   H     0.36932   0.67748   0.29513   0.00000  Uiso   1.00
H720   H     0.17738   0.63057   0.70472   0.00000  Uiso   1.00
H721   H     0.32269   0.86950   0.29539   0.00000  Uiso   1.00
H722   H     0.36950   0.82269   0.29539   0.00000  Uiso   1.00
H723   H     0.13057   0.67737   0.70472   0.00000  Uiso   1.00
H724   H     0.32252   0.63068   0.29513   0.00000  Uiso   1.00
H725   H     0.17742   0.86938   0.70477   0.00000  Uiso   1.00
H726   H     0.13051   0.67731   0.29539   0.00000  Uiso   1.00
H727   H     0.07262   0.61942   0.20472   0.00000  Uiso   1.00
H728   H     0.36942   0.82262   0.70472   0.00000  Uiso   1.00
H729   H     0.17748   0.86932   0.29513   0.00000  Uiso   1.00
H730   H     0.32258   0.63062   0.70477   0.00000  Uiso   1.00
H731   H     0.42731   0.88051   0.79539   0.00000  Uiso   1.00
H732   H     0.38062   0.57258   0.20477   0.00000  Uiso   1.00
H733   H     0.11932   0.92748   0.79513   0.00000  Uiso   1.00
H734   H     0.42738   0.88057   0.20472   0.00000  Uiso   1.00
H735   H     0.07269   0.61950   0.79539   0.00000  Uiso   1.00
H736   H     0.11950   0.57269   0.79539   0.00000  Uiso   1.00
O737   O     0.25000   0.50000   0.25000   0.00000  Uiso   1.00
O738   O     0.25000   0.96963   0.66245   0.00000  Uiso   1.00
O739   O     0.46964   0.75000   0.33755   0.00000  Uiso   1.00
O740   O     0.03037   0.75000   0.66245   0.00000  Uiso   1.00
O741   O     0.00000   0.71963   0.83755   0.00000  Uiso   1.00
O742   O     0.00000   0.78036   0.16245   0.00000  Uiso   1.00
O743   O     0.28037   0.50000   0.83755   0.00000  Uiso   1.00
O744   O     0.21964   0.50000   0.16245   0.00000  Uiso   1.00
O745   O     0.00000   0.78036   0.83755   0.00000  Uiso   1.00
O746   O     0.00000   0.71963   0.16245   0.00000  Uiso   1.00
O747   O     0.21964   0.50000   0.83755   0.00000  Uiso   1.00
O748   O     0.25000   0.50000   0.75000   0.00000  Uiso   1.00
O749   O     0.28037   0.50000   0.16245   0.00000  Uiso   1.00
O750   O     0.20725   0.57307   0.27302   0.00000  Uiso   1.00
O751   O     0.29276   0.92692   0.72698   0.00000  Uiso   1.00
O752   O     0.42693   0.70724   0.27302   0.00000  Uiso   1.00
O753   O     0.07308   0.79275   0.72698   0.00000  Uiso   1.00
O754   O     0.29276   0.92692   0.27302   0.00000  Uiso   1.00
O755   O     0.20725   0.57307   0.72698   0.00000  Uiso   1.00
O756   O     0.07308   0.79275   0.27302   0.00000  Uiso   1.00
O757   O     0.42693   0.70724   0.72698   0.00000  Uiso   1.00
O758   O     0.20725   0.92692   0.72698   0.00000  Uiso   1.00
O759   O     0.00000   0.75000   0.25000   0.00000  Uiso   1.00
O760   O     0.29276   0.57307   0.27302   0.00000  Uiso   1.00
O761   O     0.42693   0.79275   0.72698   0.00000  Uiso   1.00
O762   O     0.07308   0.70724   0.27302   0.00000  Uiso   1.00
O763   O     0.29276   0.57307   0.72698   0.00000  Uiso   1.00
O764   O     0.20725   0.92692   0.27302   0.00000  Uiso   1.00
O765   O     0.07308   0.70724   0.72698   0.00000  Uiso   1.00
O766   O     0.42693   0.79275   0.27302   0.00000  Uiso   1.00
O767   O     0.45725   0.82307   0.77302   0.00000  Uiso   1.00
O768   O     0.04276   0.67692   0.22698   0.00000  Uiso   1.00
O769   O     0.17693   0.95724   0.77302   0.00000  Uiso   1.00
O770   O     0.00000   0.75000   0.75000   0.00000  Uiso   1.00
O771   O     0.32308   0.54275   0.22698   0.00000  Uiso   1.00
O772   O     0.04276   0.67692   0.77302   0.00000  Uiso   1.00
O773   O     0.45725   0.82307   0.22698   0.00000  Uiso   1.00
O774   O     0.32308   0.54275   0.77302   0.00000  Uiso   1.00
O775   O     0.17693   0.95724   0.22698   0.00000  Uiso   1.00
O776   O     0.45725   0.67692   0.22698   0.00000  Uiso   1.00
O777   O     0.04276   0.82307   0.77302   0.00000  Uiso   1.00
O778   O     0.17693   0.54275   0.22698   0.00000  Uiso   1.00
O779   O     0.32308   0.95724   0.77302   0.00000  Uiso   1.00
O780   O     0.04276   0.82307   0.22698   0.00000  Uiso   1.00
O781   O     0.25000   0.96963   0.33755   0.00000  Uiso   1.00
O782   O     0.45725   0.67692   0.77302   0.00000  Uiso   1.00
O783   O     0.32308   0.95724   0.22698   0.00000  Uiso   1.00
O784   O     0.17693   0.54275   0.77302   0.00000  Uiso   1.00
O785   O     0.25000   0.53036   0.66245   0.00000  Uiso   1.00
O786   O     0.03037   0.75000   0.33755   0.00000  Uiso   1.00
O787   O     0.46964   0.75000   0.66245   0.00000  Uiso   1.00
O788   O     0.25000   0.53036   0.33755   0.00000  Uiso   1.00
Zn789  Zn    0.20660   0.50000   0.21735   0.00000  Uiso   1.00
Zn790  Zn    0.04341   0.75000   0.28265   0.00000  Uiso   1.00
Zn791  Zn    0.25000   0.95659   0.71735   0.00000  Uiso   1.00
Zn792  Zn    0.25000   0.54340   0.28265   0.00000  Uiso   1.00
Zn793  Zn    0.04341   0.75000   0.71735   0.00000  Uiso   1.00
Zn794  Zn    0.45660   0.75000   0.28265   0.00000  Uiso   1.00
Zn795  Zn    0.25000   0.54340   0.71735   0.00000  Uiso   1.00
Zn796  Zn    0.25000   0.95659   0.28265   0.00000  Uiso   1.00
Zn797  Zn    0.29341   0.50000   0.78265   0.00000  Uiso   1.00
Zn798  Zn    0.00000   0.70659   0.21735   0.00000  Uiso   1.00
Zn799  Zn    0.00000   0.79340   0.78265   0.00000  Uiso   1.00
Zn800  Zn    0.29341   0.50000   0.21735   0.00000  Uiso   1.00
Zn801  Zn    0.20660   0.50000   0.78265   0.00000  Uiso   1.00
Zn802  Zn    0.00000   0.79340   0.21735   0.00000  Uiso   1.00
Zn803  Zn    0.00000   0.70659   0.78265   0.00000  Uiso   1.00
Zn804  Zn    0.45660   0.75000   0.71735   0.00000  Uiso   1.00
C805   C     0.99221   0.78226   0.41799   0.00000  Uiso   1.00
C806   C     0.74497   0.96719   0.08209   0.00000  Uiso   1.00
C807   C     0.71632   0.99999   0.54128   0.00000  Uiso   1.00
C808   C     0.99693   0.78353   0.45881   0.00000  Uiso   1.00
C809   C     0.99970   0.71632   0.54127   0.00000  Uiso   1.00
C810   C     0.71649   0.50342   0.45882   0.00000  Uiso   1.00
C811   C     0.78368   0.50005   0.54128   0.00000  Uiso   1.00
C812   C     0.75313   0.96647   0.95881   0.00000  Uiso   1.00
C813   C     0.75030   0.53368   0.04127   0.00000  Uiso   1.00
C814   C     0.53352   0.74661   0.95882   0.00000  Uiso   1.00
C815   C     0.96632   0.74991   0.04128   0.00000  Uiso   1.00
C816   C     0.74688   0.53353   0.95881   0.00000  Uiso   1.00
C817   C     0.96780   0.75806   0.91800   0.00000  Uiso   1.00
C818   C     0.74970   0.96632   0.04127   0.00000  Uiso   1.00
C819   C     0.96650   0.75335   0.95881   0.00000  Uiso   1.00
C820   C     0.53368   0.75003   0.04128   0.00000  Uiso   1.00
C821   C     0.59816   0.84811   0.24996   0.00000  Uiso   1.00
C822   C     0.90189   0.65184   0.74996   0.00000  Uiso   1.00
C823   C     0.65184   0.59811   0.25004   0.00000  Uiso   1.00
C824   C     0.84811   0.90184   0.75004   0.00000  Uiso   1.00
C825   C     0.90184   0.65189   0.24996   0.00000  Uiso   1.00
C826   C     0.59811   0.84816   0.74996   0.00000  Uiso   1.00
C827   C     0.84816   0.90189   0.25004   0.00000  Uiso   1.00
C828   C     0.53285   0.75478   0.08210   0.00000  Uiso   1.00
C829   C     0.65189   0.59816   0.75004   0.00000  Uiso   1.00
C830   C     0.59816   0.65189   0.75004   0.00000  Uiso   1.00
C831   C     0.90189   0.84816   0.25004   0.00000  Uiso   1.00
C832   C     0.65184   0.90189   0.74996   0.00000  Uiso   1.00
C833   C     0.84811   0.59816   0.24996   0.00000  Uiso   1.00
C834   C     0.90184   0.84811   0.75004   0.00000  Uiso   1.00
C835   C     0.59811   0.65184   0.25004   0.00000  Uiso   1.00
C836   C     0.84816   0.59811   0.74996   0.00000  Uiso   1.00
C837   C     0.65189   0.90184   0.24996   0.00000  Uiso   1.00
C838   C     0.50003   0.75000   0.47944   0.00000  Uiso   1.00
C839   C     0.75783   0.96773   0.91799   0.00000  Uiso   1.00
C840   C     0.50003   0.75000   0.52063   0.00000  Uiso   1.00
C841   C     0.75000   0.50002   0.47945   0.00000  Uiso   1.00
C842   C     0.75000   0.50002   0.52064   0.00000  Uiso   1.00
C843   C     0.75000   0.50000   0.97944   0.00000  Uiso   1.00
C844   C     0.75000   0.50000   0.02064   0.00000  Uiso   1.00
C845   C     0.50001   0.74998   0.97945   0.00000  Uiso   1.00
C846   C     0.50000   0.74997   0.02064   0.00000  Uiso   1.00
C847   C     0.75502   0.53281   0.08209   0.00000  Uiso   1.00
C848   C     0.53222   0.74194   0.91800   0.00000  Uiso   1.00
C849   C     0.96715   0.74519   0.08210   0.00000  Uiso   1.00
C850   C     0.50000   0.74999   0.39805   0.00000  Uiso   1.00
C851   C     0.50000   0.75000   0.60200   0.00000  Uiso   1.00
C852   C     0.74999   0.50000   0.39805   0.00000  Uiso   1.00
C853   C     0.99495   0.71719   0.58209   0.00000  Uiso   1.00
C854   C     0.75000   0.50000   0.60201   0.00000  Uiso   1.00
C855   C     0.75000   0.50000   0.89805   0.00000  Uiso   1.00
C856   C     0.75000   0.50000   0.10200   0.00000  Uiso   1.00
C857   C     0.50001   0.75000   0.89805   0.00000  Uiso   1.00
C858   C     0.50000   0.75000   0.10201   0.00000  Uiso   1.00
C859   C     0.50235   0.68320   0.47971   0.00000  Uiso   1.00
C860   C     0.99691   0.81676   0.52036   0.00000  Uiso   1.00
C861   C     0.81676   0.99714   0.47971   0.00000  Uiso   1.00
C862   C     0.68327   0.50376   0.52038   0.00000  Uiso   1.00
C863   C     0.99774   0.81678   0.47970   0.00000  Uiso   1.00
C864   C     0.71779   0.50810   0.41800   0.00000  Uiso   1.00
C865   C     0.50318   0.68324   0.52037   0.00000  Uiso   1.00
C866   C     0.68323   0.50293   0.47972   0.00000  Uiso   1.00
C867   C     0.81673   0.99631   0.52037   0.00000  Uiso   1.00
C868   C     0.75237   0.93321   0.97971   0.00000  Uiso   1.00
C869   C     0.74680   0.56676   0.02037   0.00000  Uiso   1.00
C870   C     0.56678   0.74713   0.97973   0.00000  Uiso   1.00
C871   C     0.93327   0.75363   0.02037   0.00000  Uiso   1.00
C872   C     0.74764   0.56679   0.97971   0.00000  Uiso   1.00
C873   C     0.75320   0.93324   0.02037   0.00000  Uiso   1.00
C874   C     0.93324   0.75280   0.97971   0.00000  Uiso   1.00
C875   C     0.78285   0.50477   0.58210   0.00000  Uiso   1.00
C876   C     0.56673   0.74629   0.02039   0.00000  Uiso   1.00
C877   C     0.75000   0.50000   0.35574   0.00000  Uiso   1.00
C878   C     0.75000   0.50000   0.64428   0.00000  Uiso   1.00
C879   C     0.50000   0.75000   0.35574   0.00000  Uiso   1.00
C880   C     0.50000   0.75000   0.64428   0.00000  Uiso   1.00
C881   C     0.50000   0.75000   0.85574   0.00000  Uiso   1.00
C882   C     0.50000   0.75000   0.14428   0.00000  Uiso   1.00
C883   C     0.75000   0.50000   0.85574   0.00000  Uiso   1.00
C884   C     0.75000   0.50000   0.14428   0.00000  Uiso   1.00
C885   C     0.67992   0.57006   0.25001   0.00000  Uiso   1.00
C886   C     0.50782   0.71772   0.41799   0.00000  Uiso   1.00
C887   C     0.82006   0.92992   0.75001   0.00000  Uiso   1.00
C888   C     0.92992   0.67994   0.24999   0.00000  Uiso   1.00
C889   C     0.57006   0.82008   0.74999   0.00000  Uiso   1.00
C890   C     0.82008   0.92994   0.25001   0.00000  Uiso   1.00
C891   C     0.67994   0.57008   0.75001   0.00000  Uiso   1.00
C892   C     0.57008   0.82006   0.24999   0.00000  Uiso   1.00
C893   C     0.92994   0.67992   0.74999   0.00000  Uiso   1.00
C894   C     0.67992   0.92994   0.74999   0.00000  Uiso   1.00
C895   C     0.82006   0.57008   0.24999   0.00000  Uiso   1.00
C896   C     0.92992   0.82006   0.75001   0.00000  Uiso   1.00
C897   C     0.50507   0.78281   0.58209   0.00000  Uiso   1.00
C898   C     0.57006   0.67992   0.25001   0.00000  Uiso   1.00
C899   C     0.82008   0.57006   0.74999   0.00000  Uiso   1.00
C900   C     0.67994   0.92992   0.24999   0.00000  Uiso   1.00
C901   C     0.57008   0.67994   0.75001   0.00000  Uiso   1.00
C902   C     0.92994   0.82008   0.25001   0.00000  Uiso   1.00
C903   C     0.62209   0.90464   0.22461   0.00000  Uiso   1.00
C904   C     0.87797   0.59530   0.77529   0.00000  Uiso   1.00
C905   C     0.59536   0.62208   0.22462   0.00000  Uiso   1.00
C906   C     0.90458   0.87785   0.77548   0.00000  Uiso   1.00
C907   C     0.87791   0.59536   0.22461   0.00000  Uiso   1.00
C908   C     0.78219   0.99192   0.41800   0.00000  Uiso   1.00
C909   C     0.62203   0.90470   0.77530   0.00000  Uiso   1.00
C910   C     0.90464   0.87791   0.22462   0.00000  Uiso   1.00
C911   C     0.59543   0.62215   0.77549   0.00000  Uiso   1.00
C912   C     0.62215   0.59543   0.77549   0.00000  Uiso   1.00
C913   C     0.87792   0.90464   0.22462   0.00000  Uiso   1.00
C914   C     0.59530   0.87797   0.77530   0.00000  Uiso   1.00
C915   C     0.90464   0.62208   0.22461   0.00000  Uiso   1.00
C916   C     0.87785   0.90458   0.77548   0.00000  Uiso   1.00
C917   C     0.62208   0.59536   0.22462   0.00000  Uiso   1.00
C918   C     0.90470   0.62203   0.77530   0.00000  Uiso   1.00
C919   C     0.71715   0.99525   0.58210   0.00000  Uiso   1.00
C920   C     0.59536   0.87791   0.22461   0.00000  Uiso   1.00
C921   C     0.87209   0.65464   0.72461   0.00000  Uiso   1.00
C922   C     0.62797   0.84530   0.27530   0.00000  Uiso   1.00
C923   C     0.84536   0.87208   0.72462   0.00000  Uiso   1.00
C924   C     0.65458   0.62785   0.27548   0.00000  Uiso   1.00
C925   C     0.62791   0.84536   0.72461   0.00000  Uiso   1.00
C926   C     0.87203   0.65470   0.27530   0.00000  Uiso   1.00
C927   C     0.65464   0.62792   0.72462   0.00000  Uiso   1.00
C928   C     0.84543   0.87215   0.27549   0.00000  Uiso   1.00
C929   C     0.87215   0.84543   0.27549   0.00000  Uiso   1.00
C930   C     0.74218   0.53227   0.91799   0.00000  Uiso   1.00
C931   C     0.62792   0.65464   0.72462   0.00000  Uiso   1.00
C932   C     0.84530   0.62797   0.27529   0.00000  Uiso   1.00
C933   C     0.65464   0.87208   0.72461   0.00000  Uiso   1.00
C934   C     0.62785   0.65458   0.27548   0.00000  Uiso   1.00
C935   C     0.87208   0.84536   0.72462   0.00000  Uiso   1.00
C936   C     0.65470   0.87203   0.27530   0.00000  Uiso   1.00
C937   C     0.84536   0.62791   0.72461   0.00000  Uiso   1.00
C938   C     0.50313   0.71646   0.45881   0.00000  Uiso   1.00
C939   C     0.50036   0.78368   0.54127   0.00000  Uiso   1.00
C940   C     0.78350   0.99662   0.45881   0.00000  Uiso   1.00
Cl941  Cl    0.99403   0.64059   0.45693   0.00000  Uiso   1.00
Cl942  Cl    0.73504   0.60855   0.04316   0.00000  Uiso   1.00
Cl943  Cl    0.60946   0.75512   0.95696   0.00000  Uiso   1.00
Cl944  Cl    0.89155   0.76564   0.04316   0.00000  Uiso   1.00
Cl945  Cl    0.75597   0.60940   0.95693   0.00000  Uiso   1.00
Cl946  Cl    0.76494   0.89145   0.04316   0.00000  Uiso   1.00
Cl947  Cl    0.89058   0.74477   0.95691   0.00000  Uiso   1.00
Cl948  Cl    0.60843   0.73423   0.04319   0.00000  Uiso   1.00
Cl949  Cl    0.97290   0.81871   0.39087   0.00000  Uiso   1.00
Cl950  Cl    0.97865   0.67936   0.60929   0.00000  Uiso   1.00
Cl951  Cl    0.68150   0.52768   0.39086   0.00000  Uiso   1.00
Cl952  Cl    0.98523   0.85858   0.54314   0.00000  Uiso   1.00
Cl953  Cl    0.82083   0.52071   0.60932   0.00000  Uiso   1.00
Cl954  Cl    0.52710   0.68128   0.39085   0.00000  Uiso   1.00
Cl955  Cl    0.52135   0.82064   0.60931   0.00000  Uiso   1.00
Cl956  Cl    0.81848   0.97230   0.39089   0.00000  Uiso   1.00
Cl957  Cl    0.67918   0.97928   0.60930   0.00000  Uiso   1.00
Cl958  Cl    0.72287   0.56871   0.89086   0.00000  Uiso   1.00
Cl959  Cl    0.72872   0.92933   0.10930   0.00000  Uiso   1.00
Cl960  Cl    0.93150   0.77766   0.89089   0.00000  Uiso   1.00
Cl961  Cl    0.57081   0.77078   0.10930   0.00000  Uiso   1.00
Cl962  Cl    0.77715   0.93130   0.89086   0.00000  Uiso   1.00
Cl963  Cl    0.85943   0.50514   0.45692   0.00000  Uiso   1.00
Cl964  Cl    0.77126   0.57067   0.10930   0.00000  Uiso   1.00
Cl965  Cl    0.56853   0.72240   0.89085   0.00000  Uiso   1.00
Cl966  Cl    0.92920   0.72920   0.10931   0.00000  Uiso   1.00
Cl967  Cl    0.64158   0.51586   0.54319   0.00000  Uiso   1.00
Cl968  Cl    0.50612   0.85938   0.45690   0.00000  Uiso   1.00
Cl969  Cl    0.51490   0.64145   0.54318   0.00000  Uiso   1.00
Cl970  Cl    0.64054   0.99497   0.45695   0.00000  Uiso   1.00
Cl971  Cl    0.85844   0.98425   0.54316   0.00000  Uiso   1.00
Cl972  Cl    0.74405   0.89060   0.95692   0.00000  Uiso   1.00
H973   H     0.61938   0.92742   0.20477   0.00000  Uiso   1.00
H974   H     0.88057   0.92737   0.20472   0.00000  Uiso   1.00
H975   H     0.57252   0.88068   0.79513   0.00000  Uiso   1.00
H976   H     0.92742   0.61938   0.20477   0.00000  Uiso   1.00
H977   H     0.88051   0.92731   0.79539   0.00000  Uiso   1.00
H978   H     0.61942   0.57262   0.20472   0.00000  Uiso   1.00
H979   H     0.92748   0.61932   0.79513   0.00000  Uiso   1.00
H980   H     0.57258   0.88062   0.20477   0.00000  Uiso   1.00
H981   H     0.86938   0.67742   0.70477   0.00000  Uiso   1.00
H982   H     0.63068   0.82252   0.29513   0.00000  Uiso   1.00
H983   H     0.82262   0.86942   0.70472   0.00000  Uiso   1.00
H984   H     0.88068   0.57252   0.79513   0.00000  Uiso   1.00
H985   H     0.67731   0.63051   0.29539   0.00000  Uiso   1.00
H986   H     0.63062   0.82258   0.70477   0.00000  Uiso   1.00
H987   H     0.86932   0.67748   0.29513   0.00000  Uiso   1.00
H988   H     0.67738   0.63057   0.70472   0.00000  Uiso   1.00
H989   H     0.82269   0.86950   0.29539   0.00000  Uiso   1.00
H990   H     0.86950   0.82269   0.29539   0.00000  Uiso   1.00
H991   H     0.63057   0.67737   0.70472   0.00000  Uiso   1.00
H992   H     0.82252   0.63068   0.29513   0.00000  Uiso   1.00
H993   H     0.67742   0.86938   0.70477   0.00000  Uiso   1.00
H994   H     0.63051   0.67731   0.29539   0.00000  Uiso   1.00
H995   H     0.57262   0.61942   0.20472   0.00000  Uiso   1.00
H996   H     0.86942   0.82262   0.70472   0.00000  Uiso   1.00
H997   H     0.67748   0.86932   0.29513   0.00000  Uiso   1.00
H998   H     0.82258   0.63062   0.70477   0.00000  Uiso   1.00
H999   H     0.92731   0.88051   0.79539   0.00000  Uiso   1.00
H1000  H     0.88062   0.57258   0.20477   0.00000  Uiso   1.00
H1001  H     0.61932   0.92748   0.79513   0.00000  Uiso   1.00
H1002  H     0.92738   0.88057   0.20472   0.00000  Uiso   1.00
H1003  H     0.57269   0.61950   0.79539   0.00000  Uiso   1.00
H1004  H     0.61950   0.57269   0.79539   0.00000  Uiso   1.00
O1005  O     0.75000   0.50000   0.25000   0.00000  Uiso   1.00
O1006  O     0.75000   0.96963   0.66245   0.00000  Uiso   1.00
O1007  O     0.96964   0.75000   0.33755   0.00000  Uiso   1.00
O1008  O     0.53037   0.75000   0.66245   0.00000  Uiso   1.00
O1009  O     0.50000   0.71963   0.83755   0.00000  Uiso   1.00
O1010  O     0.50000   0.78036   0.16245   0.00000  Uiso   1.00
O1011  O     0.78037   0.50000   0.83755   0.00000  Uiso   1.00
O1012  O     0.71964   0.50000   0.16245   0.00000  Uiso   1.00
O1013  O     0.50000   0.78036   0.83755   0.00000  Uiso   1.00
O1014  O     0.50000   0.71963   0.16245   0.00000  Uiso   1.00
O1015  O     0.71964   0.50000   0.83755   0.00000  Uiso   1.00
O1016  O     0.75000   0.50000   0.75000   0.00000  Uiso   1.00
O1017  O     0.78037   0.50000   0.16245   0.00000  Uiso   1.00
O1018  O     0.70725   0.57307   0.27302   0.00000  Uiso   1.00
O1019  O     0.79276   0.92692   0.72698   0.00000  Uiso   1.00
O1020  O     0.92693   0.70724   0.27302   0.00000  Uiso   1.00
O1021  O     0.57308   0.79275   0.72698   0.00000  Uiso   1.00
O1022  O     0.79276   0.92692   0.27302   0.00000  Uiso   1.00
O1023  O     0.70725   0.57307   0.72698   0.00000  Uiso   1.00
O1024  O     0.57308   0.79275   0.27302   0.00000  Uiso   1.00
O1025  O     0.92693   0.70724   0.72698   0.00000  Uiso   1.00
O1026  O     0.70725   0.92692   0.72698   0.00000  Uiso   1.00
O1027  O     0.50000   0.75000   0.25000   0.00000  Uiso   1.00
O1028  O     0.79276   0.57307   0.27302   0.00000  Uiso   1.00
O1029  O     0.92693   0.79275   0.72698   0.00000  Uiso   1.00
O1030  O     0.57308   0.70724   0.27302   0.00000  Uiso   1.00
O1031  O     0.79276   0.57307   0.72698   0.00000  Uiso   1.00
O1032  O     0.70725   0.92692   0.27302   0.00000  Uiso   1.00
O1033  O     0.57308   0.70724   0.72698   0.00000  Uiso   1.00
O1034  O     0.92693   0.79275   0.27302   0.00000  Uiso   1.00
O1035  O     0.95725   0.82307   0.77302   0.00000  Uiso   1.00
O1036  O     0.54276   0.67692   0.22698   0.00000  Uiso   1.00
O1037  O     0.67693   0.95724   0.77302   0.00000  Uiso   1.00
O1038  O     0.50000   0.75000   0.75000   0.00000  Uiso   1.00
O1039  O     0.82308   0.54275   0.22698   0.00000  Uiso   1.00
O1040  O     0.54276   0.67692   0.77302   0.00000  Uiso   1.00
O1041  O     0.95725   0.82307   0.22698   0.00000  Uiso   1.00
O1042  O     0.82308   0.54275   0.77302   0.00000  Uiso   1.00
O1043  O     0.67693   0.95724   0.22698   0.00000  Uiso   1.00
O1044  O     0.95725   0.67692   0.22698   0.00000  Uiso   1.00
O1045  O     0.54276   0.82307   0.77302   0.00000  Uiso   1.00
O1046  O     0.67693   0.54275   0.22698   0.00000  Uiso   1.00
O1047  O     0.82308   0.95724   0.77302   0.00000  Uiso   1.00
O1048  O     0.54276   0.82307   0.22698   0.00000  Uiso   1.00
O1049  O     0.75000   0.96963   0.33755   0.00000  Uiso   1.00
O1050  O     0.95725   0.67692   0.77302   0.00000  Uiso   1.00
O1051  O     0.82308   0.95724   0.22698   0.00000  Uiso   1.00
O1052  O     0.67693   0.54275   0.77302   0.00000  Uiso   1.00
O1053  O     0.75000   0.53036   0.66245   0.00000  Uiso   1.00
O1054  O     0.53037   0.75000   0.33755   0.00000  Uiso   1.00
O1055  O     0.96964   0.75000   0.66245   0.00000  Uiso   1.00
O1056  O     0.75000   0.53036   0.33755   0.00000  Uiso   1.00
Zn1057 Zn    0.70660   0.50000   0.21735   0.00000  Uiso   1.00
Zn1058 Zn    0.54341   0.75000   0.28265   0.00000  Uiso   1.00
Zn1059 Zn    0.75000   0.95659   0.71735   0.00000  Uiso   1.00
Zn1060 Zn    0.75000   0.54340   0.28265   0.00000  Uiso   1.00
Zn1061 Zn    0.54341   0.75000   0.71735   0.00000  Uiso   1.00
Zn1062 Zn    0.95660   0.75000   0.28265   0.00000  Uiso   1.00
Zn1063 Zn    0.75000   0.54340   0.71735   0.00000  Uiso   1.00
Zn1064 Zn    0.75000   0.95659   0.28265   0.00000  Uiso   1.00
Zn1065 Zn    0.79341   0.50000   0.78265   0.00000  Uiso   1.00
Zn1066 Zn    0.50000   0.70659   0.21735   0.00000  Uiso   1.00
Zn1067 Zn    0.50000   0.79340   0.78265   0.00000  Uiso   1.00
Zn1068 Zn    0.79341   0.50000   0.21735   0.00000  Uiso   1.00
Zn1069 Zn    0.70660   0.50000   0.78265   0.00000  Uiso   1.00
Zn1070 Zn    0.50000   0.79340   0.21735   0.00000  Uiso   1.00
Zn1071 Zn    0.50000   0.70659   0.78265   0.00000  Uiso   1.00
Zn1072 Zn    0.95660   0.75000   0.71735   0.00000  Uiso   1.00
loop_
_geom_bond_atom_site_label_1
_geom_bond_atom_site_label_2
_geom_bond_distance
_geom_bond_site_symmetry_2
_ccdc_geom_bond_type
C1     Cl145   1.777   .     S
C1     C4      1.414   .     A
C1     C314    1.398   .     S
C2     C14     1.414   .     A
C2     Cl155   1.777   .     S
C2     C588    1.397   .     A
C3     C115    1.414   .     A
C3     C574    1.425   .     S
C3     C594    1.416   .     S
C4     C59     1.416   .     A
C4     C302    1.425   .     S
C5     C49     1.414   .     A
C5     C304    1.425   .     S
C5     C329    1.416   .     S
C6     C60     1.414   .     A
C6     C37     1.425   .     A
C6     C62     1.416   .     A
C7     C71     1.414   .     A
C7     C38     1.425   .     A
C7     C599    1.416   1_545 S
C8     C64     1.416   .     A
C8     C35     1.414   .     A
C8     C575    1.425   .     S
C9     C43     1.414   .     A
C9     C65     1.416   .     A
C9     C40     1.425   .     S
C10    C41     1.425   .     A
C10    C66     1.416   .     A
C10    C44     1.414   .     A
C11    C67     1.416   .     A
C11    C45     1.414   .     A
C11    C310    1.425   .     S
C12    C68     1.416   .     A
C12    C39     1.425   .     A
C12    C126    1.414   .     A
C13    Cl156   1.777   .     S
C13    C15     1.414   .     A
C13    C321    1.398   .     S
C14    C69     1.416   .     A
C14    C576    1.425   .     A
C15    C70     1.416   .     A
C15    C309    1.425   .     S
C16    C72     1.416   .     A
C16    C24     1.414   .     A
C16    C42     1.425   .     A
C17    C88     1.456   .     S
C17    C118    1.402   .     A
C17    C116    1.402   .     A
C18    C114    1.402   .     A
C18    C89     1.456   .     S
C18    C117    1.402   .     A
C19    C113    1.402   .     A
C19    C120    1.402   .     A
C19    C81     1.456   .     S
C20    C112    1.402   .     A
C20    C119    1.402   .     A
C20    C83     1.456   .     S
C21    C122    1.402   .     A
C21    C111    1.402   .     A
C21    C84     1.456   .     S
C22    C85     1.456   .     S
C22    C110    1.402   .     A
C22    C121    1.402   .     A
C23    C124    1.402   .     A
C23    C86     1.456   .     S
C23    C109    1.402   .     A
C24    Cl157   1.777   .     S
C24    C54     1.397   .     S
C25    C123    1.402   .     A
C25    C87     1.456   .     S
C25    C108    1.402   .     A
C26    C127    1.402   .     A
C26    C107    1.402   .     A
C26    C97     1.456   .     S
C27    C98     1.456   .     S
C27    C106    1.402   .     A
C27    C125    1.402   .     A
C28    C105    1.402   .     A
C28    C129    1.402   .     A
C28    C90     1.456   .     S
C29    C103    1.402   .     A
C29    C128    1.402   .     A
C29    C91     1.456   .     S
C30    C131    1.402   .     A
C30    C92     1.456   .     S
C30    C102    1.402   .     A
C31    C101    1.402   .     A
C31    C130    1.402   .     A
C31    C94     1.456   .     S
C32    C133    1.402   .     A
C32    C100    1.402   .     A
C32    C95     1.456   .     S
C33    C99     1.402   .     A
C33    C132    1.402   .     A
C33    C96     1.456   .     S
C34    C36     1.416   .     A
C34    C134    1.425   .     A
C34    C272    1.425   1_455 S
C35    Cl158   1.777   .     S
C35    C587    1.398   .     S
C36    C135    1.425   .     A
C36    C273    1.425   1_455 S
C37    C38     1.416   .     A
C37    C672    1.425   1_545 S
C38    C539    1.425   1_545 S
C39    C544    1.425   1_545 S
C39    C40     1.416   1_556 S
C40    C550    1.425   1_545 A
C40    C39     1.416   1_554 S
C41    C283    1.425   1_455 S
C41    C42     1.416   1_556 S
C42    C279    1.425   1_455 S
C42    C41     1.416   1_554 S
C43    Cl160   1.777   .     S
C43    C52     1.397   .     S
C44    C53     1.398   .     A
C44    Cl161   1.777   .     S
C45    Cl162   1.777   .     S
C45    C322    1.397   .     A
C46    C75     1.454   .     S
C46    C82     1.398   .     A
C46    C269    1.398   1_455 S
C47    C76     1.453   .     S
C47    C93     1.397   .     A
C47    C317    1.397   1_455 S
C48    C60     1.398   .     A
C48    C73     1.454   .     S
C48    C640    1.398   1_545 S
C49    Cl146   1.777   .     S
C49    C315    1.397   .     S
C50    C71     1.397   .     A
C50    C74     1.453   .     S
C50    C651    1.397   1_545 S
C51    C126    1.398   .     A
C51    C571    1.398   1_545 S
C51    C79     1.454   .     S
C52    C538    1.397   1_545 A
C52    C80     1.453   .     S
C53    C77     1.454   .     S
C53    C281    1.398   1_455 S
C54    C313    1.397   1_455 A
C54    C78     1.453   .     S
C55    C134    1.416   .     A
C55    C61     1.398   .     A
C55    Cl405   1.775   1_455 S
C56    C59     1.398   .     A
C56    Cl148   1.775   .     S
C56    C403    1.416   .     S
C57    C136    1.416   .     A
C57    C63     1.398   .     A
C57    Cl695   1.775   .     S
C58    C62     1.398   .     A
C58    Cl163   1.775   .     S
C58    C539    1.416   1_545 S
C59    Cl432   1.775   .     S
C60    Cl147   1.777   .     S
C61    Cl165   1.775   .     S
C61    C273    1.416   1_455 S
C62    Cl702   1.775   1_545 S
C63    Cl167   1.775   .     S
C63    C543    1.416   .     S
C64    Cl168   1.775   .     S
C64    C69     1.398   1_556 S
C65    Cl138   1.775   .     S
C65    C68     1.398   1_554 S
C66    Cl139   1.775   .     S
C66    C72     1.398   1_556 S
C67    Cl140   1.775   .     S
C67    C70     1.398   1_554 S
C68    Cl141   1.775   .     S
C68    C65     1.398   1_556 S
C69    Cl142   1.775   .     S
C69    C64     1.398   1_554 S
C70    Cl143   1.775   .     S
C70    C67     1.398   1_556 S
C71    Cl149   1.777   .     S
C72    Cl144   1.775   .     S
C72    C66     1.398   1_554 S
C73    O252    1.277   .     A
C73    O781    1.277   1_545 S
C74    O249    1.277   .     A
C74    O738    1.277   1_545 S
C75    O250    1.277   .     A
C75    O471    1.277   1_455 S
C76    O204    1.277   .     A
C76    O519    1.277   1_455 S
C77    O205    1.277   .     S
C77    O209    1.277   .     S
C78    O210    1.277   .     A
C78    O206    1.277   .     A
C79    O211    1.277   .     A
C79    O207    1.277   .     A
C80    O208    1.277   .     A
C80    O213    1.277   .     A
C81    O242    1.281   .     A
C81    O214    1.281   .     A
C82    C134    1.414   .     A
C82    Cl150   1.777   .     S
C83    O243    1.281   .     A
C83    O215    1.281   .     A
C84    O240    1.281   .     A
C84    O216    1.281   .     A
C85    O217    1.281   .     A
C85    O241    1.281   .     A
C86    O247    1.281   .     A
C86    O218    1.281   .     A
C87    O248    1.281   .     A
C87    O219    1.281   .     A
C88    O244    1.281   .     A
C88    O220    1.281   .     A
C89    O246    1.281   .     A
C89    O221    1.281   .     A
C90    O222    1.281   .     A
C90    O233    1.281   .     A
C91    O235    1.281   .     A
C91    O224    1.281   .     A
C92    O231    1.281   .     A
C92    O225    1.281   .     A
C93    Cl151   1.777   .     S
C93    C135    1.414   .     A
C94    O232    1.281   .     A
C94    O226    1.281   .     A
C95    O238    1.281   .     A
C95    O227    1.281   .     A
C96    O228    1.281   .     A
C96    O239    1.281   .     A
C97    O229    1.281   .     A
C97    O236    1.281   .     A
C98    O237    1.281   .     A
C98    O230    1.281   .     A
C99    C116    1.387   .     A
C99    H169    1.083   .     S
C100   C114    1.386   .     A
C100   H180    1.083   .     S
C101   C113    1.386   .     A
C101   H191    1.083   .     S
C102   H195    1.083   .     S
C102   C112    1.386   .     A
C103   C111    1.386   .     A
C103   H196    1.083   .     S
C104   C136    1.414   .     A
C104   Cl152   1.777   .     S
C104   C584    1.398   .     S
C105   C110    1.386   .     A
C105   H197    1.083   .     S
C106   H198    1.083   .     S
C106   C109    1.386   .     A
C107   H199    1.083   .     S
C107   C108    1.386   .     A
C108   H200    1.083   .     S
C109   H170    1.083   .     S
C110   H171    1.083   .     S
C111   H172    1.083   .     S
C112   H173    1.083   .     S
C113   H174    1.083   .     S
C114   H175    1.083   .     S
C115   Cl153   1.777   .     S
C115   C586    1.397   .     S
C116   H176    1.083   .     S
C117   C133    1.387   .     A
C117   H177    1.083   .     S
C118   H178    1.083   .     S
C118   C132    1.386   .     A
C119   C131    1.386   .     A
C119   H179    1.083   .     S
C120   C130    1.386   .     A
C120   H181    1.083   .     S
C121   C129    1.387   .     A
C121   H182    1.083   .     S
C122   H183    1.083   .     S
C122   C128    1.386   .     A
C123   H184    1.083   .     S
C123   C127    1.386   .     A
C124   C125    1.386   .     A
C124   H185    1.083   .     S
C125   H186    1.083   .     S
C126   Cl154   1.777   .     S
C127   H187    1.083   .     S
C128   H188    1.083   .     S
C129   H189    1.083   .     S
C130   H190    1.083   .     S
C131   H192    1.083   .     S
C132   H193    1.083   .     S
C133   H194    1.083   .     S
C135   C324    1.416   1_455 S
C136   C573    1.425   .     S
Cl137  C323    1.775   .     S
Cl159  C593    1.775   1_545 S
Cl164  C327    1.775   1_455 S
Cl166  C598    1.775   .     S
O201   Zn264   1.948   .     S
O201   Zn796   1.948   1_545 S
O201   Zn253   1.948   .     S
O201   Zn256   1.948   .     S
O202   Zn255   1.946   .     S
O202   C610    1.277   .     S
O203   Zn258   1.946   .     S
O203   C343    1.277   .     S
O204   Zn257   1.946   .     S
O205   Zn267   1.946   .     S
O206   Zn266   1.946   .     S
O207   Zn261   1.946   .     S
O208   Zn253   1.946   .     S
O209   Zn263   1.946   .     S
O210   Zn262   1.946   .     S
O211   Zn265   1.946   .     S
O212   Zn261   1.948   .     S
O212   Zn265   1.948   .     S
O212   Zn791   1.948   1_545 S
O212   Zn259   1.948   .     S
O213   Zn264   1.946   .     S
O214   Zn256   1.938   .     S
O215   Zn255   1.938   .     S
O216   Zn258   1.938   .     S
O217   Zn257   1.938   .     S
O218   Zn260   1.938   .     S
O219   Zn259   1.938   .     S
O220   Zn254   1.938   .     S
O221   Zn268   1.938   .     S
O222   Zn255   1.938   .     S
O223   Zn266   1.948   .     S
O223   Zn254   1.948   .     S
O223   Zn526   1.948   1_455 S
O223   Zn262   1.948   .     S
O224   Zn256   1.938   .     S
O225   Zn268   1.938   .     S
O226   Zn254   1.938   .     S
O227   Zn259   1.938   .     S
O228   Zn260   1.938   .     S
O229   Zn257   1.938   .     S
O230   Zn258   1.938   .     S
O231   Zn531   1.938   .     S
O232   Zn262   1.938   .     S
O233   Zn801   1.938   .     S
O234   Zn257   1.948   .     S
O234   Zn263   1.948   .     S
O234   Zn267   1.948   .     S
O234   Zn536   1.948   1_455 S
O235   Zn264   1.938   .     S
O236   Zn267   1.938   .     S
O237   Zn534   1.938   .     S
O238   Zn261   1.938   .     S
O239   Zn789   1.938   .     S
O240   Zn530   1.938   .     S
O241   Zn263   1.938   .     S
O242   Zn253   1.938   .     S
O243   Zn797   1.938   .     S
O244   Zn266   1.938   .     S
O245   Zn260   1.946   .     S
O245   C609    1.277   .     S
O246   Zn535   1.938   .     S
O247   Zn800   1.938   .     S
O248   Zn265   1.938   .     S
O249   Zn259   1.946   .     S
O250   Zn254   1.946   .     S
O251   Zn268   1.946   .     S
O251   C344    1.277   .     S
O252   Zn256   1.946   .     S
Zn253  O775    1.938   1_545 S
Zn255  O748    1.948   .     S
Zn258  O491    1.948   .     S
Zn260  O737    1.948   .     S
Zn261  O779    1.938   1_545 S
Zn262  O508    1.938   1_455 S
Zn263  O499    1.938   1_455 S
Zn264  O783    1.938   1_545 S
Zn265  O769    1.938   1_545 S
Zn266  O505    1.938   1_455 S
Zn267  O514    1.938   1_455 S
Zn268  O502    1.948   .     S
C269   Cl413   1.777   .     S
C269   C272    1.414   .     A
C269   C46     1.398   1_655 S
C270   C282    1.414   .     A
C270   Cl423   1.777   .     S
C270   C856    1.397   .     A
C271   C383    1.414   .     A
C271   C842    1.425   .     S
C271   C862    1.416   .     S
C272   C327    1.416   .     A
C272   C34     1.425   1_655 S
C273   C317    1.414   .     A
C273   C36     1.425   1_655 S
C273   C61     1.416   1_655 S
C274   C328    1.414   .     A
C274   C305    1.425   .     A
C274   C330    1.416   .     A
C275   C339    1.414   .     A
C275   C306    1.425   .     A
C275   C867    1.416   1_545 S
C276   C332    1.416   .     A
C276   C303    1.414   .     A
C276   C843    1.425   .     S
C277   C311    1.414   .     A
C277   C333    1.416   .     A
C277   C308    1.425   .     S
C278   C309    1.425   .     A
C278   C334    1.416   .     A
C278   C312    1.414   .     A
C279   C335    1.416   .     A
C279   C313    1.414   .     A
C279   C42     1.425   1_655 S
C280   C336    1.416   .     A
C280   C307    1.425   .     A
C280   C394    1.414   .     A
C281   Cl424   1.777   .     S
C281   C283    1.414   .     A
C281   C53     1.398   1_655 S
C282   C337    1.416   .     A
C282   C844    1.425   .     A
C283   C338    1.416   .     A
C283   C41     1.425   1_655 S
C284   C340    1.416   .     A
C284   C292    1.414   .     A
C284   C310    1.425   .     A
C285   C356    1.456   .     S
C285   C386    1.402   .     A
C285   C384    1.402   .     A
C286   C382    1.402   .     A
C286   C357    1.456   .     S
C286   C385    1.402   .     A
C287   C381    1.402   .     A
C287   C388    1.402   .     A
C287   C349    1.456   .     S
C288   C380    1.402   .     A
C288   C387    1.402   .     A
C288   C351    1.456   .     S
C289   C390    1.402   .     A
C289   C379    1.402   .     A
C289   C352    1.456   .     S
C290   C353    1.456   .     S
C290   C378    1.402   .     A
C290   C389    1.402   .     A
C291   C392    1.402   .     A
C291   C354    1.456   .     S
C291   C377    1.402   .     A
C292   Cl425   1.777   .     S
C292   C322    1.397   .     S
C293   C391    1.402   .     A
C293   C355    1.456   .     S
C293   C376    1.402   .     A
C294   C395    1.402   .     A
C294   C375    1.402   .     A
C294   C365    1.456   .     S
C295   C366    1.456   .     S
C295   C374    1.402   .     A
C295   C393    1.402   .     A
C296   C373    1.402   .     A
C296   C397    1.402   .     A
C296   C358    1.456   .     S
C297   C371    1.402   .     A
C297   C396    1.402   .     A
C297   C359    1.456   .     S
C298   C399    1.402   .     A
C298   C360    1.456   .     S
C298   C370    1.402   .     A
C299   C369    1.402   .     A
C299   C398    1.402   .     A
C299   C362    1.456   .     S
C300   C401    1.402   .     A
C300   C368    1.402   .     A
C300   C363    1.456   .     S
C301   C367    1.402   .     A
C301   C400    1.402   .     A
C301   C364    1.456   .     S
C302   C304    1.416   .     A
C302   C402    1.425   .     A
C303   Cl426   1.777   .     S
C303   C855    1.398   .     S
C304   C403    1.425   .     A
C305   C306    1.416   .     A
C305   C940    1.425   1_545 S
C306   C807    1.425   1_545 S
C307   C812    1.425   1_545 S
C307   C308    1.416   1_556 S
C308   C818    1.425   1_545 A
C308   C307    1.416   1_554 S
C309   C310    1.416   1_556 S
C310   C309    1.416   1_554 S
C311   Cl428   1.777   .     S
C311   C320    1.397   .     S
C312   C321    1.398   .     A
C312   Cl429   1.777   .     S
C313   Cl430   1.777   .     S
C313   C54     1.397   1_655 A
C314   C343    1.454   .     S
C314   C350    1.398   .     A
C315   C344    1.453   .     S
C315   C361    1.397   .     A
C316   C328    1.398   .     A
C316   C341    1.454   .     S
C316   C908    1.398   1_545 S
C317   Cl414   1.777   .     S
C317   C47     1.397   1_655 S
C318   C339    1.397   .     A
C318   C342    1.453   .     S
C318   C919    1.397   1_545 S
C319   C394    1.398   .     A
C319   C839    1.398   1_545 S
C319   C347    1.454   .     S
C320   C806    1.397   1_545 A
C320   C348    1.453   .     S
C321   C345    1.454   .     S
C322   C346    1.453   .     S
C323   C402    1.416   .     A
C323   C329    1.398   .     A
C324   C327    1.398   .     A
C324   Cl416   1.775   .     S
C324   C135    1.416   1_655 S
C325   C404    1.416   .     A
C325   C331    1.398   .     A
C325   Cl963   1.775   .     S
C326   C330    1.398   .     A
C326   Cl431   1.775   .     S
C326   C807    1.416   1_545 S
C327   Cl164   1.775   1_655 S
C328   Cl415   1.777   .     S
C329   Cl433   1.775   .     S
C330   Cl970   1.775   1_545 S
C331   Cl435   1.775   .     S
C331   C811    1.416   .     S
C332   Cl436   1.775   .     S
C332   C337    1.398   1_556 S
C333   Cl406   1.775   .     S
C333   C336    1.398   1_554 S
C334   Cl407   1.775   .     S
C334   C340    1.398   1_556 S
C335   Cl408   1.775   .     S
C335   C338    1.398   1_554 S
C336   Cl409   1.775   .     S
C336   C333    1.398   1_556 S
C337   Cl410   1.775   .     S
C337   C332    1.398   1_554 S
C338   Cl411   1.775   .     S
C338   C335    1.398   1_556 S
C339   Cl417   1.777   .     S
C340   Cl412   1.775   .     S
C340   C334    1.398   1_554 S
C341   O520    1.277   .     A
C341   O1049   1.277   1_545 S
C342   O517    1.277   .     A
C342   O1006   1.277   1_545 S
C343   O518    1.277   .     A
C344   O472    1.277   .     A
C345   O473    1.277   .     S
C345   O477    1.277   .     S
C346   O478    1.277   .     A
C346   O474    1.277   .     A
C347   O479    1.277   .     A
C347   O475    1.277   .     A
C348   O476    1.277   .     A
C348   O481    1.277   .     A
C349   O510    1.281   .     A
C349   O482    1.281   .     A
C350   C402    1.414   .     A
C350   Cl418   1.777   .     S
C351   O511    1.281   .     A
C351   O483    1.281   .     A
C352   O508    1.281   .     A
C352   O484    1.281   .     A
C353   O485    1.281   .     A
C353   O509    1.281   .     A
C354   O515    1.281   .     A
C354   O486    1.281   .     A
C355   O516    1.281   .     A
C355   O487    1.281   .     A
C356   O512    1.281   .     A
C356   O488    1.281   .     A
C357   O514    1.281   .     A
C357   O489    1.281   .     A
C358   O490    1.281   .     A
C358   O501    1.281   .     A
C359   O503    1.281   .     A
C359   O492    1.281   .     A
C360   O499    1.281   .     A
C360   O493    1.281   .     A
C361   Cl419   1.777   .     S
C361   C403    1.414   .     A
C362   O500    1.281   .     A
C362   O494    1.281   .     A
C363   O506    1.281   .     A
C363   O495    1.281   .     A
C364   O496    1.281   .     A
C364   O507    1.281   .     A
C365   O497    1.281   .     A
C365   O504    1.281   .     A
C366   O505    1.281   .     A
C366   O498    1.281   .     A
C367   C384    1.387   .     A
C367   H437    1.083   .     S
C368   C382    1.386   .     A
C368   H448    1.083   .     S
C369   C381    1.386   .     A
C369   H459    1.083   .     S
C370   H463    1.083   .     S
C370   C380    1.386   .     A
C371   C379    1.386   .     A
C371   H464    1.083   .     S
C372   C404    1.414   .     A
C372   Cl420   1.777   .     S
C372   C852    1.398   .     S
C373   C378    1.386   .     A
C373   H465    1.083   .     S
C374   H466    1.083   .     S
C374   C377    1.386   .     A
C375   H467    1.083   .     S
C375   C376    1.386   .     A
C376   H468    1.083   .     S
C377   H438    1.083   .     S
C378   H439    1.083   .     S
C379   H440    1.083   .     S
C380   H441    1.083   .     S
C381   H442    1.083   .     S
C382   H443    1.083   .     S
C383   Cl421   1.777   .     S
C383   C854    1.397   .     S
C384   H444    1.083   .     S
C385   C401    1.387   .     A
C385   H445    1.083   .     S
C386   H446    1.083   .     S
C386   C400    1.386   .     A
C387   C399    1.386   .     A
C387   H447    1.083   .     S
C388   C398    1.386   .     A
C388   H449    1.083   .     S
C389   C397    1.387   .     A
C389   H450    1.083   .     S
C390   H451    1.083   .     S
C390   C396    1.386   .     A
C391   H452    1.083   .     S
C391   C395    1.386   .     A
C392   C393    1.386   .     A
C392   H453    1.083   .     S
C393   H454    1.083   .     S
C394   Cl422   1.777   .     S
C395   H455    1.083   .     S
C396   H456    1.083   .     S
C397   H457    1.083   .     S
C398   H458    1.083   .     S
C399   H460    1.083   .     S
C400   H461    1.083   .     S
C401   H462    1.083   .     S
C404   C841    1.425   .     S
Cl405  C55     1.775   1_655 S
Cl427  C861    1.775   1_545 S
Cl434  C866    1.775   .     S
O469   Zn532   1.948   .     S
O469   Zn1064  1.948   1_545 S
O469   Zn521   1.948   .     S
O469   Zn524   1.948   .     S
O470   Zn523   1.946   .     S
O470   C878    1.277   .     S
O471   Zn526   1.946   .     S
O471   C75     1.277   1_655 S
O472   Zn525   1.946   .     S
O473   Zn535   1.946   .     S
O474   Zn534   1.946   .     S
O475   Zn529   1.946   .     S
O476   Zn521   1.946   .     S
O477   Zn531   1.946   .     S
O478   Zn530   1.946   .     S
O479   Zn533   1.946   .     S
O480   Zn529   1.948   .     S
O480   Zn533   1.948   .     S
O480   Zn1059  1.948   1_545 S
O480   Zn527   1.948   .     S
O481   Zn532   1.946   .     S
O482   Zn524   1.938   .     S
O483   Zn523   1.938   .     S
O484   Zn526   1.938   .     S
O485   Zn525   1.938   .     S
O486   Zn528   1.938   .     S
O487   Zn527   1.938   .     S
O488   Zn522   1.938   .     S
O489   Zn536   1.938   .     S
O490   Zn523   1.938   .     S
O491   Zn534   1.948   .     S
O491   Zn522   1.948   .     S
O491   Zn530   1.948   .     S
O492   Zn524   1.938   .     S
O493   Zn536   1.938   .     S
O494   Zn522   1.938   .     S
O495   Zn527   1.938   .     S
O496   Zn528   1.938   .     S
O497   Zn525   1.938   .     S
O498   Zn526   1.938   .     S
O499   Zn263   1.938   1_655 S
O500   Zn530   1.938   .     S
O501   Zn1069  1.938   .     S
O502   Zn525   1.948   .     S
O502   Zn531   1.948   .     S
O502   Zn535   1.948   .     S
O503   Zn532   1.938   .     S
O504   Zn535   1.938   .     S
O505   Zn266   1.938   1_655 S
O506   Zn529   1.938   .     S
O507   Zn1057  1.938   .     S
O508   Zn262   1.938   1_655 S
O509   Zn531   1.938   .     S
O510   Zn521   1.938   .     S
O511   Zn1065  1.938   .     S
O512   Zn534   1.938   .     S
O513   Zn528   1.946   .     S
O513   C877    1.277   .     S
O514   Zn267   1.938   1_655 S
O515   Zn1068  1.938   .     S
O516   Zn533   1.938   .     S
O517   Zn527   1.946   .     S
O518   Zn522   1.946   .     S
O519   Zn536   1.946   .     S
O519   C76     1.277   1_655 S
O520   Zn524   1.946   .     S
Zn521  O1043   1.938   1_545 S
Zn523  O1016   1.948   .     S
Zn526  O223    1.948   1_655 S
Zn528  O1005   1.948   .     S
Zn529  O1047   1.938   1_545 S
Zn532  O1051   1.938   1_545 S
Zn533  O1037   1.938   1_545 S
Zn536  O234    1.948   1_655 S
C537   Cl681   1.777   .     S
C537   C540    1.414   .     A
C537   C850    1.398   .     S
C538   C550    1.414   .     A
C538   Cl691   1.777   .     S
C538   C52     1.397   1_565 A
C539   C651    1.414   .     A
C539   C38     1.425   1_565 S
C539   C58     1.416   1_565 S
C540   C595    1.416   .     A
C540   C838    1.425   .     S
C541   C585    1.414   .     A
C541   C840    1.425   .     S
C541   C865    1.416   .     S
C542   C596    1.414   .     A
C542   C573    1.425   .     A
C542   C598    1.416   .     A
C543   C607    1.414   .     A
C543   C574    1.425   .     A
C544   C600    1.416   .     A
C544   C571    1.414   .     A
C544   C39     1.425   1_565 S
C545   C579    1.414   .     A
C545   C601    1.416   .     A
C545   C576    1.425   .     S
C546   C577    1.425   .     A
C546   C602    1.416   .     A
C546   C580    1.414   .     A
C547   C603    1.416   .     A
C547   C581    1.414   .     A
C547   C846    1.425   .     S
C548   C604    1.416   .     A
C548   C575    1.425   .     A
C548   C662    1.414   .     A
C549   Cl692   1.777   .     S
C549   C551    1.414   .     A
C549   C857    1.398   .     S
C550   C605    1.416   .     A
C550   C40     1.425   1_565 A
C551   C606    1.416   .     A
C551   C845    1.425   .     S
C552   C608    1.416   .     A
C552   C560    1.414   .     A
C552   C578    1.425   .     A
C553   C624    1.456   .     S
C553   C654    1.402   .     A
C553   C652    1.402   .     A
C554   C650    1.402   .     A
C554   C625    1.456   .     S
C554   C653    1.402   .     A
C555   C649    1.402   .     A
C555   C656    1.402   .     A
C555   C617    1.456   .     S
C556   C648    1.402   .     A
C556   C655    1.402   .     A
C556   C619    1.456   .     S
C557   C658    1.402   .     A
C557   C647    1.402   .     A
C557   C620    1.456   .     S
C558   C621    1.456   .     S
C558   C646    1.402   .     A
C558   C657    1.402   .     A
C559   C660    1.402   .     A
C559   C622    1.456   .     S
C559   C645    1.402   .     A
C560   Cl693   1.777   .     S
C560   C590    1.397   .     S
C561   C659    1.402   .     A
C561   C623    1.456   .     S
C561   C644    1.402   .     A
C562   C663    1.402   .     A
C562   C643    1.402   .     A
C562   C633    1.456   .     S
C563   C634    1.456   .     S
C563   C642    1.402   .     A
C563   C661    1.402   .     A
C564   C641    1.402   .     A
C564   C665    1.402   .     A
C564   C626    1.456   .     S
C565   C639    1.402   .     A
C565   C664    1.402   .     A
C565   C627    1.456   .     S
C566   C667    1.402   .     A
C566   C628    1.456   .     S
C566   C638    1.402   .     A
C567   C637    1.402   .     A
C567   C666    1.402   .     A
C567   C630    1.456   .     S
C568   C669    1.402   .     A
C568   C636    1.402   .     A
C568   C631    1.456   .     S
C569   C635    1.402   .     A
C569   C668    1.402   .     A
C569   C632    1.456   .     S
C570   C572    1.416   .     A
C570   C670    1.425   .     A
C570   C808    1.425   1_455 S
C571   Cl694   1.777   .     S
C571   C51     1.398   1_565 S
C572   C671    1.425   .     A
C572   C809    1.425   1_455 S
C573   C574    1.416   .     A
C575   C576    1.416   1_556 S
C576   C575    1.416   1_554 S
C577   C819    1.425   1_455 S
C577   C578    1.416   1_556 S
C578   C815    1.425   1_455 S
C578   C577    1.416   1_554 S
C579   Cl696   1.777   .     S
C579   C588    1.397   .     S
C580   C589    1.398   .     A
C580   Cl697   1.777   .     S
C581   Cl698   1.777   .     S
C581   C858    1.397   .     A
C582   C611    1.454   .     S
C582   C618    1.398   .     A
C582   C805    1.398   1_455 S
C583   C612    1.453   .     S
C583   C629    1.397   .     A
C583   C853    1.397   1_455 S
C584   C596    1.398   .     A
C584   C609    1.454   .     S
C585   Cl682   1.777   .     S
C585   C851    1.397   .     S
C586   C607    1.397   .     A
C586   C610    1.453   .     S
C587   C662    1.398   .     A
C587   C615    1.454   .     S
C588   C616    1.453   .     S
C589   C613    1.454   .     S
C589   C817    1.398   1_455 S
C590   C849    1.397   1_455 A
C590   C614    1.453   .     S
C591   C670    1.416   .     A
C591   C597    1.398   .     A
C591   Cl941   1.775   1_455 S
C592   C595    1.398   .     A
C592   Cl684   1.775   .     S
C592   C939    1.416   .     S
C593   C672    1.416   .     A
C593   C599    1.398   .     A
C593   Cl159   1.775   1_565 S
C594   C598    1.398   .     A
C594   Cl699   1.775   .     S
C595   Cl968   1.775   .     S
C596   Cl683   1.777   .     S
C597   Cl701   1.775   .     S
C597   C809    1.416   1_455 S
C599   Cl703   1.775   .     S
C599   C7      1.416   1_565 S
C600   Cl704   1.775   .     S
C600   C605    1.398   1_556 S
C601   Cl674   1.775   .     S
C601   C604    1.398   1_554 S
C602   Cl675   1.775   .     S
C602   C608    1.398   1_556 S
C603   Cl676   1.775   .     S
C603   C606    1.398   1_554 S
C604   Cl677   1.775   .     S
C604   C601    1.398   1_556 S
C605   Cl678   1.775   .     S
C605   C600    1.398   1_554 S
C606   Cl679   1.775   .     S
C606   C603    1.398   1_556 S
C607   Cl685   1.777   .     S
C608   Cl680   1.775   .     S
C608   C602    1.398   1_554 S
C609   O788    1.277   .     A
C610   O785    1.277   .     A
C611   O786    1.277   .     A
C611   O1007   1.277   1_455 S
C612   O740    1.277   .     A
C612   O1055   1.277   1_455 S
C613   O741    1.277   .     S
C613   O745    1.277   .     S
C614   O746    1.277   .     A
C614   O742    1.277   .     A
C615   O747    1.277   .     A
C615   O743    1.277   .     A
C616   O744    1.277   .     A
C616   O749    1.277   .     A
C617   O778    1.281   .     A
C617   O750    1.281   .     A
C618   C670    1.414   .     A
C618   Cl686   1.777   .     S
C619   O779    1.281   .     A
C619   O751    1.281   .     A
C620   O776    1.281   .     A
C620   O752    1.281   .     A
C621   O753    1.281   .     A
C621   O777    1.281   .     A
C622   O783    1.281   .     A
C622   O754    1.281   .     A
C623   O784    1.281   .     A
C623   O755    1.281   .     A
C624   O780    1.281   .     A
C624   O756    1.281   .     A
C625   O782    1.281   .     A
C625   O757    1.281   .     A
C626   O758    1.281   .     A
C626   O769    1.281   .     A
C627   O771    1.281   .     A
C627   O760    1.281   .     A
C628   O767    1.281   .     A
C628   O761    1.281   .     A
C629   Cl687   1.777   .     S
C629   C671    1.414   .     A
C630   O768    1.281   .     A
C630   O762    1.281   .     A
C631   O774    1.281   .     A
C631   O763    1.281   .     A
C632   O764    1.281   .     A
C632   O775    1.281   .     A
C633   O765    1.281   .     A
C633   O772    1.281   .     A
C634   O773    1.281   .     A
C634   O766    1.281   .     A
C635   C652    1.387   .     A
C635   H705    1.083   .     S
C636   C650    1.386   .     A
C636   H716    1.083   .     S
C637   C649    1.386   .     A
C637   H727    1.083   .     S
C638   H731    1.083   .     S
C638   C648    1.386   .     A
C639   C647    1.386   .     A
C639   H732    1.083   .     S
C640   C672    1.414   .     A
C640   Cl688   1.777   .     S
C640   C48     1.398   1_565 S
C641   C646    1.386   .     A
C641   H733    1.083   .     S
C642   H734    1.083   .     S
C642   C645    1.386   .     A
C643   H735    1.083   .     S
C643   C644    1.386   .     A
C644   H736    1.083   .     S
C645   H706    1.083   .     S
C646   H707    1.083   .     S
C647   H708    1.083   .     S
C648   H709    1.083   .     S
C649   H710    1.083   .     S
C650   H711    1.083   .     S
C651   Cl689   1.777   .     S
C651   C50     1.397   1_565 S
C652   H712    1.083   .     S
C653   C669    1.387   .     A
C653   H713    1.083   .     S
C654   H714    1.083   .     S
C654   C668    1.386   .     A
C655   C667    1.386   .     A
C655   H715    1.083   .     S
C656   C666    1.386   .     A
C656   H717    1.083   .     S
C657   C665    1.387   .     A
C657   H718    1.083   .     S
C658   H719    1.083   .     S
C658   C664    1.386   .     A
C659   H720    1.083   .     S
C659   C663    1.386   .     A
C660   C661    1.386   .     A
C660   H721    1.083   .     S
C661   H722    1.083   .     S
C662   Cl690   1.777   .     S
C663   H723    1.083   .     S
C664   H724    1.083   .     S
C665   H725    1.083   .     S
C666   H726    1.083   .     S
C667   H728    1.083   .     S
C668   H729    1.083   .     S
C669   H730    1.083   .     S
C671   C860    1.416   1_455 S
C672   C37     1.425   1_565 S
Cl673  C859    1.775   .     S
Cl700  C863    1.775   1_455 S
Cl702  C62     1.775   1_565 S
O737   Zn800   1.948   .     S
O737   Zn789   1.948   .     S
O737   Zn792   1.948   .     S
O738   Zn791   1.946   .     S
O738   C74     1.277   1_565 S
O739   Zn794   1.946   .     S
O739   C879    1.277   .     S
O740   Zn793   1.946   .     S
O741   Zn803   1.946   .     S
O742   Zn802   1.946   .     S
O743   Zn797   1.946   .     S
O744   Zn789   1.946   .     S
O745   Zn799   1.946   .     S
O746   Zn798   1.946   .     S
O747   Zn801   1.946   .     S
O748   Zn797   1.948   .     S
O748   Zn801   1.948   .     S
O748   Zn795   1.948   .     S
O749   Zn800   1.946   .     S
O750   Zn792   1.938   .     S
O751   Zn791   1.938   .     S
O752   Zn794   1.938   .     S
O753   Zn793   1.938   .     S
O754   Zn796   1.938   .     S
O755   Zn795   1.938   .     S
O756   Zn790   1.938   .     S
O757   Zn804   1.938   .     S
O758   Zn791   1.938   .     S
O759   Zn802   1.948   .     S
O759   Zn790   1.948   .     S
O759   Zn1062  1.948   1_455 S
O759   Zn798   1.948   .     S
O760   Zn792   1.938   .     S
O761   Zn804   1.938   .     S
O762   Zn790   1.938   .     S
O763   Zn795   1.938   .     S
O764   Zn796   1.938   .     S
O765   Zn793   1.938   .     S
O766   Zn794   1.938   .     S
O767   Zn1067  1.938   .     S
O768   Zn798   1.938   .     S
O769   Zn265   1.938   1_565 S
O770   Zn793   1.948   .     S
O770   Zn799   1.948   .     S
O770   Zn803   1.948   .     S
O770   Zn1072  1.948   1_455 S
O771   Zn800   1.938   .     S
O772   Zn803   1.938   .     S
O773   Zn1070  1.938   .     S
O774   Zn797   1.938   .     S
O775   Zn253   1.938   1_565 S
O776   Zn1066  1.938   .     S
O777   Zn799   1.938   .     S
O778   Zn789   1.938   .     S
O779   Zn261   1.938   1_565 S
O780   Zn802   1.938   .     S
O781   Zn796   1.946   .     S
O781   C73     1.277   1_565 S
O782   Zn1071  1.938   .     S
O783   Zn264   1.938   1_565 S
O784   Zn801   1.938   .     S
O785   Zn795   1.946   .     S
O786   Zn790   1.946   .     S
O787   Zn804   1.946   .     S
O787   C880    1.277   .     S
O788   Zn792   1.946   .     S
Zn791  O212    1.948   1_565 S
Zn794  O1027   1.948   .     S
Zn796  O201    1.948   1_565 S
Zn798  O1044   1.938   1_455 S
Zn799  O1035   1.938   1_455 S
Zn802  O1041   1.938   1_455 S
Zn803  O1050   1.938   1_455 S
Zn804  O1038   1.948   .     S
C805   Cl949   1.777   .     S
C805   C808    1.414   .     A
C805   C582    1.398   1_655 S
C806   C818    1.414   .     A
C806   Cl959   1.777   .     S
C806   C320    1.397   1_565 A
C807   C919    1.414   .     A
C807   C306    1.425   1_565 S
C807   C326    1.416   1_565 S
C808   C863    1.416   .     A
C808   C570    1.425   1_655 S
C809   C853    1.414   .     A
C809   C572    1.425   1_655 S
C809   C597    1.416   1_655 S
C810   C864    1.414   .     A
C810   C841    1.425   .     A
C810   C866    1.416   .     A
C811   C875    1.414   .     A
C811   C842    1.425   .     A
C812   C868    1.416   .     A
C812   C839    1.414   .     A
C812   C307    1.425   1_565 S
C813   C847    1.414   .     A
C813   C869    1.416   .     A
C813   C844    1.425   .     S
C814   C845    1.425   .     A
C814   C870    1.416   .     A
C814   C848    1.414   .     A
C815   C871    1.416   .     A
C815   C849    1.414   .     A
C815   C578    1.425   1_655 S
C816   C872    1.416   .     A
C816   C843    1.425   .     A
C816   C930    1.414   .     A
C817   Cl960   1.777   .     S
C817   C819    1.414   .     A
C817   C589    1.398   1_655 S
C818   C873    1.416   .     A
C818   C308    1.425   1_565 A
C819   C874    1.416   .     A
C819   C577    1.425   1_655 S
C820   C876    1.416   .     A
C820   C828    1.414   .     A
C820   C846    1.425   .     A
C821   C892    1.456   .     S
C821   C922    1.402   .     A
C821   C920    1.402   .     A
C822   C918    1.402   .     A
C822   C893    1.456   .     S
C822   C921    1.402   .     A
C823   C917    1.402   .     A
C823   C924    1.402   .     A
C823   C885    1.456   .     S
C824   C916    1.402   .     A
C824   C923    1.402   .     A
C824   C887    1.456   .     S
C825   C926    1.402   .     A
C825   C915    1.402   .     A
C825   C888    1.456   .     S
C826   C889    1.456   .     S
C826   C914    1.402   .     A
C826   C925    1.402   .     A
C827   C928    1.402   .     A
C827   C890    1.456   .     S
C827   C913    1.402   .     A
C828   Cl961   1.777   .     S
C828   C858    1.397   .     S
C829   C927    1.402   .     A
C829   C891    1.456   .     S
C829   C912    1.402   .     A
C830   C931    1.402   .     A
C830   C911    1.402   .     A
C830   C901    1.456   .     S
C831   C902    1.456   .     S
C831   C910    1.402   .     A
C831   C929    1.402   .     A
C832   C909    1.402   .     A
C832   C933    1.402   .     A
C832   C894    1.456   .     S
C833   C907    1.402   .     A
C833   C932    1.402   .     A
C833   C895    1.456   .     S
C834   C935    1.402   .     A
C834   C896    1.456   .     S
C834   C906    1.402   .     A
C835   C905    1.402   .     A
C835   C934    1.402   .     A
C835   C898    1.456   .     S
C836   C937    1.402   .     A
C836   C904    1.402   .     A
C836   C899    1.456   .     S
C837   C903    1.402   .     A
C837   C936    1.402   .     A
C837   C900    1.456   .     S
C838   C840    1.416   .     A
C838   C938    1.425   .     A
C839   Cl962   1.777   .     S
C839   C319    1.398   1_565 S
C840   C939    1.425   .     A
C841   C842    1.416   .     A
C843   C844    1.416   1_556 S
C844   C843    1.416   1_554 S
C845   C846    1.416   1_556 S
C846   C845    1.416   1_554 S
C847   Cl964   1.777   .     S
C847   C856    1.397   .     S
C848   C857    1.398   .     A
C848   Cl965   1.777   .     S
C849   Cl966   1.777   .     S
C849   C590    1.397   1_655 A
C850   C879    1.454   .     S
C850   C886    1.398   .     A
C851   C880    1.453   .     S
C851   C897    1.397   .     A
C852   C864    1.398   .     A
C852   C877    1.454   .     S
C853   Cl950   1.777   .     S
C853   C583    1.397   1_655 S
C854   C875    1.397   .     A
C854   C878    1.453   .     S
C855   C930    1.398   .     A
C855   C883    1.454   .     S
C856   C884    1.453   .     S
C857   C881    1.454   .     S
C858   C882    1.453   .     S
C859   C938    1.416   .     A
C859   C865    1.398   .     A
C860   C863    1.398   .     A
C860   Cl952   1.775   .     S
C860   C671    1.416   1_655 S
C861   C940    1.416   .     A
C861   C867    1.398   .     A
C861   Cl427   1.775   1_565 S
C862   C866    1.398   .     A
C862   Cl967   1.775   .     S
C863   Cl700   1.775   1_655 S
C864   Cl951   1.777   .     S
C865   Cl969   1.775   .     S
C867   Cl971   1.775   .     S
C867   C275    1.416   1_565 S
C868   Cl972   1.775   .     S
C868   C873    1.398   1_556 S
C869   Cl942   1.775   .     S
C869   C872    1.398   1_554 S
C870   Cl943   1.775   .     S
C870   C876    1.398   1_556 S
C871   Cl944   1.775   .     S
C871   C874    1.398   1_554 S
C872   Cl945   1.775   .     S
C872   C869    1.398   1_556 S
C873   Cl946   1.775   .     S
C873   C868    1.398   1_554 S
C874   Cl947   1.775   .     S
C874   C871    1.398   1_556 S
C875   Cl953   1.777   .     S
C876   Cl948   1.775   .     S
C876   C870    1.398   1_554 S
C877   O1056   1.277   .     A
C878   O1053   1.277   .     A
C879   O1054   1.277   .     A
C880   O1008   1.277   .     A
C881   O1009   1.277   .     S
C881   O1013   1.277   .     S
C882   O1014   1.277   .     A
C882   O1010   1.277   .     A
C883   O1015   1.277   .     A
C883   O1011   1.277   .     A
C884   O1012   1.277   .     A
C884   O1017   1.277   .     A
C885   O1046   1.281   .     A
C885   O1018   1.281   .     A
C886   C938    1.414   .     A
C886   Cl954   1.777   .     S
C887   O1047   1.281   .     A
C887   O1019   1.281   .     A
C888   O1044   1.281   .     A
C888   O1020   1.281   .     A
C889   O1021   1.281   .     A
C889   O1045   1.281   .     A
C890   O1051   1.281   .     A
C890   O1022   1.281   .     A
C891   O1052   1.281   .     A
C891   O1023   1.281   .     A
C892   O1048   1.281   .     A
C892   O1024   1.281   .     A
C893   O1050   1.281   .     A
C893   O1025   1.281   .     A
C894   O1026   1.281   .     A
C894   O1037   1.281   .     A
C895   O1039   1.281   .     A
C895   O1028   1.281   .     A
C896   O1035   1.281   .     A
C896   O1029   1.281   .     A
C897   Cl955   1.777   .     S
C897   C939    1.414   .     A
C898   O1036   1.281   .     A
C898   O1030   1.281   .     A
C899   O1042   1.281   .     A
C899   O1031   1.281   .     A
C900   O1032   1.281   .     A
C900   O1043   1.281   .     A
C901   O1033   1.281   .     A
C901   O1040   1.281   .     A
C902   O1041   1.281   .     A
C902   O1034   1.281   .     A
C903   C920    1.387   .     A
C903   H973    1.083   .     S
C904   C918    1.386   .     A
C904   H984    1.083   .     S
C905   C917    1.386   .     A
C905   H995    1.083   .     S
C906   H999    1.083   .     S
C906   C916    1.386   .     A
C907   C915    1.386   .     A
C907   H1000   1.083   .     S
C908   C940    1.414   .     A
C908   Cl956   1.777   .     S
C908   C316    1.398   1_565 S
C909   C914    1.386   .     A
C909   H1001   1.083   .     S
C910   H1002   1.083   .     S
C910   C913    1.386   .     A
C911   H1003   1.083   .     S
C911   C912    1.386   .     A
C912   H1004   1.083   .     S
C913   H974    1.083   .     S
C914   H975    1.083   .     S
C915   H976    1.083   .     S
C916   H977    1.083   .     S
C917   H978    1.083   .     S
C918   H979    1.083   .     S
C919   Cl957   1.777   .     S
C919   C318    1.397   1_565 S
C920   H980    1.083   .     S
C921   C937    1.387   .     A
C921   H981    1.083   .     S
C922   H982    1.083   .     S
C922   C936    1.386   .     A
C923   C935    1.386   .     A
C923   H983    1.083   .     S
C924   C934    1.386   .     A
C924   H985    1.083   .     S
C925   C933    1.387   .     A
C925   H986    1.083   .     S
C926   H987    1.083   .     S
C926   C932    1.386   .     A
C927   H988    1.083   .     S
C927   C931    1.386   .     A
C928   C929    1.386   .     A
C928   H989    1.083   .     S
C929   H990    1.083   .     S
C930   Cl958   1.777   .     S
C931   H991    1.083   .     S
C932   H992    1.083   .     S
C933   H993    1.083   .     S
C934   H994    1.083   .     S
C935   H996    1.083   .     S
C936   H997    1.083   .     S
C937   H998    1.083   .     S
C940   C305    1.425   1_565 S
Cl941  C591    1.775   1_655 S
Cl970  C330    1.775   1_565 S
O1005  Zn1068  1.948   .     S
O1005  Zn1057  1.948   .     S
O1005  Zn1060  1.948   .     S
O1006  Zn1059  1.946   .     S
O1006  C342    1.277   1_565 S
O1007  Zn1062  1.946   .     S
O1007  C611    1.277   1_655 S
O1008  Zn1061  1.946   .     S
O1009  Zn1071  1.946   .     S
O1010  Zn1070  1.946   .     S
O1011  Zn1065  1.946   .     S
O1012  Zn1057  1.946   .     S
O1013  Zn1067  1.946   .     S
O1014  Zn1066  1.946   .     S
O1015  Zn1069  1.946   .     S
O1016  Zn1065  1.948   .     S
O1016  Zn1069  1.948   .     S
O1016  Zn1063  1.948   .     S
O1017  Zn1068  1.946   .     S
O1018  Zn1060  1.938   .     S
O1019  Zn1059  1.938   .     S
O1020  Zn1062  1.938   .     S
O1021  Zn1061  1.938   .     S
O1022  Zn1064  1.938   .     S
O1023  Zn1063  1.938   .     S
O1024  Zn1058  1.938   .     S
O1025  Zn1072  1.938   .     S
O1026  Zn1059  1.938   .     S
O1027  Zn1070  1.948   .     S
O1027  Zn1058  1.948   .     S
O1027  Zn1066  1.948   .     S
O1028  Zn1060  1.938   .     S
O1029  Zn1072  1.938   .     S
O1030  Zn1058  1.938   .     S
O1031  Zn1063  1.938   .     S
O1032  Zn1064  1.938   .     S
O1033  Zn1061  1.938   .     S
O1034  Zn1062  1.938   .     S
O1035  Zn799   1.938   1_655 S
O1036  Zn1066  1.938   .     S
O1037  Zn533   1.938   1_565 S
O1038  Zn1061  1.948   .     S
O1038  Zn1067  1.948   .     S
O1038  Zn1071  1.948   .     S
O1039  Zn1068  1.938   .     S
O1040  Zn1071  1.938   .     S
O1041  Zn802   1.938   1_655 S
O1042  Zn1065  1.938   .     S
O1043  Zn521   1.938   1_565 S
O1044  Zn798   1.938   1_655 S
O1045  Zn1067  1.938   .     S
O1046  Zn1057  1.938   .     S
O1047  Zn529   1.938   1_565 S
O1048  Zn1070  1.938   .     S
O1049  Zn1064  1.946   .     S
O1049  C341    1.277   1_565 S
O1050  Zn803   1.938   1_655 S
O1051  Zn532   1.938   1_565 S
O1052  Zn1069  1.938   .     S
O1053  Zn1063  1.946   .     S
O1054  Zn1058  1.946   .     S
O1055  Zn1072  1.946   .     S
O1055  C612    1.277   1_655 S
O1056  Zn1060  1.946   .     S
Zn1059 O480    1.948   1_565 S
Zn1062 O759    1.948   1_655 S
Zn1064 O469    1.948   1_565 S
Zn1072 O770    1.948   1_655 S
