data_str_m1_o1_o17_pcu_sym.98
_audit_creation_date              2020-01-03
_audit_creation_method            'Materials Studio'
_symmetry_space_group_name_H-M    'P1'
_symmetry_Int_Tables_number       1
_symmetry_cell_setting            triclinic
loop_
_symmetry_equiv_pos_as_xyz
  x,y,z
_cell_length_a                    36.6654
_cell_length_b                    36.5644
_cell_length_c                    34.4371
_cell_angle_alpha                 89.9637
_cell_angle_beta                  89.9532
_cell_angle_gamma                 89.9597
loop_
_atom_site_label
_atom_site_type_symbol
_atom_site_fract_x
_atom_site_fract_y
_atom_site_fract_z
_atom_site_U_iso_or_equiv
_atom_site_adp_type
_atom_site_occupancy
Zn1    Zn    0.20660  -0.00000   0.21735   0.00000  Uiso   1.00
Zn2    Zn    0.29341  -0.00000   0.78265   0.00000  Uiso   1.00
Zn3    Zn    0.00000   0.20659   0.21735   0.00000  Uiso   1.00
Zn4    Zn    0.00000   0.29340   0.78265   0.00000  Uiso   1.00
Zn5    Zn    0.29341  -0.00000   0.21735   0.00000  Uiso   1.00
Zn6    Zn    0.20660  -0.00000   0.78265   0.00000  Uiso   1.00
Zn7    Zn    0.00000   0.29340   0.21735   0.00000  Uiso   1.00
Zn8    Zn    0.00000   0.20659   0.78265   0.00000  Uiso   1.00
Zn9    Zn    0.45660   0.25000   0.71735   0.00000  Uiso   1.00
Zn10   Zn    0.04341   0.25000   0.28265   0.00000  Uiso   1.00
Zn11   Zn    0.25000   0.45659   0.71735   0.00000  Uiso   1.00
Zn12   Zn    0.25000   0.04340   0.28265   0.00000  Uiso   1.00
Zn13   Zn    0.04341   0.25000   0.71735   0.00000  Uiso   1.00
Zn14   Zn    0.45660   0.25000   0.28265   0.00000  Uiso   1.00
Zn15   Zn    0.25000   0.04340   0.71735   0.00000  Uiso   1.00
Zn16   Zn    0.25000   0.45659   0.28265   0.00000  Uiso   1.00
C17    C     0.49396   0.28248   0.41833   0.00000  Uiso   1.00
C18    C     0.49527   0.21712   0.58179   0.00000  Uiso   1.00
C19    C     0.21676   0.49923   0.41800   0.00000  Uiso   1.00
C20    C     0.28339   0.00026   0.58209   0.00000  Uiso   1.00
C21    C     0.00659   0.21700   0.41821   0.00000  Uiso   1.00
C22    C     0.00644   0.28285   0.58167   0.00000  Uiso   1.00
C23    C     0.28338   0.00054   0.41795   0.00000  Uiso   1.00
C24    C     0.21674   0.49970   0.58208   0.00000  Uiso   1.00
C25    C     0.25133   0.03325   0.91801   0.00000  Uiso   1.00
C26    C     0.24880   0.46671   0.08203   0.00000  Uiso   1.00
C27    C     0.46668   0.24965   0.91794   0.00000  Uiso   1.00
C28    C     0.03329   0.25068   0.08203   0.00000  Uiso   1.00
C29    C     0.24868   0.46653   0.91797   0.00000  Uiso   1.00
C30    C     0.25108   0.03345   0.08205   0.00000  Uiso   1.00
C31    C     0.03332   0.25023   0.91792   0.00000  Uiso   1.00
C32    C     0.46667   0.24956   0.08204   0.00000  Uiso   1.00
C33    C     0.00007   0.24975   0.39813   0.00000  Uiso   1.00
C34    C     0.00033   0.25010   0.60186   0.00000  Uiso   1.00
C35    C     0.25008   0.49929   0.39807   0.00000  Uiso   1.00
C36    C     0.25004   0.00067   0.60197   0.00000  Uiso   1.00
C37    C     0.24934   0.49994   0.89808   0.00000  Uiso   1.00
C38    C     0.25064   0.00004   0.10195   0.00000  Uiso   1.00
C39    C     0.00001   0.24931   0.89805   0.00000  Uiso   1.00
C40    C     0.49996   0.25071   0.10193   0.00000  Uiso   1.00
O41    O     0.25000  -0.00000   0.25000   0.00000  Uiso   1.00
O42    O     0.25000  -0.00000   0.75000   0.00000  Uiso   1.00
O43    O     0.00000   0.25000   0.25000   0.00000  Uiso   1.00
O44    O     0.00000   0.25000   0.75000   0.00000  Uiso   1.00
O45    O     0.25000   0.46963   0.33755   0.00000  Uiso   1.00
O46    O     0.25000   0.03036   0.66245   0.00000  Uiso   1.00
O47    O     0.03037   0.25000   0.33755   0.00000  Uiso   1.00
O48    O     0.46964   0.25000   0.66245   0.00000  Uiso   1.00
O49    O     0.25000   0.03036   0.33755   0.00000  Uiso   1.00
O50    O     0.25000   0.46963   0.66245   0.00000  Uiso   1.00
O51    O     0.46964   0.25000   0.33755   0.00000  Uiso   1.00
O52    O     0.03037   0.25000   0.66245   0.00000  Uiso   1.00
O53    O     0.00000   0.21963   0.83755   0.00000  Uiso   1.00
O54    O     0.00000   0.28036   0.16245   0.00000  Uiso   1.00
O55    O     0.28037  -0.00000   0.83755   0.00000  Uiso   1.00
O56    O     0.21964  -0.00000   0.16245   0.00000  Uiso   1.00
O57    O     0.00000   0.28037   0.83755   0.00000  Uiso   1.00
O58    O     0.00000   0.21963   0.16245   0.00000  Uiso   1.00
O59    O     0.21964  -0.00000   0.83755   0.00000  Uiso   1.00
O60    O     0.28037  -0.00000   0.16245   0.00000  Uiso   1.00
O61    O     0.20725   0.07307   0.27302   0.00000  Uiso   1.00
O62    O     0.29276   0.42692   0.72698   0.00000  Uiso   1.00
O63    O     0.42693   0.20724   0.27302   0.00000  Uiso   1.00
O64    O     0.07308   0.29276   0.72698   0.00000  Uiso   1.00
O65    O     0.29276   0.42692   0.27302   0.00000  Uiso   1.00
O66    O     0.20725   0.07307   0.72698   0.00000  Uiso   1.00
O67    O     0.07308   0.29276   0.27302   0.00000  Uiso   1.00
O68    O     0.42693   0.20724   0.72698   0.00000  Uiso   1.00
O69    O     0.20725   0.42692   0.72698   0.00000  Uiso   1.00
O70    O     0.29276   0.07307   0.27302   0.00000  Uiso   1.00
O71    O     0.42693   0.29275   0.72698   0.00000  Uiso   1.00
O72    O     0.07308   0.20724   0.27302   0.00000  Uiso   1.00
O73    O     0.29276   0.07307   0.72698   0.00000  Uiso   1.00
O74    O     0.20725   0.42692   0.27302   0.00000  Uiso   1.00
O75    O     0.07308   0.20724   0.72698   0.00000  Uiso   1.00
O76    O     0.42693   0.29275   0.27302   0.00000  Uiso   1.00
O77    O     0.45725   0.32307   0.77302   0.00000  Uiso   1.00
O78    O     0.04276   0.17693   0.22698   0.00000  Uiso   1.00
O79    O     0.17693   0.45724   0.77302   0.00000  Uiso   1.00
O80    O     0.32308   0.04275   0.22698   0.00000  Uiso   1.00
O81    O     0.04276   0.17693   0.77302   0.00000  Uiso   1.00
O82    O     0.45725   0.32307   0.22698   0.00000  Uiso   1.00
O83    O     0.32308   0.04275   0.77302   0.00000  Uiso   1.00
O84    O     0.17693   0.45724   0.22698   0.00000  Uiso   1.00
O85    O     0.45725   0.17692   0.22698   0.00000  Uiso   1.00
O86    O     0.04276   0.32308   0.77302   0.00000  Uiso   1.00
O87    O     0.17693   0.04275   0.22698   0.00000  Uiso   1.00
O88    O     0.32308   0.45724   0.77302   0.00000  Uiso   1.00
O89    O     0.04276   0.32308   0.22698   0.00000  Uiso   1.00
O90    O     0.45725   0.17692   0.77302   0.00000  Uiso   1.00
O91    O     0.32308   0.45724   0.22698   0.00000  Uiso   1.00
O92    O     0.17693   0.04275   0.77302   0.00000  Uiso   1.00
C93    C     0.00011   0.18282   0.47977   0.00000  Uiso   1.00
C94    C     0.49900   0.31685   0.52021   0.00000  Uiso   1.00
C95    C     0.31686   0.49738   0.48001   0.00000  Uiso   1.00
C96    C     0.18332   0.00253   0.52000   0.00000  Uiso   1.00
C97    C     0.00123   0.31682   0.47961   0.00000  Uiso   1.00
C98    C     0.00275   0.18287   0.52034   0.00000  Uiso   1.00
C99    C     0.18342   0.49549   0.48015   0.00000  Uiso   1.00
C100   C     0.31678   0.00405   0.51995   0.00000  Uiso   1.00
C101   C     0.24422   0.43321   0.98014   0.00000  Uiso   1.00
C102   C     0.25557   0.06678   0.01990   0.00000  Uiso   1.00
C103   C     0.06674   0.24729   0.98001   0.00000  Uiso   1.00
C104   C     0.43323   0.25276   0.01998   0.00000  Uiso   1.00
C105   C     0.24885   0.06695   0.97999   0.00000  Uiso   1.00
C106   C     0.25108   0.43302   0.02002   0.00000  Uiso   1.00
C107   C     0.43329   0.24597   0.98008   0.00000  Uiso   1.00
C108   C     0.06667   0.25429   0.01987   0.00000  Uiso   1.00
C109   C     0.25004   0.49994   0.35578   0.00000  Uiso   1.00
C110   C     0.25000   0.00006   0.64424   0.00000  Uiso   1.00
C111   C     0.00000   0.24990   0.35579   0.00000  Uiso   1.00
C112   C     0.00006   0.25008   0.64421   0.00000  Uiso   1.00
C113   C     0.00002   0.24994   0.85577   0.00000  Uiso   1.00
C114   C     0.49997   0.25006   0.14423   0.00000  Uiso   1.00
C115   C     0.24994   0.49996   0.85575   0.00000  Uiso   1.00
C116   C     0.25006   0.00002   0.14425   0.00000  Uiso   1.00
C117   C     0.18000   0.06997   0.24999   0.00000  Uiso   1.00
C118   C     0.32005   0.43005   0.74977   0.00000  Uiso   1.00
C119   C     0.43000   0.18001   0.25004   0.00000  Uiso   1.00
C120   C     0.06995   0.32006   0.74980   0.00000  Uiso   1.00
C121   C     0.31998   0.42999   0.25018   0.00000  Uiso   1.00
C122   C     0.17992   0.06993   0.74966   0.00000  Uiso   1.00
C123   C     0.07003   0.31997   0.24976   0.00000  Uiso   1.00
C124   C     0.42993   0.18006   0.75030   0.00000  Uiso   1.00
C125   C     0.18010   0.42989   0.75028   0.00000  Uiso   1.00
C126   C     0.31992   0.07011   0.24977   0.00000  Uiso   1.00
C127   C     0.43010   0.32008   0.74997   0.00000  Uiso   1.00
C128   C     0.06993   0.17992   0.25019   0.00000  Uiso   1.00
C129   C     0.31999   0.06999   0.74980   0.00000  Uiso   1.00
C130   C     0.17992   0.43007   0.25033   0.00000  Uiso   1.00
C131   C     0.07003   0.18003   0.75025   0.00000  Uiso   1.00
C132   C     0.42995   0.31996   0.24971   0.00000  Uiso   1.00
C133   C     0.14296   0.38423   0.21516   0.00000  Uiso   1.00
C134   C     0.35688   0.11589   0.78507   0.00000  Uiso   1.00
C135   C     0.11464   0.14163   0.21480   0.00000  Uiso   1.00
C136   C     0.38586   0.35880   0.78504   0.00000  Uiso   1.00
C137   C     0.35854   0.11461   0.21457   0.00000  Uiso   1.00
C138   C     0.14183   0.38498   0.78530   0.00000  Uiso   1.00
C139   C     0.38101   0.35408   0.21614   0.00000  Uiso   1.00
C140   C     0.11819   0.14510   0.78402   0.00000  Uiso   1.00
C141   C     0.14607   0.11893   0.78348   0.00000  Uiso   1.00
C142   C     0.35309   0.38025   0.21667   0.00000  Uiso   1.00
C143   C     0.11538   0.35738   0.78515   0.00000  Uiso   1.00
C144   C     0.38510   0.14209   0.21461   0.00000  Uiso   1.00
C145   C     0.35825   0.38523   0.78509   0.00000  Uiso   1.00
C146   C     0.14126   0.11419   0.21486   0.00000  Uiso   1.00
C147   C     0.38456   0.14227   0.78529   0.00000  Uiso   1.00
C148   C     0.11528   0.35788   0.21493   0.00000  Uiso   1.00
C149   C     0.39280   0.13427   0.71525   0.00000  Uiso   1.00
C150   C     0.10698   0.36579   0.28503   0.00000  Uiso   1.00
C151   C     0.36444   0.39145   0.71453   0.00000  Uiso   1.00
C152   C     0.13515   0.10802   0.28540   0.00000  Uiso   1.00
C153   C     0.10838   0.36482   0.71487   0.00000  Uiso   1.00
C154   C     0.39112   0.13586   0.28513   0.00000  Uiso   1.00
C155   C     0.13171   0.10482   0.71570   0.00000  Uiso   1.00
C156   C     0.36892   0.39598   0.28364   0.00000  Uiso   1.00
C157   C     0.39668   0.36966   0.28322   0.00000  Uiso   1.00
C158   C     0.10397   0.13120   0.71612   0.00000  Uiso   1.00
C159   C     0.36462   0.10833   0.28512   0.00000  Uiso   1.00
C160   C     0.13470   0.39252   0.71502   0.00000  Uiso   1.00
C161   C     0.10868   0.13560   0.28539   0.00000  Uiso   1.00
C162   C     0.39201   0.36497   0.71449   0.00000  Uiso   1.00
C163   C     0.13467   0.39214   0.28526   0.00000  Uiso   1.00
C164   C     0.36513   0.10795   0.71500   0.00000  Uiso   1.00
C165   C     0.00216   0.21616   0.45897   0.00000  Uiso   1.00
C166   C     0.00178   0.28355   0.54097   0.00000  Uiso   1.00
C167   C     0.28377   0.49884   0.45893   0.00000  Uiso   1.00
C168   C     0.21640   0.00116   0.54111   0.00000  Uiso   1.00
C169   C     0.49889   0.28342   0.45896   0.00000  Uiso   1.00
C170   C     0.49988   0.21621   0.54108   0.00000  Uiso   1.00
C171   C     0.21645   0.49775   0.45898   0.00000  Uiso   1.00
C172   C     0.28374   0.00184   0.54110   0.00000  Uiso   1.00
C173   C     0.24718   0.46626   0.95897   0.00000  Uiso   1.00
C174   C     0.25264   0.03372   0.04106   0.00000  Uiso   1.00
C175   C     0.03367   0.24874   0.95890   0.00000  Uiso   1.00
C176   C     0.46631   0.25124   0.04107   0.00000  Uiso   1.00
C177   C     0.24962   0.03371   0.95894   0.00000  Uiso   1.00
C178   C     0.25037   0.46625   0.04109   0.00000  Uiso   1.00
C179   C     0.46633   0.24811   0.95893   0.00000  Uiso   1.00
C180   C     0.03363   0.25213   0.04104   0.00000  Uiso   1.00
C181   C     0.09752   0.34862   0.24985   0.00000  Uiso   1.00
C182   C     0.40232   0.15147   0.75036   0.00000  Uiso   1.00
C183   C     0.15161   0.09772   0.25013   0.00000  Uiso   1.00
C184   C     0.34772   0.40155   0.74977   0.00000  Uiso   1.00
C185   C     0.40155   0.15232   0.24989   0.00000  Uiso   1.00
C186   C     0.09857   0.34758   0.74992   0.00000  Uiso   1.00
C187   C     0.34748   0.40137   0.25028   0.00000  Uiso   1.00
C188   C     0.15238   0.09856   0.74949   0.00000  Uiso   1.00
C189   C     0.09749   0.15136   0.75025   0.00000  Uiso   1.00
C190   C     0.40242   0.34862   0.24955   0.00000  Uiso   1.00
C191   C     0.15152   0.40233   0.75024   0.00000  Uiso   1.00
C192   C     0.34837   0.09784   0.24979   0.00000  Uiso   1.00
C193   C     0.40240   0.34855   0.74980   0.00000  Uiso   1.00
C194   C     0.09839   0.15219   0.25013   0.00000  Uiso   1.00
C195   C     0.34743   0.09868   0.74991   0.00000  Uiso   1.00
C196   C     0.15241   0.40142   0.25031   0.00000  Uiso   1.00
C197   C     0.00059   0.24981   0.47950   0.00000  Uiso   1.00
C198   C     0.00071   0.24985   0.52050   0.00000  Uiso   1.00
C199   C     0.25010   0.49939   0.47946   0.00000  Uiso   1.00
C200   C     0.25009   0.00041   0.52060   0.00000  Uiso   1.00
C201   C     0.24946   0.49997   0.97946   0.00000  Uiso   1.00
C202   C     0.25044  -0.00000   0.02058   0.00000  Uiso   1.00
C203   C     0.49999   0.24953   0.97942   0.00000  Uiso   1.00
C204   C     0.49998   0.25058   0.02055   0.00000  Uiso   1.00
I205   I     0.48230   0.13282   0.45280   0.00000  Uiso   1.00
I206   I     0.48084   0.36661   0.54749   0.00000  Uiso   1.00
I207   I     0.36636   0.47492   0.45626   0.00000  Uiso   1.00
I208   I     0.13383   0.02533   0.54340   0.00000  Uiso   1.00
I209   I     0.01875   0.36683   0.45237   0.00000  Uiso   1.00
I210   I     0.02177   0.13316   0.54709   0.00000  Uiso   1.00
I211   I     0.13457   0.47139   0.45685   0.00000  Uiso   1.00
I212   I     0.36577   0.02755   0.54361   0.00000  Uiso   1.00
I213   I     0.21940   0.38467   0.95672   0.00000  Uiso   1.00
I214   I     0.28015   0.11539   0.04345   0.00000  Uiso   1.00
I215   I     0.11619   0.22441   0.95656   0.00000  Uiso   1.00
I216   I     0.38379   0.27546   0.04366   0.00000  Uiso   1.00
I217   I     0.22738   0.11702   0.95628   0.00000  Uiso   1.00
I218   I     0.27262   0.38292   0.04358   0.00000  Uiso   1.00
I219   I     0.38427   0.22241   0.95655   0.00000  Uiso   1.00
I220   I     0.11560   0.27819   0.04320   0.00000  Uiso   1.00
N221   N     0.16203   0.39281   0.17984   0.00000  Uiso   1.00
O222   O     0.19749   0.39205   0.17887   0.00000  Uiso   1.00
O223   O     0.14402   0.39978   0.14814   0.00000  Uiso   1.00
N224   N     0.33784   0.10728   0.82039   0.00000  Uiso   1.00
O225   O     0.30238   0.10792   0.82133   0.00000  Uiso   1.00
O226   O     0.35586   0.10044   0.85211   0.00000  Uiso   1.00
N227   N     0.10604   0.16055   0.17938   0.00000  Uiso   1.00
O228   O     0.10805   0.19605   0.17782   0.00000  Uiso   1.00
O229   O     0.09632   0.14245   0.14858   0.00000  Uiso   1.00
N230   N     0.39492   0.34008   0.82030   0.00000  Uiso   1.00
O231   O     0.38518   0.30616   0.82499   0.00000  Uiso   1.00
O232   O     0.41707   0.35511   0.84506   0.00000  Uiso   1.00
N233   N     0.33991   0.10587   0.17917   0.00000  Uiso   1.00
O234   O     0.31949   0.13039   0.16252   0.00000  Uiso   1.00
O235   O     0.34820   0.07614   0.16039   0.00000  Uiso   1.00
N236   N     0.16083   0.39330   0.82059   0.00000  Uiso   1.00
O237   O     0.18121   0.36850   0.83684   0.00000  Uiso   1.00
O238   O     0.15302   0.42300   0.83965   0.00000  Uiso   1.00
N239   N     0.38620   0.33162   0.18245   0.00000  Uiso   1.00
O240   O     0.36013   0.31023   0.17064   0.00000  Uiso   1.00
O241   O     0.41498   0.33603   0.16085   0.00000  Uiso   1.00
N242   N     0.11248   0.16692   0.81808   0.00000  Uiso   1.00
O243   O     0.13825   0.18834   0.83054   0.00000  Uiso   1.00
O244   O     0.08363   0.16176   0.83939   0.00000  Uiso   1.00
N245   N     0.16901   0.11414   0.81685   0.00000  Uiso   1.00
O246   O     0.20417   0.11752   0.81337   0.00000  Uiso   1.00
O247   O     0.15482   0.10923   0.85110   0.00000  Uiso   1.00
N248   N     0.32957   0.38445   0.18367   0.00000  Uiso   1.00
O249   O     0.29444   0.38156   0.18795   0.00000  Uiso   1.00
O250   O     0.34316   0.38856   0.14902   0.00000  Uiso   1.00
N251   N     0.10643   0.33863   0.82059   0.00000  Uiso   1.00
O252   O     0.10699   0.30307   0.82190   0.00000  Uiso   1.00
O253   O     0.09932   0.35699   0.85205   0.00000  Uiso   1.00
N254   N     0.39440   0.16040   0.17903   0.00000  Uiso   1.00
O255   O     0.39363   0.19593   0.17717   0.00000  Uiso   1.00
O256   O     0.40189   0.14167   0.14791   0.00000  Uiso   1.00
N257   N     0.33928   0.39369   0.82052   0.00000  Uiso   1.00
O258   O     0.30386   0.39192   0.82190   0.00000  Uiso   1.00
O259   O     0.35726   0.40285   0.85157   0.00000  Uiso   1.00
N260   N     0.16000   0.10521   0.17959   0.00000  Uiso   1.00
O261   O     0.19404   0.11434   0.17531   0.00000  Uiso   1.00
O262   O     0.14477   0.08358   0.15440   0.00000  Uiso   1.00
N263   N     0.39262   0.16164   0.82046   0.00000  Uiso   1.00
O264   O     0.36779   0.18219   0.83637   0.00000  Uiso   1.00
O265   O     0.42227   0.15423   0.83964   0.00000  Uiso   1.00
N266   N     0.10724   0.33855   0.17974   0.00000  Uiso   1.00
O267   O     0.13204   0.31791   0.16390   0.00000  Uiso   1.00
O268   O     0.07771   0.34614   0.16043   0.00000  Uiso   1.00
N269   N     0.41203   0.14259   0.68004   0.00000  Uiso   1.00
O270   O     0.44740   0.14009   0.67897   0.00000  Uiso   1.00
O271   O     0.39421   0.15009   0.64836   0.00000  Uiso   1.00
N272   N     0.08785   0.35723   0.32034   0.00000  Uiso   1.00
O273   O     0.05240   0.35815   0.32128   0.00000  Uiso   1.00
O274   O     0.10577   0.35023   0.35209   0.00000  Uiso   1.00
N275   N     0.35545   0.41011   0.67919   0.00000  Uiso   1.00
O276   O     0.37920   0.43180   0.66315   0.00000  Uiso   1.00
O277   O     0.32614   0.40119   0.66017   0.00000  Uiso   1.00
N278   N     0.14439   0.08972   0.32103   0.00000  Uiso   1.00
O279   O     0.14383   0.05418   0.32288   0.00000  Uiso   1.00
O280   O     0.15183   0.10847   0.35213   0.00000  Uiso   1.00
N281   N     0.08981   0.35600   0.67949   0.00000  Uiso   1.00
O282   O     0.06846   0.38003   0.66335   0.00000  Uiso   1.00
O283   O     0.09864   0.32658   0.66045   0.00000  Uiso   1.00
N284   N     0.40955   0.14501   0.32049   0.00000  Uiso   1.00
O285   O     0.44305   0.13445   0.32587   0.00000  Uiso   1.00
O286   O     0.39459   0.16759   0.34494   0.00000  Uiso   1.00
N287   N     0.13745   0.08298   0.68166   0.00000  Uiso   1.00
O288   O     0.11147   0.06202   0.66881   0.00000  Uiso   1.00
O289   O     0.16654   0.08783   0.66064   0.00000  Uiso   1.00
N290   N     0.36383   0.41860   0.31722   0.00000  Uiso   1.00
O291   O     0.38990   0.44012   0.32874   0.00000  Uiso   1.00
O292   O     0.33518   0.41421   0.33903   0.00000  Uiso   1.00
N293   N     0.41958   0.36495   0.31663   0.00000  Uiso   1.00
O294   O     0.45485   0.36647   0.31298   0.00000  Uiso   1.00
O295   O     0.40528   0.36205   0.35108   0.00000  Uiso   1.00
N296   N     0.08181   0.13684   0.68224   0.00000  Uiso   1.00
O297   O     0.04644   0.13573   0.68499   0.00000  Uiso   1.00
O298   O     0.09682   0.14124   0.64831   0.00000  Uiso   1.00
N299   N     0.35600   0.08942   0.32054   0.00000  Uiso   1.00
O300   O     0.35804   0.05393   0.32207   0.00000  Uiso   1.00
O301   O     0.34671   0.10755   0.35149   0.00000  Uiso   1.00
N302   N     0.14355   0.41133   0.67958   0.00000  Uiso   1.00
O303   O     0.14284   0.44688   0.67829   0.00000  Uiso   1.00
O304   O     0.15077   0.39301   0.64812   0.00000  Uiso   1.00
N305   N     0.09046   0.14493   0.32085   0.00000  Uiso   1.00
O306   O     0.06919   0.12118   0.33754   0.00000  Uiso   1.00
O307   O     0.09976   0.17439   0.33953   0.00000  Uiso   1.00
N308   N     0.41012   0.35563   0.67878   0.00000  Uiso   1.00
O309   O     0.44554   0.35621   0.67671   0.00000  Uiso   1.00
O310   O     0.39130   0.34830   0.64774   0.00000  Uiso   1.00
N311   N     0.14274   0.41146   0.32045   0.00000  Uiso   1.00
O312   O     0.11792   0.43198   0.33641   0.00000  Uiso   1.00
O313   O     0.17237   0.40396   0.33964   0.00000  Uiso   1.00
N314   N     0.35710   0.08862   0.67980   0.00000  Uiso   1.00
O315   O     0.38183   0.06782   0.66408   0.00000  Uiso   1.00
O316   O     0.32764   0.09630   0.66041   0.00000  Uiso   1.00
N317   N     0.47908   0.31333   0.39804   0.00000  Uiso   1.00
O318   O     0.49502   0.32612   0.36715   0.00000  Uiso   1.00
O319   O     0.44878   0.32808   0.40998   0.00000  Uiso   1.00
N320   N     0.48236   0.18569   0.60255   0.00000  Uiso   1.00
O321   O     0.00013   0.17337   0.63249   0.00000  Uiso   1.00
O322   O     0.45214   0.16990   0.59205   0.00000  Uiso   1.00
N323   N     0.18415   0.00753   0.39667   0.00000  Uiso   1.00
O324   O     0.17399   0.48705   0.36775   0.00000  Uiso   1.00
O325   O     0.16669   0.03782   0.40368   0.00000  Uiso   1.00
N326   N     0.31586   0.49132   0.60342   0.00000  Uiso   1.00
O327   O     0.32613   0.01126   0.63272   0.00000  Uiso   1.00
O328   O     0.33294   0.46088   0.59611   0.00000  Uiso   1.00
N329   N     0.02161   0.18620   0.39776   0.00000  Uiso   1.00
O330   O     0.00631   0.17390   0.36628   0.00000  Uiso   1.00
O331   O     0.05182   0.17136   0.40984   0.00000  Uiso   1.00
N332   N     0.02174   0.31369   0.60179   0.00000  Uiso   1.00
O333   O     0.00719   0.32577   0.63378   0.00000  Uiso   1.00
O334   O     0.05162   0.32865   0.58897   0.00000  Uiso   1.00
N335   N     0.31563   0.01029   0.39665   0.00000  Uiso   1.00
O336   O     0.32652   0.49056   0.36742   0.00000  Uiso   1.00
O337   O     0.33205   0.04103   0.40414   0.00000  Uiso   1.00
N338   N     0.18439   0.49042   0.60344   0.00000  Uiso   1.00
O339   O     0.17359   0.01056   0.63239   0.00000  Uiso   1.00
O340   O     0.16783   0.45968   0.59635   0.00000  Uiso   1.00
N341   N     0.26162   0.06537   0.89675   0.00000  Uiso   1.00
O342   O     0.24190   0.07674   0.86781   0.00000  Uiso   1.00
O343   O     0.29260   0.08125   0.90411   0.00000  Uiso   1.00
N344   N     0.23879   0.43454   0.10335   0.00000  Uiso   1.00
O345   O     0.25876   0.42325   0.13215   0.00000  Uiso   1.00
O346   O     0.20778   0.41860   0.09631   0.00000  Uiso   1.00
N347   N     0.43418   0.25840   0.89660   0.00000  Uiso   1.00
O348   O     0.42388   0.23822   0.86749   0.00000  Uiso   1.00
O349   O     0.41706   0.28886   0.90371   0.00000  Uiso   1.00
N350   N     0.06587   0.24234   0.10340   0.00000  Uiso   1.00
O351   O     0.07604   0.26285   0.13230   0.00000  Uiso   1.00
O352   O     0.08322   0.21196   0.09653   0.00000  Uiso   1.00
N353   N     0.25650   0.43370   0.89664   0.00000  Uiso   1.00
O354   O     0.23606   0.42393   0.86757   0.00000  Uiso   1.00
O355   O     0.28643   0.41575   0.90368   0.00000  Uiso   1.00
N356   N     0.24298   0.06623   0.10336   0.00000  Uiso   1.00
O357   O     0.26320   0.07610   0.13257   0.00000  Uiso   1.00
O358   O     0.21298   0.08402   0.09618   0.00000  Uiso   1.00
N359   N     0.06567   0.25948   0.89657   0.00000  Uiso   1.00
O360   O     0.07643   0.23933   0.86760   0.00000  Uiso   1.00
O361   O     0.08232   0.29016   0.90370   0.00000  Uiso   1.00
N362   N     0.43438   0.23991   0.10332   0.00000  Uiso   1.00
O363   O     0.42350   0.25971   0.13249   0.00000  Uiso   1.00
O364   O     0.41785   0.20924   0.09578   0.00000  Uiso   1.00
Zn365  Zn    0.70660  -0.00000   0.21735   0.00000  Uiso   1.00
Zn366  Zn    0.79341  -0.00000   0.78265   0.00000  Uiso   1.00
Zn367  Zn    0.50000   0.20659   0.21735   0.00000  Uiso   1.00
Zn368  Zn    0.50000   0.29340   0.78265   0.00000  Uiso   1.00
Zn369  Zn    0.79341  -0.00000   0.21735   0.00000  Uiso   1.00
Zn370  Zn    0.70660  -0.00000   0.78265   0.00000  Uiso   1.00
Zn371  Zn    0.50000   0.29340   0.21735   0.00000  Uiso   1.00
Zn372  Zn    0.50000   0.20659   0.78265   0.00000  Uiso   1.00
Zn373  Zn    0.95660   0.25000   0.71735   0.00000  Uiso   1.00
Zn374  Zn    0.54341   0.25000   0.28265   0.00000  Uiso   1.00
Zn375  Zn    0.75000   0.45659   0.71735   0.00000  Uiso   1.00
Zn376  Zn    0.75000   0.04340   0.28265   0.00000  Uiso   1.00
Zn377  Zn    0.54341   0.25000   0.71735   0.00000  Uiso   1.00
Zn378  Zn    0.95660   0.25000   0.28265   0.00000  Uiso   1.00
Zn379  Zn    0.75000   0.04340   0.71735   0.00000  Uiso   1.00
Zn380  Zn    0.75000   0.45659   0.28265   0.00000  Uiso   1.00
C381   C     0.99396   0.28248   0.41833   0.00000  Uiso   1.00
C382   C     0.99527   0.21712   0.58179   0.00000  Uiso   1.00
C383   C     0.71676   0.49923   0.41800   0.00000  Uiso   1.00
C384   C     0.78339   0.00026   0.58209   0.00000  Uiso   1.00
C385   C     0.50659   0.21700   0.41821   0.00000  Uiso   1.00
C386   C     0.50644   0.28285   0.58167   0.00000  Uiso   1.00
C387   C     0.78338   0.00054   0.41795   0.00000  Uiso   1.00
C388   C     0.71674   0.49970   0.58208   0.00000  Uiso   1.00
C389   C     0.75133   0.03325   0.91801   0.00000  Uiso   1.00
C390   C     0.74880   0.46671   0.08203   0.00000  Uiso   1.00
C391   C     0.96668   0.24965   0.91794   0.00000  Uiso   1.00
C392   C     0.53329   0.25068   0.08203   0.00000  Uiso   1.00
C393   C     0.74868   0.46653   0.91797   0.00000  Uiso   1.00
C394   C     0.75108   0.03345   0.08205   0.00000  Uiso   1.00
C395   C     0.53332   0.25023   0.91792   0.00000  Uiso   1.00
C396   C     0.96667   0.24956   0.08204   0.00000  Uiso   1.00
C397   C     0.50007   0.24975   0.39813   0.00000  Uiso   1.00
C398   C     0.50033   0.25010   0.60186   0.00000  Uiso   1.00
C399   C     0.75008   0.49929   0.39807   0.00000  Uiso   1.00
C400   C     0.75004   0.00067   0.60197   0.00000  Uiso   1.00
C401   C     0.74934   0.49994   0.89808   0.00000  Uiso   1.00
C402   C     0.75064   0.00004   0.10195   0.00000  Uiso   1.00
C403   C     0.50001   0.24931   0.89805   0.00000  Uiso   1.00
C404   C     0.99996   0.25071   0.10193   0.00000  Uiso   1.00
O405   O     0.75000  -0.00000   0.25000   0.00000  Uiso   1.00
O406   O     0.75000  -0.00000   0.75000   0.00000  Uiso   1.00
O407   O     0.50000   0.25000   0.25000   0.00000  Uiso   1.00
O408   O     0.50000   0.25000   0.75000   0.00000  Uiso   1.00
O409   O     0.75000   0.46963   0.33755   0.00000  Uiso   1.00
O410   O     0.75000   0.03036   0.66245   0.00000  Uiso   1.00
O411   O     0.53037   0.25000   0.33755   0.00000  Uiso   1.00
O412   O     0.96964   0.25000   0.66245   0.00000  Uiso   1.00
O413   O     0.75000   0.03036   0.33755   0.00000  Uiso   1.00
O414   O     0.75000   0.46963   0.66245   0.00000  Uiso   1.00
O415   O     0.96964   0.25000   0.33755   0.00000  Uiso   1.00
O416   O     0.53037   0.25000   0.66245   0.00000  Uiso   1.00
O417   O     0.50000   0.21963   0.83755   0.00000  Uiso   1.00
O418   O     0.50000   0.28036   0.16245   0.00000  Uiso   1.00
O419   O     0.78037  -0.00000   0.83755   0.00000  Uiso   1.00
O420   O     0.71964  -0.00000   0.16245   0.00000  Uiso   1.00
O421   O     0.50000   0.28037   0.83755   0.00000  Uiso   1.00
O422   O     0.50000   0.21963   0.16245   0.00000  Uiso   1.00
O423   O     0.71964  -0.00000   0.83755   0.00000  Uiso   1.00
O424   O     0.78037  -0.00000   0.16245   0.00000  Uiso   1.00
O425   O     0.70725   0.07307   0.27302   0.00000  Uiso   1.00
O426   O     0.79276   0.42692   0.72698   0.00000  Uiso   1.00
O427   O     0.92693   0.20724   0.27302   0.00000  Uiso   1.00
O428   O     0.57308   0.29276   0.72698   0.00000  Uiso   1.00
O429   O     0.79276   0.42692   0.27302   0.00000  Uiso   1.00
O430   O     0.70725   0.07307   0.72698   0.00000  Uiso   1.00
O431   O     0.57308   0.29276   0.27302   0.00000  Uiso   1.00
O432   O     0.92693   0.20724   0.72698   0.00000  Uiso   1.00
O433   O     0.70725   0.42692   0.72698   0.00000  Uiso   1.00
O434   O     0.79276   0.07307   0.27302   0.00000  Uiso   1.00
O435   O     0.92693   0.29275   0.72698   0.00000  Uiso   1.00
O436   O     0.57308   0.20724   0.27302   0.00000  Uiso   1.00
O437   O     0.79276   0.07307   0.72698   0.00000  Uiso   1.00
O438   O     0.70725   0.42692   0.27302   0.00000  Uiso   1.00
O439   O     0.57308   0.20724   0.72698   0.00000  Uiso   1.00
O440   O     0.92693   0.29275   0.27302   0.00000  Uiso   1.00
O441   O     0.95725   0.32307   0.77302   0.00000  Uiso   1.00
O442   O     0.54276   0.17693   0.22698   0.00000  Uiso   1.00
O443   O     0.67693   0.45724   0.77302   0.00000  Uiso   1.00
O444   O     0.82308   0.04275   0.22698   0.00000  Uiso   1.00
O445   O     0.54276   0.17693   0.77302   0.00000  Uiso   1.00
O446   O     0.95725   0.32307   0.22698   0.00000  Uiso   1.00
O447   O     0.82308   0.04275   0.77302   0.00000  Uiso   1.00
O448   O     0.67693   0.45724   0.22698   0.00000  Uiso   1.00
O449   O     0.95725   0.17692   0.22698   0.00000  Uiso   1.00
O450   O     0.54276   0.32308   0.77302   0.00000  Uiso   1.00
O451   O     0.67693   0.04275   0.22698   0.00000  Uiso   1.00
O452   O     0.82308   0.45724   0.77302   0.00000  Uiso   1.00
O453   O     0.54276   0.32308   0.22698   0.00000  Uiso   1.00
O454   O     0.95725   0.17692   0.77302   0.00000  Uiso   1.00
O455   O     0.82308   0.45724   0.22698   0.00000  Uiso   1.00
O456   O     0.67693   0.04275   0.77302   0.00000  Uiso   1.00
C457   C     0.50011   0.18282   0.47977   0.00000  Uiso   1.00
C458   C     0.99900   0.31685   0.52021   0.00000  Uiso   1.00
C459   C     0.81686   0.49738   0.48001   0.00000  Uiso   1.00
C460   C     0.68332   0.00253   0.52000   0.00000  Uiso   1.00
C461   C     0.50123   0.31682   0.47961   0.00000  Uiso   1.00
C462   C     0.50275   0.18287   0.52034   0.00000  Uiso   1.00
C463   C     0.68342   0.49549   0.48015   0.00000  Uiso   1.00
C464   C     0.81678   0.00405   0.51995   0.00000  Uiso   1.00
C465   C     0.74422   0.43321   0.98014   0.00000  Uiso   1.00
C466   C     0.75557   0.06678   0.01990   0.00000  Uiso   1.00
C467   C     0.56674   0.24729   0.98001   0.00000  Uiso   1.00
C468   C     0.93323   0.25276   0.01998   0.00000  Uiso   1.00
C469   C     0.74885   0.06695   0.97999   0.00000  Uiso   1.00
C470   C     0.75108   0.43302   0.02002   0.00000  Uiso   1.00
C471   C     0.93329   0.24597   0.98008   0.00000  Uiso   1.00
C472   C     0.56667   0.25429   0.01987   0.00000  Uiso   1.00
C473   C     0.75004   0.49994   0.35578   0.00000  Uiso   1.00
C474   C     0.75000   0.00006   0.64424   0.00000  Uiso   1.00
C475   C     0.50000   0.24990   0.35579   0.00000  Uiso   1.00
C476   C     0.50006   0.25008   0.64421   0.00000  Uiso   1.00
C477   C     0.50002   0.24994   0.85577   0.00000  Uiso   1.00
C478   C     0.99997   0.25006   0.14423   0.00000  Uiso   1.00
C479   C     0.74994   0.49996   0.85575   0.00000  Uiso   1.00
C480   C     0.75006   0.00002   0.14425   0.00000  Uiso   1.00
C481   C     0.68000   0.06997   0.24999   0.00000  Uiso   1.00
C482   C     0.82005   0.43005   0.74977   0.00000  Uiso   1.00
C483   C     0.93000   0.18001   0.25004   0.00000  Uiso   1.00
C484   C     0.56995   0.32006   0.74980   0.00000  Uiso   1.00
C485   C     0.81998   0.42999   0.25018   0.00000  Uiso   1.00
C486   C     0.67992   0.06993   0.74966   0.00000  Uiso   1.00
C487   C     0.57003   0.31997   0.24976   0.00000  Uiso   1.00
C488   C     0.92993   0.18006   0.75030   0.00000  Uiso   1.00
C489   C     0.68010   0.42989   0.75028   0.00000  Uiso   1.00
C490   C     0.81992   0.07011   0.24977   0.00000  Uiso   1.00
C491   C     0.93010   0.32008   0.74997   0.00000  Uiso   1.00
C492   C     0.56993   0.17992   0.25019   0.00000  Uiso   1.00
C493   C     0.81999   0.06999   0.74980   0.00000  Uiso   1.00
C494   C     0.67992   0.43007   0.25033   0.00000  Uiso   1.00
C495   C     0.57003   0.18003   0.75025   0.00000  Uiso   1.00
C496   C     0.92995   0.31996   0.24971   0.00000  Uiso   1.00
C497   C     0.64296   0.38423   0.21516   0.00000  Uiso   1.00
C498   C     0.85688   0.11589   0.78507   0.00000  Uiso   1.00
C499   C     0.61464   0.14163   0.21480   0.00000  Uiso   1.00
C500   C     0.88586   0.35880   0.78504   0.00000  Uiso   1.00
C501   C     0.85854   0.11461   0.21457   0.00000  Uiso   1.00
C502   C     0.64183   0.38498   0.78530   0.00000  Uiso   1.00
C503   C     0.88101   0.35408   0.21614   0.00000  Uiso   1.00
C504   C     0.61819   0.14510   0.78402   0.00000  Uiso   1.00
C505   C     0.64607   0.11893   0.78348   0.00000  Uiso   1.00
C506   C     0.85309   0.38025   0.21667   0.00000  Uiso   1.00
C507   C     0.61538   0.35738   0.78515   0.00000  Uiso   1.00
C508   C     0.88510   0.14209   0.21461   0.00000  Uiso   1.00
C509   C     0.85825   0.38523   0.78509   0.00000  Uiso   1.00
C510   C     0.64126   0.11419   0.21486   0.00000  Uiso   1.00
C511   C     0.88456   0.14227   0.78529   0.00000  Uiso   1.00
C512   C     0.61528   0.35788   0.21493   0.00000  Uiso   1.00
C513   C     0.89280   0.13427   0.71525   0.00000  Uiso   1.00
C514   C     0.60698   0.36579   0.28503   0.00000  Uiso   1.00
C515   C     0.86444   0.39145   0.71453   0.00000  Uiso   1.00
C516   C     0.63515   0.10802   0.28540   0.00000  Uiso   1.00
C517   C     0.60838   0.36482   0.71487   0.00000  Uiso   1.00
C518   C     0.89112   0.13586   0.28513   0.00000  Uiso   1.00
C519   C     0.63171   0.10482   0.71570   0.00000  Uiso   1.00
C520   C     0.86892   0.39598   0.28364   0.00000  Uiso   1.00
C521   C     0.89668   0.36966   0.28322   0.00000  Uiso   1.00
C522   C     0.60397   0.13120   0.71612   0.00000  Uiso   1.00
C523   C     0.86462   0.10833   0.28512   0.00000  Uiso   1.00
C524   C     0.63470   0.39252   0.71502   0.00000  Uiso   1.00
C525   C     0.60868   0.13560   0.28539   0.00000  Uiso   1.00
C526   C     0.89201   0.36497   0.71449   0.00000  Uiso   1.00
C527   C     0.63467   0.39214   0.28526   0.00000  Uiso   1.00
C528   C     0.86513   0.10795   0.71500   0.00000  Uiso   1.00
C529   C     0.50216   0.21616   0.45897   0.00000  Uiso   1.00
C530   C     0.50178   0.28355   0.54097   0.00000  Uiso   1.00
C531   C     0.78377   0.49884   0.45893   0.00000  Uiso   1.00
C532   C     0.71640   0.00116   0.54111   0.00000  Uiso   1.00
C533   C     0.99889   0.28342   0.45896   0.00000  Uiso   1.00
C534   C     0.99988   0.21621   0.54108   0.00000  Uiso   1.00
C535   C     0.71645   0.49775   0.45898   0.00000  Uiso   1.00
C536   C     0.78374   0.00184   0.54110   0.00000  Uiso   1.00
C537   C     0.74718   0.46626   0.95897   0.00000  Uiso   1.00
C538   C     0.75264   0.03372   0.04106   0.00000  Uiso   1.00
C539   C     0.53367   0.24874   0.95890   0.00000  Uiso   1.00
C540   C     0.96631   0.25124   0.04107   0.00000  Uiso   1.00
C541   C     0.74962   0.03371   0.95894   0.00000  Uiso   1.00
C542   C     0.75037   0.46625   0.04109   0.00000  Uiso   1.00
C543   C     0.96633   0.24811   0.95893   0.00000  Uiso   1.00
C544   C     0.53363   0.25213   0.04104   0.00000  Uiso   1.00
C545   C     0.59752   0.34862   0.24985   0.00000  Uiso   1.00
C546   C     0.90232   0.15147   0.75036   0.00000  Uiso   1.00
C547   C     0.65161   0.09772   0.25013   0.00000  Uiso   1.00
C548   C     0.84772   0.40155   0.74977   0.00000  Uiso   1.00
C549   C     0.90155   0.15232   0.24989   0.00000  Uiso   1.00
C550   C     0.59857   0.34758   0.74992   0.00000  Uiso   1.00
C551   C     0.84748   0.40137   0.25028   0.00000  Uiso   1.00
C552   C     0.65238   0.09856   0.74949   0.00000  Uiso   1.00
C553   C     0.59749   0.15136   0.75025   0.00000  Uiso   1.00
C554   C     0.90242   0.34862   0.24955   0.00000  Uiso   1.00
C555   C     0.65152   0.40233   0.75024   0.00000  Uiso   1.00
C556   C     0.84837   0.09784   0.24979   0.00000  Uiso   1.00
C557   C     0.90240   0.34855   0.74980   0.00000  Uiso   1.00
C558   C     0.59839   0.15219   0.25013   0.00000  Uiso   1.00
C559   C     0.84743   0.09868   0.74991   0.00000  Uiso   1.00
C560   C     0.65241   0.40142   0.25031   0.00000  Uiso   1.00
C561   C     0.50059   0.24981   0.47950   0.00000  Uiso   1.00
C562   C     0.50071   0.24985   0.52050   0.00000  Uiso   1.00
C563   C     0.75010   0.49939   0.47946   0.00000  Uiso   1.00
C564   C     0.75009   0.00041   0.52060   0.00000  Uiso   1.00
C565   C     0.74946   0.49997   0.97946   0.00000  Uiso   1.00
C566   C     0.75044  -0.00000   0.02058   0.00000  Uiso   1.00
C567   C     0.99999   0.24953   0.97942   0.00000  Uiso   1.00
C568   C     0.99998   0.25058   0.02055   0.00000  Uiso   1.00
I569   I     0.98230   0.13282   0.45280   0.00000  Uiso   1.00
I570   I     0.98084   0.36661   0.54749   0.00000  Uiso   1.00
I571   I     0.86636   0.47492   0.45626   0.00000  Uiso   1.00
I572   I     0.63383   0.02533   0.54340   0.00000  Uiso   1.00
I573   I     0.51875   0.36683   0.45237   0.00000  Uiso   1.00
I574   I     0.52177   0.13316   0.54709   0.00000  Uiso   1.00
I575   I     0.63457   0.47139   0.45685   0.00000  Uiso   1.00
I576   I     0.86577   0.02755   0.54361   0.00000  Uiso   1.00
I577   I     0.71940   0.38467   0.95672   0.00000  Uiso   1.00
I578   I     0.78015   0.11539   0.04345   0.00000  Uiso   1.00
I579   I     0.61619   0.22441   0.95656   0.00000  Uiso   1.00
I580   I     0.88379   0.27546   0.04366   0.00000  Uiso   1.00
I581   I     0.72738   0.11702   0.95628   0.00000  Uiso   1.00
I582   I     0.77262   0.38292   0.04358   0.00000  Uiso   1.00
I583   I     0.88427   0.22241   0.95655   0.00000  Uiso   1.00
I584   I     0.61560   0.27819   0.04320   0.00000  Uiso   1.00
N585   N     0.66203   0.39281   0.17984   0.00000  Uiso   1.00
O586   O     0.69749   0.39205   0.17887   0.00000  Uiso   1.00
O587   O     0.64402   0.39978   0.14814   0.00000  Uiso   1.00
N588   N     0.83784   0.10728   0.82039   0.00000  Uiso   1.00
O589   O     0.80238   0.10792   0.82133   0.00000  Uiso   1.00
O590   O     0.85586   0.10044   0.85211   0.00000  Uiso   1.00
N591   N     0.60604   0.16055   0.17938   0.00000  Uiso   1.00
O592   O     0.60805   0.19605   0.17782   0.00000  Uiso   1.00
O593   O     0.59632   0.14245   0.14858   0.00000  Uiso   1.00
N594   N     0.89492   0.34008   0.82030   0.00000  Uiso   1.00
O595   O     0.88518   0.30616   0.82499   0.00000  Uiso   1.00
O596   O     0.91707   0.35511   0.84506   0.00000  Uiso   1.00
N597   N     0.83991   0.10587   0.17917   0.00000  Uiso   1.00
O598   O     0.81949   0.13039   0.16252   0.00000  Uiso   1.00
O599   O     0.84820   0.07614   0.16039   0.00000  Uiso   1.00
N600   N     0.66083   0.39330   0.82059   0.00000  Uiso   1.00
O601   O     0.68121   0.36850   0.83684   0.00000  Uiso   1.00
O602   O     0.65302   0.42300   0.83965   0.00000  Uiso   1.00
N603   N     0.88620   0.33162   0.18245   0.00000  Uiso   1.00
O604   O     0.86013   0.31023   0.17064   0.00000  Uiso   1.00
O605   O     0.91498   0.33603   0.16085   0.00000  Uiso   1.00
N606   N     0.61248   0.16692   0.81808   0.00000  Uiso   1.00
O607   O     0.63825   0.18834   0.83054   0.00000  Uiso   1.00
O608   O     0.58363   0.16176   0.83939   0.00000  Uiso   1.00
N609   N     0.66901   0.11414   0.81685   0.00000  Uiso   1.00
O610   O     0.70417   0.11752   0.81337   0.00000  Uiso   1.00
O611   O     0.65482   0.10923   0.85110   0.00000  Uiso   1.00
N612   N     0.82957   0.38445   0.18367   0.00000  Uiso   1.00
O613   O     0.79444   0.38156   0.18795   0.00000  Uiso   1.00
O614   O     0.84316   0.38856   0.14902   0.00000  Uiso   1.00
N615   N     0.60643   0.33863   0.82059   0.00000  Uiso   1.00
O616   O     0.60699   0.30307   0.82190   0.00000  Uiso   1.00
O617   O     0.59932   0.35699   0.85205   0.00000  Uiso   1.00
N618   N     0.89440   0.16040   0.17903   0.00000  Uiso   1.00
O619   O     0.89363   0.19593   0.17717   0.00000  Uiso   1.00
O620   O     0.90189   0.14167   0.14791   0.00000  Uiso   1.00
N621   N     0.83928   0.39369   0.82052   0.00000  Uiso   1.00
O622   O     0.80386   0.39192   0.82190   0.00000  Uiso   1.00
O623   O     0.85726   0.40285   0.85157   0.00000  Uiso   1.00
N624   N     0.66000   0.10521   0.17959   0.00000  Uiso   1.00
O625   O     0.69404   0.11434   0.17531   0.00000  Uiso   1.00
O626   O     0.64477   0.08358   0.15440   0.00000  Uiso   1.00
N627   N     0.89262   0.16164   0.82046   0.00000  Uiso   1.00
O628   O     0.86779   0.18219   0.83637   0.00000  Uiso   1.00
O629   O     0.92227   0.15423   0.83964   0.00000  Uiso   1.00
N630   N     0.60724   0.33855   0.17974   0.00000  Uiso   1.00
O631   O     0.63204   0.31791   0.16390   0.00000  Uiso   1.00
O632   O     0.57771   0.34614   0.16043   0.00000  Uiso   1.00
N633   N     0.91203   0.14259   0.68004   0.00000  Uiso   1.00
O634   O     0.94740   0.14009   0.67897   0.00000  Uiso   1.00
O635   O     0.89421   0.15009   0.64836   0.00000  Uiso   1.00
N636   N     0.58785   0.35723   0.32034   0.00000  Uiso   1.00
O637   O     0.55240   0.35815   0.32128   0.00000  Uiso   1.00
O638   O     0.60577   0.35023   0.35209   0.00000  Uiso   1.00
N639   N     0.85545   0.41011   0.67919   0.00000  Uiso   1.00
O640   O     0.87920   0.43180   0.66315   0.00000  Uiso   1.00
O641   O     0.82614   0.40119   0.66017   0.00000  Uiso   1.00
N642   N     0.64439   0.08972   0.32103   0.00000  Uiso   1.00
O643   O     0.64383   0.05418   0.32288   0.00000  Uiso   1.00
O644   O     0.65183   0.10847   0.35213   0.00000  Uiso   1.00
N645   N     0.58981   0.35600   0.67949   0.00000  Uiso   1.00
O646   O     0.56846   0.38003   0.66335   0.00000  Uiso   1.00
O647   O     0.59864   0.32658   0.66045   0.00000  Uiso   1.00
N648   N     0.90955   0.14501   0.32049   0.00000  Uiso   1.00
O649   O     0.94305   0.13445   0.32587   0.00000  Uiso   1.00
O650   O     0.89459   0.16759   0.34494   0.00000  Uiso   1.00
N651   N     0.63745   0.08298   0.68166   0.00000  Uiso   1.00
O652   O     0.61147   0.06202   0.66881   0.00000  Uiso   1.00
O653   O     0.66654   0.08783   0.66064   0.00000  Uiso   1.00
N654   N     0.86383   0.41860   0.31722   0.00000  Uiso   1.00
O655   O     0.88990   0.44012   0.32874   0.00000  Uiso   1.00
O656   O     0.83518   0.41421   0.33903   0.00000  Uiso   1.00
N657   N     0.91958   0.36495   0.31663   0.00000  Uiso   1.00
O658   O     0.95485   0.36647   0.31298   0.00000  Uiso   1.00
O659   O     0.90528   0.36205   0.35108   0.00000  Uiso   1.00
N660   N     0.58181   0.13684   0.68224   0.00000  Uiso   1.00
O661   O     0.54644   0.13573   0.68499   0.00000  Uiso   1.00
O662   O     0.59682   0.14124   0.64831   0.00000  Uiso   1.00
N663   N     0.85600   0.08942   0.32054   0.00000  Uiso   1.00
O664   O     0.85804   0.05393   0.32207   0.00000  Uiso   1.00
O665   O     0.84671   0.10755   0.35149   0.00000  Uiso   1.00
N666   N     0.64355   0.41133   0.67958   0.00000  Uiso   1.00
O667   O     0.64284   0.44688   0.67829   0.00000  Uiso   1.00
O668   O     0.65077   0.39301   0.64812   0.00000  Uiso   1.00
N669   N     0.59046   0.14493   0.32085   0.00000  Uiso   1.00
O670   O     0.56919   0.12118   0.33754   0.00000  Uiso   1.00
O671   O     0.59976   0.17439   0.33953   0.00000  Uiso   1.00
N672   N     0.91012   0.35563   0.67878   0.00000  Uiso   1.00
O673   O     0.94554   0.35621   0.67671   0.00000  Uiso   1.00
O674   O     0.89130   0.34830   0.64774   0.00000  Uiso   1.00
N675   N     0.64274   0.41146   0.32045   0.00000  Uiso   1.00
O676   O     0.61792   0.43198   0.33641   0.00000  Uiso   1.00
O677   O     0.67237   0.40396   0.33964   0.00000  Uiso   1.00
N678   N     0.85710   0.08862   0.67980   0.00000  Uiso   1.00
O679   O     0.88183   0.06782   0.66408   0.00000  Uiso   1.00
O680   O     0.82764   0.09630   0.66041   0.00000  Uiso   1.00
N681   N     0.97908   0.31333   0.39804   0.00000  Uiso   1.00
O682   O     0.99502   0.32612   0.36715   0.00000  Uiso   1.00
O683   O     0.94878   0.32808   0.40998   0.00000  Uiso   1.00
N684   N     0.98236   0.18569   0.60255   0.00000  Uiso   1.00
O685   O     0.50013   0.17337   0.63249   0.00000  Uiso   1.00
O686   O     0.95214   0.16990   0.59205   0.00000  Uiso   1.00
N687   N     0.68415   0.00753   0.39667   0.00000  Uiso   1.00
O688   O     0.67399   0.48705   0.36775   0.00000  Uiso   1.00
O689   O     0.66669   0.03782   0.40368   0.00000  Uiso   1.00
N690   N     0.81586   0.49132   0.60342   0.00000  Uiso   1.00
O691   O     0.82613   0.01126   0.63272   0.00000  Uiso   1.00
O692   O     0.83294   0.46088   0.59611   0.00000  Uiso   1.00
N693   N     0.52161   0.18620   0.39776   0.00000  Uiso   1.00
O694   O     0.50631   0.17390   0.36628   0.00000  Uiso   1.00
O695   O     0.55182   0.17136   0.40984   0.00000  Uiso   1.00
N696   N     0.52174   0.31369   0.60179   0.00000  Uiso   1.00
O697   O     0.50719   0.32577   0.63378   0.00000  Uiso   1.00
O698   O     0.55162   0.32865   0.58897   0.00000  Uiso   1.00
N699   N     0.81563   0.01029   0.39665   0.00000  Uiso   1.00
O700   O     0.82652   0.49056   0.36742   0.00000  Uiso   1.00
O701   O     0.83205   0.04103   0.40414   0.00000  Uiso   1.00
N702   N     0.68439   0.49042   0.60344   0.00000  Uiso   1.00
O703   O     0.67359   0.01056   0.63239   0.00000  Uiso   1.00
O704   O     0.66783   0.45968   0.59635   0.00000  Uiso   1.00
N705   N     0.76162   0.06537   0.89675   0.00000  Uiso   1.00
O706   O     0.74190   0.07674   0.86781   0.00000  Uiso   1.00
O707   O     0.79260   0.08125   0.90411   0.00000  Uiso   1.00
N708   N     0.73879   0.43454   0.10335   0.00000  Uiso   1.00
O709   O     0.75876   0.42325   0.13215   0.00000  Uiso   1.00
O710   O     0.70778   0.41860   0.09631   0.00000  Uiso   1.00
N711   N     0.93418   0.25840   0.89660   0.00000  Uiso   1.00
O712   O     0.92388   0.23822   0.86749   0.00000  Uiso   1.00
O713   O     0.91706   0.28886   0.90371   0.00000  Uiso   1.00
N714   N     0.56587   0.24234   0.10340   0.00000  Uiso   1.00
O715   O     0.57604   0.26285   0.13230   0.00000  Uiso   1.00
O716   O     0.58322   0.21196   0.09653   0.00000  Uiso   1.00
N717   N     0.75650   0.43370   0.89664   0.00000  Uiso   1.00
O718   O     0.73606   0.42393   0.86757   0.00000  Uiso   1.00
O719   O     0.78643   0.41575   0.90368   0.00000  Uiso   1.00
N720   N     0.74298   0.06623   0.10336   0.00000  Uiso   1.00
O721   O     0.76320   0.07610   0.13257   0.00000  Uiso   1.00
O722   O     0.71298   0.08402   0.09618   0.00000  Uiso   1.00
N723   N     0.56567   0.25948   0.89657   0.00000  Uiso   1.00
O724   O     0.57643   0.23933   0.86760   0.00000  Uiso   1.00
O725   O     0.58232   0.29016   0.90370   0.00000  Uiso   1.00
N726   N     0.93438   0.23991   0.10332   0.00000  Uiso   1.00
O727   O     0.92350   0.25971   0.13249   0.00000  Uiso   1.00
O728   O     0.91785   0.20924   0.09578   0.00000  Uiso   1.00
Zn729  Zn    0.20660   0.50000   0.21735   0.00000  Uiso   1.00
Zn730  Zn    0.29341   0.50000   0.78265   0.00000  Uiso   1.00
Zn731  Zn    0.00000   0.70659   0.21735   0.00000  Uiso   1.00
Zn732  Zn    0.00000   0.79340   0.78265   0.00000  Uiso   1.00
Zn733  Zn    0.29341   0.50000   0.21735   0.00000  Uiso   1.00
Zn734  Zn    0.20660   0.50000   0.78265   0.00000  Uiso   1.00
Zn735  Zn    0.00000   0.79340   0.21735   0.00000  Uiso   1.00
Zn736  Zn    0.00000   0.70659   0.78265   0.00000  Uiso   1.00
Zn737  Zn    0.45660   0.75000   0.71735   0.00000  Uiso   1.00
Zn738  Zn    0.04341   0.75000   0.28265   0.00000  Uiso   1.00
Zn739  Zn    0.25000   0.95659   0.71735   0.00000  Uiso   1.00
Zn740  Zn    0.25000   0.54340   0.28265   0.00000  Uiso   1.00
Zn741  Zn    0.04341   0.75000   0.71735   0.00000  Uiso   1.00
Zn742  Zn    0.45660   0.75000   0.28265   0.00000  Uiso   1.00
Zn743  Zn    0.25000   0.54340   0.71735   0.00000  Uiso   1.00
Zn744  Zn    0.25000   0.95659   0.28265   0.00000  Uiso   1.00
C745   C     0.49396   0.78248   0.41833   0.00000  Uiso   1.00
C746   C     0.49527   0.71712   0.58179   0.00000  Uiso   1.00
C747   C     0.21676   0.99923   0.41800   0.00000  Uiso   1.00
C748   C     0.28339   0.50026   0.58209   0.00000  Uiso   1.00
C749   C     0.00659   0.71700   0.41821   0.00000  Uiso   1.00
C750   C     0.00644   0.78285   0.58167   0.00000  Uiso   1.00
C751   C     0.28338   0.50054   0.41795   0.00000  Uiso   1.00
C752   C     0.21674   0.99970   0.58208   0.00000  Uiso   1.00
C753   C     0.25133   0.53325   0.91801   0.00000  Uiso   1.00
C754   C     0.24880   0.96671   0.08203   0.00000  Uiso   1.00
C755   C     0.46668   0.74965   0.91794   0.00000  Uiso   1.00
C756   C     0.03329   0.75068   0.08203   0.00000  Uiso   1.00
C757   C     0.24868   0.96653   0.91797   0.00000  Uiso   1.00
C758   C     0.25108   0.53345   0.08205   0.00000  Uiso   1.00
C759   C     0.03332   0.75023   0.91792   0.00000  Uiso   1.00
C760   C     0.46667   0.74956   0.08204   0.00000  Uiso   1.00
C761   C     0.00007   0.74975   0.39813   0.00000  Uiso   1.00
C762   C     0.00033   0.75010   0.60186   0.00000  Uiso   1.00
C763   C     0.25008   0.99929   0.39807   0.00000  Uiso   1.00
C764   C     0.25004   0.50067   0.60197   0.00000  Uiso   1.00
C765   C     0.24934   0.99994   0.89808   0.00000  Uiso   1.00
C766   C     0.25064   0.50004   0.10195   0.00000  Uiso   1.00
C767   C     0.00001   0.74931   0.89805   0.00000  Uiso   1.00
C768   C     0.49996   0.75071   0.10193   0.00000  Uiso   1.00
O769   O     0.25000   0.50000   0.25000   0.00000  Uiso   1.00
O770   O     0.25000   0.50000   0.75000   0.00000  Uiso   1.00
O771   O     0.00000   0.75000   0.25000   0.00000  Uiso   1.00
O772   O     0.00000   0.75000   0.75000   0.00000  Uiso   1.00
O773   O     0.25000   0.96963   0.33755   0.00000  Uiso   1.00
O774   O     0.25000   0.53036   0.66245   0.00000  Uiso   1.00
O775   O     0.03037   0.75000   0.33755   0.00000  Uiso   1.00
O776   O     0.46964   0.75000   0.66245   0.00000  Uiso   1.00
O777   O     0.25000   0.53036   0.33755   0.00000  Uiso   1.00
O778   O     0.25000   0.96963   0.66245   0.00000  Uiso   1.00
O779   O     0.46964   0.75000   0.33755   0.00000  Uiso   1.00
O780   O     0.03037   0.75000   0.66245   0.00000  Uiso   1.00
O781   O     0.00000   0.71963   0.83755   0.00000  Uiso   1.00
O782   O     0.00000   0.78036   0.16245   0.00000  Uiso   1.00
O783   O     0.28037   0.50000   0.83755   0.00000  Uiso   1.00
O784   O     0.21964   0.50000   0.16245   0.00000  Uiso   1.00
O785   O     0.00000   0.78037   0.83755   0.00000  Uiso   1.00
O786   O     0.00000   0.71963   0.16245   0.00000  Uiso   1.00
O787   O     0.21964   0.50000   0.83755   0.00000  Uiso   1.00
O788   O     0.28037   0.50000   0.16245   0.00000  Uiso   1.00
O789   O     0.20725   0.57307   0.27302   0.00000  Uiso   1.00
O790   O     0.29276   0.92692   0.72698   0.00000  Uiso   1.00
O791   O     0.42693   0.70724   0.27302   0.00000  Uiso   1.00
O792   O     0.07308   0.79276   0.72698   0.00000  Uiso   1.00
O793   O     0.29276   0.92692   0.27302   0.00000  Uiso   1.00
O794   O     0.20725   0.57307   0.72698   0.00000  Uiso   1.00
O795   O     0.07308   0.79276   0.27302   0.00000  Uiso   1.00
O796   O     0.42693   0.70724   0.72698   0.00000  Uiso   1.00
O797   O     0.20725   0.92692   0.72698   0.00000  Uiso   1.00
O798   O     0.29276   0.57307   0.27302   0.00000  Uiso   1.00
O799   O     0.42693   0.79275   0.72698   0.00000  Uiso   1.00
O800   O     0.07308   0.70724   0.27302   0.00000  Uiso   1.00
O801   O     0.29276   0.57307   0.72698   0.00000  Uiso   1.00
O802   O     0.20725   0.92692   0.27302   0.00000  Uiso   1.00
O803   O     0.07308   0.70724   0.72698   0.00000  Uiso   1.00
O804   O     0.42693   0.79275   0.27302   0.00000  Uiso   1.00
O805   O     0.45725   0.82307   0.77302   0.00000  Uiso   1.00
O806   O     0.04276   0.67693   0.22698   0.00000  Uiso   1.00
O807   O     0.17693   0.95724   0.77302   0.00000  Uiso   1.00
O808   O     0.32308   0.54275   0.22698   0.00000  Uiso   1.00
O809   O     0.04276   0.67693   0.77302   0.00000  Uiso   1.00
O810   O     0.45725   0.82307   0.22698   0.00000  Uiso   1.00
O811   O     0.32308   0.54275   0.77302   0.00000  Uiso   1.00
O812   O     0.17693   0.95724   0.22698   0.00000  Uiso   1.00
O813   O     0.45725   0.67692   0.22698   0.00000  Uiso   1.00
O814   O     0.04276   0.82308   0.77302   0.00000  Uiso   1.00
O815   O     0.17693   0.54275   0.22698   0.00000  Uiso   1.00
O816   O     0.32308   0.95724   0.77302   0.00000  Uiso   1.00
O817   O     0.04276   0.82308   0.22698   0.00000  Uiso   1.00
O818   O     0.45725   0.67692   0.77302   0.00000  Uiso   1.00
O819   O     0.32308   0.95724   0.22698   0.00000  Uiso   1.00
O820   O     0.17693   0.54275   0.77302   0.00000  Uiso   1.00
C821   C     0.00011   0.68282   0.47977   0.00000  Uiso   1.00
C822   C     0.49900   0.81685   0.52021   0.00000  Uiso   1.00
C823   C     0.31686   0.99738   0.48001   0.00000  Uiso   1.00
C824   C     0.18332   0.50253   0.52000   0.00000  Uiso   1.00
C825   C     0.00123   0.81682   0.47961   0.00000  Uiso   1.00
C826   C     0.00275   0.68287   0.52034   0.00000  Uiso   1.00
C827   C     0.18342   0.99549   0.48015   0.00000  Uiso   1.00
C828   C     0.31678   0.50405   0.51995   0.00000  Uiso   1.00
C829   C     0.24422   0.93321   0.98014   0.00000  Uiso   1.00
C830   C     0.25557   0.56678   0.01990   0.00000  Uiso   1.00
C831   C     0.06674   0.74729   0.98001   0.00000  Uiso   1.00
C832   C     0.43323   0.75276   0.01998   0.00000  Uiso   1.00
C833   C     0.24885   0.56695   0.97999   0.00000  Uiso   1.00
C834   C     0.25108   0.93302   0.02002   0.00000  Uiso   1.00
C835   C     0.43329   0.74597   0.98008   0.00000  Uiso   1.00
C836   C     0.06667   0.75429   0.01987   0.00000  Uiso   1.00
C837   C     0.25004   0.99994   0.35578   0.00000  Uiso   1.00
C838   C     0.25000   0.50006   0.64424   0.00000  Uiso   1.00
C839   C     0.00000   0.74990   0.35579   0.00000  Uiso   1.00
C840   C     0.00006   0.75008   0.64421   0.00000  Uiso   1.00
C841   C     0.00002   0.74994   0.85577   0.00000  Uiso   1.00
C842   C     0.49997   0.75006   0.14423   0.00000  Uiso   1.00
C843   C     0.24994   0.99996   0.85575   0.00000  Uiso   1.00
C844   C     0.25006   0.50002   0.14425   0.00000  Uiso   1.00
C845   C     0.18000   0.56997   0.24999   0.00000  Uiso   1.00
C846   C     0.32005   0.93005   0.74977   0.00000  Uiso   1.00
C847   C     0.43000   0.68001   0.25004   0.00000  Uiso   1.00
C848   C     0.06995   0.82006   0.74980   0.00000  Uiso   1.00
C849   C     0.31998   0.92999   0.25018   0.00000  Uiso   1.00
C850   C     0.17992   0.56993   0.74966   0.00000  Uiso   1.00
C851   C     0.07003   0.81997   0.24976   0.00000  Uiso   1.00
C852   C     0.42993   0.68006   0.75030   0.00000  Uiso   1.00
C853   C     0.18010   0.92989   0.75028   0.00000  Uiso   1.00
C854   C     0.31992   0.57011   0.24977   0.00000  Uiso   1.00
C855   C     0.43010   0.82008   0.74997   0.00000  Uiso   1.00
C856   C     0.06993   0.67992   0.25019   0.00000  Uiso   1.00
C857   C     0.31999   0.56999   0.74980   0.00000  Uiso   1.00
C858   C     0.17992   0.93007   0.25033   0.00000  Uiso   1.00
C859   C     0.07003   0.68003   0.75025   0.00000  Uiso   1.00
C860   C     0.42995   0.81996   0.24971   0.00000  Uiso   1.00
C861   C     0.14296   0.88423   0.21516   0.00000  Uiso   1.00
C862   C     0.35688   0.61589   0.78507   0.00000  Uiso   1.00
C863   C     0.11464   0.64163   0.21480   0.00000  Uiso   1.00
C864   C     0.38586   0.85880   0.78504   0.00000  Uiso   1.00
C865   C     0.35854   0.61461   0.21457   0.00000  Uiso   1.00
C866   C     0.14183   0.88498   0.78530   0.00000  Uiso   1.00
C867   C     0.38101   0.85408   0.21614   0.00000  Uiso   1.00
C868   C     0.11819   0.64510   0.78402   0.00000  Uiso   1.00
C869   C     0.14607   0.61893   0.78348   0.00000  Uiso   1.00
C870   C     0.35309   0.88025   0.21667   0.00000  Uiso   1.00
C871   C     0.11538   0.85738   0.78515   0.00000  Uiso   1.00
C872   C     0.38510   0.64209   0.21461   0.00000  Uiso   1.00
C873   C     0.35825   0.88523   0.78509   0.00000  Uiso   1.00
C874   C     0.14126   0.61419   0.21486   0.00000  Uiso   1.00
C875   C     0.38456   0.64227   0.78529   0.00000  Uiso   1.00
C876   C     0.11528   0.85788   0.21493   0.00000  Uiso   1.00
C877   C     0.39280   0.63427   0.71525   0.00000  Uiso   1.00
C878   C     0.10698   0.86579   0.28503   0.00000  Uiso   1.00
C879   C     0.36444   0.89145   0.71453   0.00000  Uiso   1.00
C880   C     0.13515   0.60802   0.28540   0.00000  Uiso   1.00
C881   C     0.10838   0.86482   0.71487   0.00000  Uiso   1.00
C882   C     0.39112   0.63586   0.28513   0.00000  Uiso   1.00
C883   C     0.13171   0.60482   0.71570   0.00000  Uiso   1.00
C884   C     0.36892   0.89598   0.28364   0.00000  Uiso   1.00
C885   C     0.39668   0.86966   0.28322   0.00000  Uiso   1.00
C886   C     0.10397   0.63120   0.71612   0.00000  Uiso   1.00
C887   C     0.36462   0.60833   0.28512   0.00000  Uiso   1.00
C888   C     0.13470   0.89252   0.71502   0.00000  Uiso   1.00
C889   C     0.10868   0.63560   0.28539   0.00000  Uiso   1.00
C890   C     0.39201   0.86497   0.71449   0.00000  Uiso   1.00
C891   C     0.13467   0.89214   0.28526   0.00000  Uiso   1.00
C892   C     0.36513   0.60795   0.71500   0.00000  Uiso   1.00
C893   C     0.00216   0.71616   0.45897   0.00000  Uiso   1.00
C894   C     0.00178   0.78355   0.54097   0.00000  Uiso   1.00
C895   C     0.28377   0.99884   0.45893   0.00000  Uiso   1.00
C896   C     0.21640   0.50116   0.54111   0.00000  Uiso   1.00
C897   C     0.49889   0.78342   0.45896   0.00000  Uiso   1.00
C898   C     0.49988   0.71621   0.54108   0.00000  Uiso   1.00
C899   C     0.21645   0.99775   0.45898   0.00000  Uiso   1.00
C900   C     0.28374   0.50184   0.54110   0.00000  Uiso   1.00
C901   C     0.24718   0.96626   0.95897   0.00000  Uiso   1.00
C902   C     0.25264   0.53372   0.04106   0.00000  Uiso   1.00
C903   C     0.03367   0.74874   0.95890   0.00000  Uiso   1.00
C904   C     0.46631   0.75124   0.04107   0.00000  Uiso   1.00
C905   C     0.24962   0.53371   0.95894   0.00000  Uiso   1.00
C906   C     0.25037   0.96625   0.04109   0.00000  Uiso   1.00
C907   C     0.46633   0.74811   0.95893   0.00000  Uiso   1.00
C908   C     0.03363   0.75213   0.04104   0.00000  Uiso   1.00
C909   C     0.09752   0.84862   0.24985   0.00000  Uiso   1.00
C910   C     0.40232   0.65147   0.75036   0.00000  Uiso   1.00
C911   C     0.15161   0.59772   0.25013   0.00000  Uiso   1.00
C912   C     0.34772   0.90155   0.74977   0.00000  Uiso   1.00
C913   C     0.40155   0.65232   0.24989   0.00000  Uiso   1.00
C914   C     0.09857   0.84758   0.74992   0.00000  Uiso   1.00
C915   C     0.34748   0.90137   0.25028   0.00000  Uiso   1.00
C916   C     0.15238   0.59856   0.74949   0.00000  Uiso   1.00
C917   C     0.09749   0.65136   0.75025   0.00000  Uiso   1.00
C918   C     0.40242   0.84862   0.24955   0.00000  Uiso   1.00
C919   C     0.15152   0.90233   0.75024   0.00000  Uiso   1.00
C920   C     0.34837   0.59784   0.24979   0.00000  Uiso   1.00
C921   C     0.40240   0.84855   0.74980   0.00000  Uiso   1.00
C922   C     0.09839   0.65219   0.25013   0.00000  Uiso   1.00
C923   C     0.34743   0.59868   0.74991   0.00000  Uiso   1.00
C924   C     0.15241   0.90142   0.25031   0.00000  Uiso   1.00
C925   C     0.00059   0.74981   0.47950   0.00000  Uiso   1.00
C926   C     0.00071   0.74985   0.52050   0.00000  Uiso   1.00
C927   C     0.25010   0.99939   0.47946   0.00000  Uiso   1.00
C928   C     0.25009   0.50041   0.52060   0.00000  Uiso   1.00
C929   C     0.24946   0.99997   0.97946   0.00000  Uiso   1.00
C930   C     0.25044   0.50000   0.02058   0.00000  Uiso   1.00
C931   C     0.49999   0.74953   0.97942   0.00000  Uiso   1.00
C932   C     0.49998   0.75058   0.02055   0.00000  Uiso   1.00
I933   I     0.48230   0.63282   0.45280   0.00000  Uiso   1.00
I934   I     0.48084   0.86661   0.54749   0.00000  Uiso   1.00
I935   I     0.36636   0.97492   0.45626   0.00000  Uiso   1.00
I936   I     0.13383   0.52533   0.54340   0.00000  Uiso   1.00
I937   I     0.01875   0.86683   0.45237   0.00000  Uiso   1.00
I938   I     0.02177   0.63316   0.54709   0.00000  Uiso   1.00
I939   I     0.13457   0.97139   0.45685   0.00000  Uiso   1.00
I940   I     0.36577   0.52755   0.54361   0.00000  Uiso   1.00
I941   I     0.21940   0.88467   0.95672   0.00000  Uiso   1.00
I942   I     0.28015   0.61539   0.04345   0.00000  Uiso   1.00
I943   I     0.11619   0.72441   0.95656   0.00000  Uiso   1.00
I944   I     0.38379   0.77546   0.04366   0.00000  Uiso   1.00
I945   I     0.22738   0.61702   0.95628   0.00000  Uiso   1.00
I946   I     0.27262   0.88292   0.04358   0.00000  Uiso   1.00
I947   I     0.38427   0.72241   0.95655   0.00000  Uiso   1.00
I948   I     0.11560   0.77819   0.04320   0.00000  Uiso   1.00
N949   N     0.16203   0.89281   0.17984   0.00000  Uiso   1.00
O950   O     0.19749   0.89205   0.17887   0.00000  Uiso   1.00
O951   O     0.14402   0.89978   0.14814   0.00000  Uiso   1.00
N952   N     0.33784   0.60728   0.82039   0.00000  Uiso   1.00
O953   O     0.30238   0.60792   0.82133   0.00000  Uiso   1.00
O954   O     0.35586   0.60044   0.85211   0.00000  Uiso   1.00
N955   N     0.10604   0.66055   0.17938   0.00000  Uiso   1.00
O956   O     0.10805   0.69605   0.17782   0.00000  Uiso   1.00
O957   O     0.09632   0.64245   0.14858   0.00000  Uiso   1.00
N958   N     0.39492   0.84008   0.82030   0.00000  Uiso   1.00
O959   O     0.38518   0.80616   0.82499   0.00000  Uiso   1.00
O960   O     0.41707   0.85511   0.84506   0.00000  Uiso   1.00
N961   N     0.33991   0.60587   0.17917   0.00000  Uiso   1.00
O962   O     0.31949   0.63039   0.16252   0.00000  Uiso   1.00
O963   O     0.34820   0.57614   0.16039   0.00000  Uiso   1.00
N964   N     0.16083   0.89330   0.82059   0.00000  Uiso   1.00
O965   O     0.18121   0.86850   0.83684   0.00000  Uiso   1.00
O966   O     0.15302   0.92300   0.83965   0.00000  Uiso   1.00
N967   N     0.38620   0.83162   0.18245   0.00000  Uiso   1.00
O968   O     0.36013   0.81023   0.17064   0.00000  Uiso   1.00
O969   O     0.41498   0.83603   0.16085   0.00000  Uiso   1.00
N970   N     0.11248   0.66692   0.81808   0.00000  Uiso   1.00
O971   O     0.13825   0.68834   0.83054   0.00000  Uiso   1.00
O972   O     0.08363   0.66176   0.83939   0.00000  Uiso   1.00
N973   N     0.16901   0.61414   0.81685   0.00000  Uiso   1.00
O974   O     0.20417   0.61752   0.81337   0.00000  Uiso   1.00
O975   O     0.15482   0.60923   0.85110   0.00000  Uiso   1.00
N976   N     0.32957   0.88445   0.18367   0.00000  Uiso   1.00
O977   O     0.29444   0.88156   0.18795   0.00000  Uiso   1.00
O978   O     0.34316   0.88856   0.14902   0.00000  Uiso   1.00
N979   N     0.10643   0.83863   0.82059   0.00000  Uiso   1.00
O980   O     0.10699   0.80307   0.82190   0.00000  Uiso   1.00
O981   O     0.09932   0.85699   0.85205   0.00000  Uiso   1.00
N982   N     0.39440   0.66040   0.17903   0.00000  Uiso   1.00
O983   O     0.39363   0.69593   0.17717   0.00000  Uiso   1.00
O984   O     0.40189   0.64167   0.14791   0.00000  Uiso   1.00
N985   N     0.33928   0.89369   0.82052   0.00000  Uiso   1.00
O986   O     0.30386   0.89192   0.82190   0.00000  Uiso   1.00
O987   O     0.35726   0.90285   0.85157   0.00000  Uiso   1.00
N988   N     0.16000   0.60521   0.17959   0.00000  Uiso   1.00
O989   O     0.19404   0.61434   0.17531   0.00000  Uiso   1.00
O990   O     0.14477   0.58358   0.15440   0.00000  Uiso   1.00
N991   N     0.39262   0.66164   0.82046   0.00000  Uiso   1.00
O992   O     0.36779   0.68219   0.83637   0.00000  Uiso   1.00
O993   O     0.42227   0.65423   0.83964   0.00000  Uiso   1.00
N994   N     0.10724   0.83855   0.17974   0.00000  Uiso   1.00
O995   O     0.13204   0.81791   0.16390   0.00000  Uiso   1.00
O996   O     0.07771   0.84614   0.16043   0.00000  Uiso   1.00
N997   N     0.41203   0.64259   0.68004   0.00000  Uiso   1.00
O998   O     0.44740   0.64009   0.67897   0.00000  Uiso   1.00
O999   O     0.39421   0.65009   0.64836   0.00000  Uiso   1.00
N1000  N     0.08785   0.85723   0.32034   0.00000  Uiso   1.00
O1001  O     0.05240   0.85815   0.32128   0.00000  Uiso   1.00
O1002  O     0.10577   0.85023   0.35209   0.00000  Uiso   1.00
N1003  N     0.35545   0.91011   0.67919   0.00000  Uiso   1.00
O1004  O     0.37920   0.93180   0.66315   0.00000  Uiso   1.00
O1005  O     0.32614   0.90119   0.66017   0.00000  Uiso   1.00
N1006  N     0.14439   0.58972   0.32103   0.00000  Uiso   1.00
O1007  O     0.14383   0.55418   0.32288   0.00000  Uiso   1.00
O1008  O     0.15183   0.60847   0.35213   0.00000  Uiso   1.00
N1009  N     0.08981   0.85600   0.67949   0.00000  Uiso   1.00
O1010  O     0.06846   0.88003   0.66335   0.00000  Uiso   1.00
O1011  O     0.09864   0.82658   0.66045   0.00000  Uiso   1.00
N1012  N     0.40955   0.64501   0.32049   0.00000  Uiso   1.00
O1013  O     0.44305   0.63445   0.32587   0.00000  Uiso   1.00
O1014  O     0.39459   0.66759   0.34494   0.00000  Uiso   1.00
N1015  N     0.13745   0.58298   0.68166   0.00000  Uiso   1.00
O1016  O     0.11147   0.56202   0.66881   0.00000  Uiso   1.00
O1017  O     0.16654   0.58783   0.66064   0.00000  Uiso   1.00
N1018  N     0.36383   0.91860   0.31722   0.00000  Uiso   1.00
O1019  O     0.38990   0.94012   0.32874   0.00000  Uiso   1.00
O1020  O     0.33518   0.91421   0.33903   0.00000  Uiso   1.00
N1021  N     0.41958   0.86495   0.31663   0.00000  Uiso   1.00
O1022  O     0.45485   0.86647   0.31298   0.00000  Uiso   1.00
O1023  O     0.40528   0.86205   0.35108   0.00000  Uiso   1.00
N1024  N     0.08181   0.63684   0.68224   0.00000  Uiso   1.00
O1025  O     0.04644   0.63573   0.68499   0.00000  Uiso   1.00
O1026  O     0.09682   0.64124   0.64831   0.00000  Uiso   1.00
N1027  N     0.35600   0.58942   0.32054   0.00000  Uiso   1.00
O1028  O     0.35804   0.55393   0.32207   0.00000  Uiso   1.00
O1029  O     0.34671   0.60755   0.35149   0.00000  Uiso   1.00
N1030  N     0.14355   0.91133   0.67958   0.00000  Uiso   1.00
O1031  O     0.14284   0.94688   0.67829   0.00000  Uiso   1.00
O1032  O     0.15077   0.89301   0.64812   0.00000  Uiso   1.00
N1033  N     0.09046   0.64493   0.32085   0.00000  Uiso   1.00
O1034  O     0.06919   0.62118   0.33754   0.00000  Uiso   1.00
O1035  O     0.09976   0.67439   0.33953   0.00000  Uiso   1.00
N1036  N     0.41012   0.85563   0.67878   0.00000  Uiso   1.00
O1037  O     0.44554   0.85621   0.67671   0.00000  Uiso   1.00
O1038  O     0.39130   0.84830   0.64774   0.00000  Uiso   1.00
N1039  N     0.14274   0.91146   0.32045   0.00000  Uiso   1.00
O1040  O     0.11792   0.93198   0.33641   0.00000  Uiso   1.00
O1041  O     0.17237   0.90396   0.33964   0.00000  Uiso   1.00
N1042  N     0.35710   0.58862   0.67980   0.00000  Uiso   1.00
O1043  O     0.38183   0.56782   0.66408   0.00000  Uiso   1.00
O1044  O     0.32764   0.59630   0.66041   0.00000  Uiso   1.00
N1045  N     0.47908   0.81333   0.39804   0.00000  Uiso   1.00
O1046  O     0.49502   0.82612   0.36715   0.00000  Uiso   1.00
O1047  O     0.44878   0.82808   0.40998   0.00000  Uiso   1.00
N1048  N     0.48236   0.68569   0.60255   0.00000  Uiso   1.00
O1049  O     0.00013   0.67337   0.63249   0.00000  Uiso   1.00
O1050  O     0.45214   0.66990   0.59205   0.00000  Uiso   1.00
N1051  N     0.18415   0.50753   0.39667   0.00000  Uiso   1.00
O1052  O     0.17399   0.98705   0.36775   0.00000  Uiso   1.00
O1053  O     0.16669   0.53782   0.40368   0.00000  Uiso   1.00
N1054  N     0.31586   0.99132   0.60342   0.00000  Uiso   1.00
O1055  O     0.32613   0.51126   0.63272   0.00000  Uiso   1.00
O1056  O     0.33294   0.96088   0.59611   0.00000  Uiso   1.00
N1057  N     0.02161   0.68620   0.39776   0.00000  Uiso   1.00
O1058  O     0.00631   0.67390   0.36628   0.00000  Uiso   1.00
O1059  O     0.05182   0.67136   0.40984   0.00000  Uiso   1.00
N1060  N     0.02174   0.81369   0.60179   0.00000  Uiso   1.00
O1061  O     0.00719   0.82577   0.63378   0.00000  Uiso   1.00
O1062  O     0.05162   0.82865   0.58897   0.00000  Uiso   1.00
N1063  N     0.31563   0.51029   0.39665   0.00000  Uiso   1.00
O1064  O     0.32652   0.99056   0.36742   0.00000  Uiso   1.00
O1065  O     0.33205   0.54103   0.40414   0.00000  Uiso   1.00
N1066  N     0.18439   0.99042   0.60344   0.00000  Uiso   1.00
O1067  O     0.17359   0.51056   0.63239   0.00000  Uiso   1.00
O1068  O     0.16783   0.95968   0.59635   0.00000  Uiso   1.00
N1069  N     0.26162   0.56537   0.89675   0.00000  Uiso   1.00
O1070  O     0.24190   0.57674   0.86781   0.00000  Uiso   1.00
O1071  O     0.29260   0.58125   0.90411   0.00000  Uiso   1.00
N1072  N     0.23879   0.93454   0.10335   0.00000  Uiso   1.00
O1073  O     0.25876   0.92325   0.13215   0.00000  Uiso   1.00
O1074  O     0.20778   0.91860   0.09631   0.00000  Uiso   1.00
N1075  N     0.43418   0.75840   0.89660   0.00000  Uiso   1.00
O1076  O     0.42388   0.73822   0.86749   0.00000  Uiso   1.00
O1077  O     0.41706   0.78886   0.90371   0.00000  Uiso   1.00
N1078  N     0.06587   0.74234   0.10340   0.00000  Uiso   1.00
O1079  O     0.07604   0.76285   0.13230   0.00000  Uiso   1.00
O1080  O     0.08322   0.71196   0.09653   0.00000  Uiso   1.00
N1081  N     0.25650   0.93370   0.89664   0.00000  Uiso   1.00
O1082  O     0.23606   0.92393   0.86757   0.00000  Uiso   1.00
O1083  O     0.28643   0.91575   0.90368   0.00000  Uiso   1.00
N1084  N     0.24298   0.56623   0.10336   0.00000  Uiso   1.00
O1085  O     0.26320   0.57610   0.13257   0.00000  Uiso   1.00
O1086  O     0.21298   0.58402   0.09618   0.00000  Uiso   1.00
N1087  N     0.06567   0.75948   0.89657   0.00000  Uiso   1.00
O1088  O     0.07643   0.73933   0.86760   0.00000  Uiso   1.00
O1089  O     0.08232   0.79016   0.90370   0.00000  Uiso   1.00
N1090  N     0.43438   0.73991   0.10332   0.00000  Uiso   1.00
O1091  O     0.42350   0.75971   0.13249   0.00000  Uiso   1.00
O1092  O     0.41785   0.70924   0.09578   0.00000  Uiso   1.00
Zn1093 Zn    0.70660   0.50000   0.21735   0.00000  Uiso   1.00
Zn1094 Zn    0.79341   0.50000   0.78265   0.00000  Uiso   1.00
Zn1095 Zn    0.50000   0.70659   0.21735   0.00000  Uiso   1.00
Zn1096 Zn    0.50000   0.79340   0.78265   0.00000  Uiso   1.00
Zn1097 Zn    0.79341   0.50000   0.21735   0.00000  Uiso   1.00
Zn1098 Zn    0.70660   0.50000   0.78265   0.00000  Uiso   1.00
Zn1099 Zn    0.50000   0.79340   0.21735   0.00000  Uiso   1.00
Zn1100 Zn    0.50000   0.70659   0.78265   0.00000  Uiso   1.00
Zn1101 Zn    0.95660   0.75000   0.71735   0.00000  Uiso   1.00
Zn1102 Zn    0.54341   0.75000   0.28265   0.00000  Uiso   1.00
Zn1103 Zn    0.75000   0.95659   0.71735   0.00000  Uiso   1.00
Zn1104 Zn    0.75000   0.54340   0.28265   0.00000  Uiso   1.00
Zn1105 Zn    0.54341   0.75000   0.71735   0.00000  Uiso   1.00
Zn1106 Zn    0.95660   0.75000   0.28265   0.00000  Uiso   1.00
Zn1107 Zn    0.75000   0.54340   0.71735   0.00000  Uiso   1.00
Zn1108 Zn    0.75000   0.95659   0.28265   0.00000  Uiso   1.00
C1109  C     0.99396   0.78248   0.41833   0.00000  Uiso   1.00
C1110  C     0.99527   0.71712   0.58179   0.00000  Uiso   1.00
C1111  C     0.71676   0.99923   0.41800   0.00000  Uiso   1.00
C1112  C     0.78339   0.50026   0.58209   0.00000  Uiso   1.00
C1113  C     0.50659   0.71700   0.41821   0.00000  Uiso   1.00
C1114  C     0.50644   0.78285   0.58167   0.00000  Uiso   1.00
C1115  C     0.78338   0.50054   0.41795   0.00000  Uiso   1.00
C1116  C     0.71674   0.99970   0.58208   0.00000  Uiso   1.00
C1117  C     0.75133   0.53325   0.91801   0.00000  Uiso   1.00
C1118  C     0.74880   0.96671   0.08203   0.00000  Uiso   1.00
C1119  C     0.96668   0.74965   0.91794   0.00000  Uiso   1.00
C1120  C     0.53329   0.75068   0.08203   0.00000  Uiso   1.00
C1121  C     0.74868   0.96653   0.91797   0.00000  Uiso   1.00
C1122  C     0.75108   0.53345   0.08205   0.00000  Uiso   1.00
C1123  C     0.53332   0.75023   0.91792   0.00000  Uiso   1.00
C1124  C     0.96667   0.74956   0.08204   0.00000  Uiso   1.00
C1125  C     0.50007   0.74975   0.39813   0.00000  Uiso   1.00
C1126  C     0.50033   0.75010   0.60186   0.00000  Uiso   1.00
C1127  C     0.75008   0.99929   0.39807   0.00000  Uiso   1.00
C1128  C     0.75004   0.50067   0.60197   0.00000  Uiso   1.00
C1129  C     0.74934   0.99994   0.89808   0.00000  Uiso   1.00
C1130  C     0.75064   0.50004   0.10195   0.00000  Uiso   1.00
C1131  C     0.50001   0.74931   0.89805   0.00000  Uiso   1.00
C1132  C     0.99996   0.75071   0.10193   0.00000  Uiso   1.00
O1133  O     0.75000   0.50000   0.25000   0.00000  Uiso   1.00
O1134  O     0.75000   0.50000   0.75000   0.00000  Uiso   1.00
O1135  O     0.50000   0.75000   0.25000   0.00000  Uiso   1.00
O1136  O     0.50000   0.75000   0.75000   0.00000  Uiso   1.00
O1137  O     0.75000   0.96963   0.33755   0.00000  Uiso   1.00
O1138  O     0.75000   0.53036   0.66245   0.00000  Uiso   1.00
O1139  O     0.53037   0.75000   0.33755   0.00000  Uiso   1.00
O1140  O     0.96964   0.75000   0.66245   0.00000  Uiso   1.00
O1141  O     0.75000   0.53036   0.33755   0.00000  Uiso   1.00
O1142  O     0.75000   0.96963   0.66245   0.00000  Uiso   1.00
O1143  O     0.96964   0.75000   0.33755   0.00000  Uiso   1.00
O1144  O     0.53037   0.75000   0.66245   0.00000  Uiso   1.00
O1145  O     0.50000   0.71963   0.83755   0.00000  Uiso   1.00
O1146  O     0.50000   0.78036   0.16245   0.00000  Uiso   1.00
O1147  O     0.78037   0.50000   0.83755   0.00000  Uiso   1.00
O1148  O     0.71964   0.50000   0.16245   0.00000  Uiso   1.00
O1149  O     0.50000   0.78037   0.83755   0.00000  Uiso   1.00
O1150  O     0.50000   0.71963   0.16245   0.00000  Uiso   1.00
O1151  O     0.71964   0.50000   0.83755   0.00000  Uiso   1.00
O1152  O     0.78037   0.50000   0.16245   0.00000  Uiso   1.00
O1153  O     0.70725   0.57307   0.27302   0.00000  Uiso   1.00
O1154  O     0.79276   0.92692   0.72698   0.00000  Uiso   1.00
O1155  O     0.92693   0.70724   0.27302   0.00000  Uiso   1.00
O1156  O     0.57308   0.79276   0.72698   0.00000  Uiso   1.00
O1157  O     0.79276   0.92692   0.27302   0.00000  Uiso   1.00
O1158  O     0.70725   0.57307   0.72698   0.00000  Uiso   1.00
O1159  O     0.57308   0.79276   0.27302   0.00000  Uiso   1.00
O1160  O     0.92693   0.70724   0.72698   0.00000  Uiso   1.00
O1161  O     0.70725   0.92692   0.72698   0.00000  Uiso   1.00
O1162  O     0.79276   0.57307   0.27302   0.00000  Uiso   1.00
O1163  O     0.92693   0.79275   0.72698   0.00000  Uiso   1.00
O1164  O     0.57308   0.70724   0.27302   0.00000  Uiso   1.00
O1165  O     0.79276   0.57307   0.72698   0.00000  Uiso   1.00
O1166  O     0.70725   0.92692   0.27302   0.00000  Uiso   1.00
O1167  O     0.57308   0.70724   0.72698   0.00000  Uiso   1.00
O1168  O     0.92693   0.79275   0.27302   0.00000  Uiso   1.00
O1169  O     0.95725   0.82307   0.77302   0.00000  Uiso   1.00
O1170  O     0.54276   0.67693   0.22698   0.00000  Uiso   1.00
O1171  O     0.67693   0.95724   0.77302   0.00000  Uiso   1.00
O1172  O     0.82308   0.54275   0.22698   0.00000  Uiso   1.00
O1173  O     0.54276   0.67693   0.77302   0.00000  Uiso   1.00
O1174  O     0.95725   0.82307   0.22698   0.00000  Uiso   1.00
O1175  O     0.82308   0.54275   0.77302   0.00000  Uiso   1.00
O1176  O     0.67693   0.95724   0.22698   0.00000  Uiso   1.00
O1177  O     0.95725   0.67692   0.22698   0.00000  Uiso   1.00
O1178  O     0.54276   0.82308   0.77302   0.00000  Uiso   1.00
O1179  O     0.67693   0.54275   0.22698   0.00000  Uiso   1.00
O1180  O     0.82308   0.95724   0.77302   0.00000  Uiso   1.00
O1181  O     0.54276   0.82308   0.22698   0.00000  Uiso   1.00
O1182  O     0.95725   0.67692   0.77302   0.00000  Uiso   1.00
O1183  O     0.82308   0.95724   0.22698   0.00000  Uiso   1.00
O1184  O     0.67693   0.54275   0.77302   0.00000  Uiso   1.00
C1185  C     0.50011   0.68282   0.47977   0.00000  Uiso   1.00
C1186  C     0.99900   0.81685   0.52021   0.00000  Uiso   1.00
C1187  C     0.81686   0.99738   0.48001   0.00000  Uiso   1.00
C1188  C     0.68332   0.50253   0.52000   0.00000  Uiso   1.00
C1189  C     0.50123   0.81682   0.47961   0.00000  Uiso   1.00
C1190  C     0.50275   0.68287   0.52034   0.00000  Uiso   1.00
C1191  C     0.68342   0.99549   0.48015   0.00000  Uiso   1.00
C1192  C     0.81678   0.50405   0.51995   0.00000  Uiso   1.00
C1193  C     0.74422   0.93321   0.98014   0.00000  Uiso   1.00
C1194  C     0.75557   0.56678   0.01990   0.00000  Uiso   1.00
C1195  C     0.56674   0.74729   0.98001   0.00000  Uiso   1.00
C1196  C     0.93323   0.75276   0.01998   0.00000  Uiso   1.00
C1197  C     0.74885   0.56695   0.97999   0.00000  Uiso   1.00
C1198  C     0.75108   0.93302   0.02002   0.00000  Uiso   1.00
C1199  C     0.93329   0.74597   0.98008   0.00000  Uiso   1.00
C1200  C     0.56667   0.75429   0.01987   0.00000  Uiso   1.00
C1201  C     0.75004   0.99994   0.35578   0.00000  Uiso   1.00
C1202  C     0.75000   0.50006   0.64424   0.00000  Uiso   1.00
C1203  C     0.50000   0.74990   0.35579   0.00000  Uiso   1.00
C1204  C     0.50006   0.75008   0.64421   0.00000  Uiso   1.00
C1205  C     0.50002   0.74994   0.85577   0.00000  Uiso   1.00
C1206  C     0.99997   0.75006   0.14423   0.00000  Uiso   1.00
C1207  C     0.74994   0.99996   0.85575   0.00000  Uiso   1.00
C1208  C     0.75006   0.50002   0.14425   0.00000  Uiso   1.00
C1209  C     0.68000   0.56997   0.24999   0.00000  Uiso   1.00
C1210  C     0.82005   0.93005   0.74977   0.00000  Uiso   1.00
C1211  C     0.93000   0.68001   0.25004   0.00000  Uiso   1.00
C1212  C     0.56995   0.82006   0.74980   0.00000  Uiso   1.00
C1213  C     0.81998   0.92999   0.25018   0.00000  Uiso   1.00
C1214  C     0.67992   0.56993   0.74966   0.00000  Uiso   1.00
C1215  C     0.57003   0.81997   0.24976   0.00000  Uiso   1.00
C1216  C     0.92993   0.68006   0.75030   0.00000  Uiso   1.00
C1217  C     0.68010   0.92989   0.75028   0.00000  Uiso   1.00
C1218  C     0.81992   0.57011   0.24977   0.00000  Uiso   1.00
C1219  C     0.93010   0.82008   0.74997   0.00000  Uiso   1.00
C1220  C     0.56993   0.67992   0.25019   0.00000  Uiso   1.00
C1221  C     0.81999   0.56999   0.74980   0.00000  Uiso   1.00
C1222  C     0.67992   0.93007   0.25033   0.00000  Uiso   1.00
C1223  C     0.57003   0.68003   0.75025   0.00000  Uiso   1.00
C1224  C     0.92995   0.81996   0.24971   0.00000  Uiso   1.00
C1225  C     0.64296   0.88423   0.21516   0.00000  Uiso   1.00
C1226  C     0.85688   0.61589   0.78507   0.00000  Uiso   1.00
C1227  C     0.61464   0.64163   0.21480   0.00000  Uiso   1.00
C1228  C     0.88586   0.85880   0.78504   0.00000  Uiso   1.00
C1229  C     0.85854   0.61461   0.21457   0.00000  Uiso   1.00
C1230  C     0.64183   0.88498   0.78530   0.00000  Uiso   1.00
C1231  C     0.88101   0.85408   0.21614   0.00000  Uiso   1.00
C1232  C     0.61819   0.64510   0.78402   0.00000  Uiso   1.00
C1233  C     0.64607   0.61893   0.78348   0.00000  Uiso   1.00
C1234  C     0.85309   0.88025   0.21667   0.00000  Uiso   1.00
C1235  C     0.61538   0.85738   0.78515   0.00000  Uiso   1.00
C1236  C     0.88510   0.64209   0.21461   0.00000  Uiso   1.00
C1237  C     0.85825   0.88523   0.78509   0.00000  Uiso   1.00
C1238  C     0.64126   0.61419   0.21486   0.00000  Uiso   1.00
C1239  C     0.88456   0.64227   0.78529   0.00000  Uiso   1.00
C1240  C     0.61528   0.85788   0.21493   0.00000  Uiso   1.00
C1241  C     0.89280   0.63427   0.71525   0.00000  Uiso   1.00
C1242  C     0.60698   0.86579   0.28503   0.00000  Uiso   1.00
C1243  C     0.86444   0.89145   0.71453   0.00000  Uiso   1.00
C1244  C     0.63515   0.60802   0.28540   0.00000  Uiso   1.00
C1245  C     0.60838   0.86482   0.71487   0.00000  Uiso   1.00
C1246  C     0.89112   0.63586   0.28513   0.00000  Uiso   1.00
C1247  C     0.63171   0.60482   0.71570   0.00000  Uiso   1.00
C1248  C     0.86892   0.89598   0.28364   0.00000  Uiso   1.00
C1249  C     0.89668   0.86966   0.28322   0.00000  Uiso   1.00
C1250  C     0.60397   0.63120   0.71612   0.00000  Uiso   1.00
C1251  C     0.86462   0.60833   0.28512   0.00000  Uiso   1.00
C1252  C     0.63470   0.89252   0.71502   0.00000  Uiso   1.00
C1253  C     0.60868   0.63560   0.28539   0.00000  Uiso   1.00
C1254  C     0.89201   0.86497   0.71449   0.00000  Uiso   1.00
C1255  C     0.63467   0.89214   0.28526   0.00000  Uiso   1.00
C1256  C     0.86513   0.60795   0.71500   0.00000  Uiso   1.00
C1257  C     0.50216   0.71616   0.45897   0.00000  Uiso   1.00
C1258  C     0.50178   0.78355   0.54097   0.00000  Uiso   1.00
C1259  C     0.78377   0.99884   0.45893   0.00000  Uiso   1.00
C1260  C     0.71640   0.50116   0.54111   0.00000  Uiso   1.00
C1261  C     0.99889   0.78342   0.45896   0.00000  Uiso   1.00
C1262  C     0.99988   0.71621   0.54108   0.00000  Uiso   1.00
C1263  C     0.71645   0.99775   0.45898   0.00000  Uiso   1.00
C1264  C     0.78374   0.50184   0.54110   0.00000  Uiso   1.00
C1265  C     0.74718   0.96626   0.95897   0.00000  Uiso   1.00
C1266  C     0.75264   0.53372   0.04106   0.00000  Uiso   1.00
C1267  C     0.53367   0.74874   0.95890   0.00000  Uiso   1.00
C1268  C     0.96631   0.75124   0.04107   0.00000  Uiso   1.00
C1269  C     0.74962   0.53371   0.95894   0.00000  Uiso   1.00
C1270  C     0.75037   0.96625   0.04109   0.00000  Uiso   1.00
C1271  C     0.96633   0.74811   0.95893   0.00000  Uiso   1.00
C1272  C     0.53363   0.75213   0.04104   0.00000  Uiso   1.00
C1273  C     0.59752   0.84862   0.24985   0.00000  Uiso   1.00
C1274  C     0.90232   0.65147   0.75036   0.00000  Uiso   1.00
C1275  C     0.65161   0.59772   0.25013   0.00000  Uiso   1.00
C1276  C     0.84772   0.90155   0.74977   0.00000  Uiso   1.00
C1277  C     0.90155   0.65232   0.24989   0.00000  Uiso   1.00
C1278  C     0.59857   0.84758   0.74992   0.00000  Uiso   1.00
C1279  C     0.84748   0.90137   0.25028   0.00000  Uiso   1.00
C1280  C     0.65238   0.59856   0.74949   0.00000  Uiso   1.00
C1281  C     0.59749   0.65136   0.75025   0.00000  Uiso   1.00
C1282  C     0.90242   0.84862   0.24955   0.00000  Uiso   1.00
C1283  C     0.65152   0.90233   0.75024   0.00000  Uiso   1.00
C1284  C     0.84837   0.59784   0.24979   0.00000  Uiso   1.00
C1285  C     0.90240   0.84855   0.74980   0.00000  Uiso   1.00
C1286  C     0.59839   0.65219   0.25013   0.00000  Uiso   1.00
C1287  C     0.84743   0.59868   0.74991   0.00000  Uiso   1.00
C1288  C     0.65241   0.90142   0.25031   0.00000  Uiso   1.00
C1289  C     0.50059   0.74981   0.47950   0.00000  Uiso   1.00
C1290  C     0.50071   0.74985   0.52050   0.00000  Uiso   1.00
C1291  C     0.75010   0.99939   0.47946   0.00000  Uiso   1.00
C1292  C     0.75009   0.50041   0.52060   0.00000  Uiso   1.00
C1293  C     0.74946   0.99997   0.97946   0.00000  Uiso   1.00
C1294  C     0.75044   0.50000   0.02058   0.00000  Uiso   1.00
C1295  C     0.99999   0.74953   0.97942   0.00000  Uiso   1.00
C1296  C     0.99998   0.75058   0.02055   0.00000  Uiso   1.00
I1297  I     0.98230   0.63282   0.45280   0.00000  Uiso   1.00
I1298  I     0.98084   0.86661   0.54749   0.00000  Uiso   1.00
I1299  I     0.86636   0.97492   0.45626   0.00000  Uiso   1.00
I1300  I     0.63383   0.52533   0.54340   0.00000  Uiso   1.00
I1301  I     0.51875   0.86683   0.45237   0.00000  Uiso   1.00
I1302  I     0.52177   0.63316   0.54709   0.00000  Uiso   1.00
I1303  I     0.63457   0.97139   0.45685   0.00000  Uiso   1.00
I1304  I     0.86577   0.52755   0.54361   0.00000  Uiso   1.00
I1305  I     0.71940   0.88467   0.95672   0.00000  Uiso   1.00
I1306  I     0.78015   0.61539   0.04345   0.00000  Uiso   1.00
I1307  I     0.61619   0.72441   0.95656   0.00000  Uiso   1.00
I1308  I     0.88379   0.77546   0.04366   0.00000  Uiso   1.00
I1309  I     0.72738   0.61702   0.95628   0.00000  Uiso   1.00
I1310  I     0.77262   0.88292   0.04358   0.00000  Uiso   1.00
I1311  I     0.88427   0.72241   0.95655   0.00000  Uiso   1.00
I1312  I     0.61560   0.77819   0.04320   0.00000  Uiso   1.00
N1313  N     0.66203   0.89281   0.17984   0.00000  Uiso   1.00
O1314  O     0.69749   0.89205   0.17887   0.00000  Uiso   1.00
O1315  O     0.64402   0.89978   0.14814   0.00000  Uiso   1.00
N1316  N     0.83784   0.60728   0.82039   0.00000  Uiso   1.00
O1317  O     0.80238   0.60792   0.82133   0.00000  Uiso   1.00
O1318  O     0.85586   0.60044   0.85211   0.00000  Uiso   1.00
N1319  N     0.60604   0.66055   0.17938   0.00000  Uiso   1.00
O1320  O     0.60805   0.69605   0.17782   0.00000  Uiso   1.00
O1321  O     0.59632   0.64245   0.14858   0.00000  Uiso   1.00
N1322  N     0.89492   0.84008   0.82030   0.00000  Uiso   1.00
O1323  O     0.88518   0.80616   0.82499   0.00000  Uiso   1.00
O1324  O     0.91707   0.85511   0.84506   0.00000  Uiso   1.00
N1325  N     0.83991   0.60587   0.17917   0.00000  Uiso   1.00
O1326  O     0.81949   0.63039   0.16252   0.00000  Uiso   1.00
O1327  O     0.84820   0.57614   0.16039   0.00000  Uiso   1.00
N1328  N     0.66083   0.89330   0.82059   0.00000  Uiso   1.00
O1329  O     0.68121   0.86850   0.83684   0.00000  Uiso   1.00
O1330  O     0.65302   0.92300   0.83965   0.00000  Uiso   1.00
N1331  N     0.88620   0.83162   0.18245   0.00000  Uiso   1.00
O1332  O     0.86013   0.81023   0.17064   0.00000  Uiso   1.00
O1333  O     0.91498   0.83603   0.16085   0.00000  Uiso   1.00
N1334  N     0.61248   0.66692   0.81808   0.00000  Uiso   1.00
O1335  O     0.63825   0.68834   0.83054   0.00000  Uiso   1.00
O1336  O     0.58363   0.66176   0.83939   0.00000  Uiso   1.00
N1337  N     0.66901   0.61414   0.81685   0.00000  Uiso   1.00
O1338  O     0.70417   0.61752   0.81337   0.00000  Uiso   1.00
O1339  O     0.65482   0.60923   0.85110   0.00000  Uiso   1.00
N1340  N     0.82957   0.88445   0.18367   0.00000  Uiso   1.00
O1341  O     0.79444   0.88156   0.18795   0.00000  Uiso   1.00
O1342  O     0.84316   0.88856   0.14902   0.00000  Uiso   1.00
N1343  N     0.60643   0.83863   0.82059   0.00000  Uiso   1.00
O1344  O     0.60699   0.80307   0.82190   0.00000  Uiso   1.00
O1345  O     0.59932   0.85699   0.85205   0.00000  Uiso   1.00
N1346  N     0.89440   0.66040   0.17903   0.00000  Uiso   1.00
O1347  O     0.89363   0.69593   0.17717   0.00000  Uiso   1.00
O1348  O     0.90189   0.64167   0.14791   0.00000  Uiso   1.00
N1349  N     0.83928   0.89369   0.82052   0.00000  Uiso   1.00
O1350  O     0.80386   0.89192   0.82190   0.00000  Uiso   1.00
O1351  O     0.85726   0.90285   0.85157   0.00000  Uiso   1.00
N1352  N     0.66000   0.60521   0.17959   0.00000  Uiso   1.00
O1353  O     0.69404   0.61434   0.17531   0.00000  Uiso   1.00
O1354  O     0.64477   0.58358   0.15440   0.00000  Uiso   1.00
N1355  N     0.89262   0.66164   0.82046   0.00000  Uiso   1.00
O1356  O     0.86779   0.68219   0.83637   0.00000  Uiso   1.00
O1357  O     0.92227   0.65423   0.83964   0.00000  Uiso   1.00
N1358  N     0.60724   0.83855   0.17974   0.00000  Uiso   1.00
O1359  O     0.63204   0.81791   0.16390   0.00000  Uiso   1.00
O1360  O     0.57771   0.84614   0.16043   0.00000  Uiso   1.00
N1361  N     0.91203   0.64259   0.68004   0.00000  Uiso   1.00
O1362  O     0.94740   0.64009   0.67897   0.00000  Uiso   1.00
O1363  O     0.89421   0.65009   0.64836   0.00000  Uiso   1.00
N1364  N     0.58785   0.85723   0.32034   0.00000  Uiso   1.00
O1365  O     0.55240   0.85815   0.32128   0.00000  Uiso   1.00
O1366  O     0.60577   0.85023   0.35209   0.00000  Uiso   1.00
N1367  N     0.85545   0.91011   0.67919   0.00000  Uiso   1.00
O1368  O     0.87920   0.93180   0.66315   0.00000  Uiso   1.00
O1369  O     0.82614   0.90119   0.66017   0.00000  Uiso   1.00
N1370  N     0.64439   0.58972   0.32103   0.00000  Uiso   1.00
O1371  O     0.64383   0.55418   0.32288   0.00000  Uiso   1.00
O1372  O     0.65183   0.60847   0.35213   0.00000  Uiso   1.00
N1373  N     0.58981   0.85600   0.67949   0.00000  Uiso   1.00
O1374  O     0.56846   0.88003   0.66335   0.00000  Uiso   1.00
O1375  O     0.59864   0.82658   0.66045   0.00000  Uiso   1.00
N1376  N     0.90955   0.64501   0.32049   0.00000  Uiso   1.00
O1377  O     0.94305   0.63445   0.32587   0.00000  Uiso   1.00
O1378  O     0.89459   0.66759   0.34494   0.00000  Uiso   1.00
N1379  N     0.63745   0.58298   0.68166   0.00000  Uiso   1.00
O1380  O     0.61147   0.56202   0.66881   0.00000  Uiso   1.00
O1381  O     0.66654   0.58783   0.66064   0.00000  Uiso   1.00
N1382  N     0.86383   0.91860   0.31722   0.00000  Uiso   1.00
O1383  O     0.88990   0.94012   0.32874   0.00000  Uiso   1.00
O1384  O     0.83518   0.91421   0.33903   0.00000  Uiso   1.00
N1385  N     0.91958   0.86495   0.31663   0.00000  Uiso   1.00
O1386  O     0.95485   0.86647   0.31298   0.00000  Uiso   1.00
O1387  O     0.90528   0.86205   0.35108   0.00000  Uiso   1.00
N1388  N     0.58181   0.63684   0.68224   0.00000  Uiso   1.00
O1389  O     0.54644   0.63573   0.68499   0.00000  Uiso   1.00
O1390  O     0.59682   0.64124   0.64831   0.00000  Uiso   1.00
N1391  N     0.85600   0.58942   0.32054   0.00000  Uiso   1.00
O1392  O     0.85804   0.55393   0.32207   0.00000  Uiso   1.00
O1393  O     0.84671   0.60755   0.35149   0.00000  Uiso   1.00
N1394  N     0.64355   0.91133   0.67958   0.00000  Uiso   1.00
O1395  O     0.64284   0.94688   0.67829   0.00000  Uiso   1.00
O1396  O     0.65077   0.89301   0.64812   0.00000  Uiso   1.00
N1397  N     0.59046   0.64493   0.32085   0.00000  Uiso   1.00
O1398  O     0.56919   0.62118   0.33754   0.00000  Uiso   1.00
O1399  O     0.59976   0.67439   0.33953   0.00000  Uiso   1.00
N1400  N     0.91012   0.85563   0.67878   0.00000  Uiso   1.00
O1401  O     0.94554   0.85621   0.67671   0.00000  Uiso   1.00
O1402  O     0.89130   0.84830   0.64774   0.00000  Uiso   1.00
N1403  N     0.64274   0.91146   0.32045   0.00000  Uiso   1.00
O1404  O     0.61792   0.93198   0.33641   0.00000  Uiso   1.00
O1405  O     0.67237   0.90396   0.33964   0.00000  Uiso   1.00
N1406  N     0.85710   0.58862   0.67980   0.00000  Uiso   1.00
O1407  O     0.88183   0.56782   0.66408   0.00000  Uiso   1.00
O1408  O     0.82764   0.59630   0.66041   0.00000  Uiso   1.00
N1409  N     0.97908   0.81333   0.39804   0.00000  Uiso   1.00
O1410  O     0.99502   0.82612   0.36715   0.00000  Uiso   1.00
O1411  O     0.94878   0.82808   0.40998   0.00000  Uiso   1.00
N1412  N     0.98236   0.68569   0.60255   0.00000  Uiso   1.00
O1413  O     0.50013   0.67337   0.63249   0.00000  Uiso   1.00
O1414  O     0.95214   0.66990   0.59205   0.00000  Uiso   1.00
N1415  N     0.68415   0.50753   0.39667   0.00000  Uiso   1.00
O1416  O     0.67399   0.98705   0.36775   0.00000  Uiso   1.00
O1417  O     0.66669   0.53782   0.40368   0.00000  Uiso   1.00
N1418  N     0.81586   0.99132   0.60342   0.00000  Uiso   1.00
O1419  O     0.82613   0.51126   0.63272   0.00000  Uiso   1.00
O1420  O     0.83294   0.96088   0.59611   0.00000  Uiso   1.00
N1421  N     0.52161   0.68620   0.39776   0.00000  Uiso   1.00
O1422  O     0.50631   0.67390   0.36628   0.00000  Uiso   1.00
O1423  O     0.55182   0.67136   0.40984   0.00000  Uiso   1.00
N1424  N     0.52174   0.81369   0.60179   0.00000  Uiso   1.00
O1425  O     0.50719   0.82577   0.63378   0.00000  Uiso   1.00
O1426  O     0.55162   0.82865   0.58897   0.00000  Uiso   1.00
N1427  N     0.81563   0.51029   0.39665   0.00000  Uiso   1.00
O1428  O     0.82652   0.99056   0.36742   0.00000  Uiso   1.00
O1429  O     0.83205   0.54103   0.40414   0.00000  Uiso   1.00
N1430  N     0.68439   0.99042   0.60344   0.00000  Uiso   1.00
O1431  O     0.67359   0.51056   0.63239   0.00000  Uiso   1.00
O1432  O     0.66783   0.95968   0.59635   0.00000  Uiso   1.00
N1433  N     0.76162   0.56537   0.89675   0.00000  Uiso   1.00
O1434  O     0.74190   0.57674   0.86781   0.00000  Uiso   1.00
O1435  O     0.79260   0.58125   0.90411   0.00000  Uiso   1.00
N1436  N     0.73879   0.93454   0.10335   0.00000  Uiso   1.00
O1437  O     0.75876   0.92325   0.13215   0.00000  Uiso   1.00
O1438  O     0.70778   0.91860   0.09631   0.00000  Uiso   1.00
N1439  N     0.93418   0.75840   0.89660   0.00000  Uiso   1.00
O1440  O     0.92388   0.73822   0.86749   0.00000  Uiso   1.00
O1441  O     0.91706   0.78886   0.90371   0.00000  Uiso   1.00
N1442  N     0.56587   0.74234   0.10340   0.00000  Uiso   1.00
O1443  O     0.57604   0.76285   0.13230   0.00000  Uiso   1.00
O1444  O     0.58322   0.71196   0.09653   0.00000  Uiso   1.00
N1445  N     0.75650   0.93370   0.89664   0.00000  Uiso   1.00
O1446  O     0.73606   0.92393   0.86757   0.00000  Uiso   1.00
O1447  O     0.78643   0.91575   0.90368   0.00000  Uiso   1.00
N1448  N     0.74298   0.56623   0.10336   0.00000  Uiso   1.00
O1449  O     0.76320   0.57610   0.13257   0.00000  Uiso   1.00
O1450  O     0.71298   0.58402   0.09618   0.00000  Uiso   1.00
N1451  N     0.56567   0.75948   0.89657   0.00000  Uiso   1.00
O1452  O     0.57643   0.73933   0.86760   0.00000  Uiso   1.00
O1453  O     0.58232   0.79016   0.90370   0.00000  Uiso   1.00
N1454  N     0.93438   0.73991   0.10332   0.00000  Uiso   1.00
O1455  O     0.92350   0.75971   0.13249   0.00000  Uiso   1.00
O1456  O     0.91785   0.70924   0.09578   0.00000  Uiso   1.00
loop_
_geom_bond_atom_site_label_1
_geom_bond_atom_site_label_2
_geom_bond_distance
_geom_bond_site_symmetry_2
_ccdc_geom_bond_type
Zn1    O87     1.933   .     S
Zn1    O56     1.950   .     S
Zn1    O41     1.949   .     S
Zn1    O812    1.934   1_545 S
Zn2    O83     1.934   .     S
Zn2    O55     1.950   .     S
Zn2    O42     1.949   .     S
Zn2    O816    1.933   1_545 S
Zn3    O449    1.935   1_455 S
Zn3    O58     1.949   .     S
Zn3    O43     1.946   .     S
Zn3    O78     1.935   .     S
Zn4    O441    1.935   1_455 S
Zn4    O44     1.946   .     S
Zn4    O57     1.949   .     S
Zn4    O86     1.935   .     S
Zn5    O60     1.950   .     S
Zn5    O80     1.934   .     S
Zn5    O41     1.948   .     S
Zn5    O819    1.933   1_545 S
Zn6    O42     1.948   .     S
Zn6    O92     1.933   .     S
Zn6    O59     1.950   .     S
Zn6    O807    1.934   1_545 S
Zn7    O54     1.950   .     S
Zn7    O446    1.934   1_455 S
Zn7    O43     1.944   .     S
Zn7    O89     1.936   .     S
Zn8    O53     1.950   .     S
Zn8    O454    1.936   1_455 S
Zn8    O44     1.944   .     S
Zn8    O81     1.934   .     S
Zn9    O48     1.950   .     S
Zn9    O71     1.933   .     S
Zn9    O68     1.934   .     S
Zn9    O408    1.949   .     S
Zn10   O47     1.950   .     S
Zn10   O67     1.934   .     S
Zn10   O43     1.949   .     S
Zn10   O72     1.933   .     S
Zn11   O62     1.935   .     S
Zn11   O69     1.935   .     S
Zn11   O50     1.949   .     S
Zn11   O770    1.946   .     S
Zn12   O49     1.949   .     S
Zn12   O70     1.935   .     S
Zn12   O61     1.935   .     S
Zn12   O41     1.946   .     S
Zn13   O75     1.933   .     S
Zn13   O44     1.948   .     S
Zn13   O52     1.950   .     S
Zn13   O64     1.934   .     S
Zn14   O76     1.933   .     S
Zn14   O51     1.950   .     S
Zn14   O63     1.934   .     S
Zn14   O407    1.948   .     S
Zn15   O66     1.934   .     S
Zn15   O73     1.936   .     S
Zn15   O46     1.950   .     S
Zn15   O42     1.944   .     S
Zn16   O45     1.950   .     S
Zn16   O65     1.934   .     S
Zn16   O74     1.936   .     S
Zn16   O769    1.944   .     S
C17    N317    1.434   .     S
C17    C169    1.411   .     A
C17    C397    1.402   .     S
C18    C170    1.412   .     A
C18    N320    1.434   .     S
C18    C398    1.403   .     S
C19    C35     1.401   .     A
C19    C171    1.412   .     A
C19    N1051   1.436   .     S
C20    C36     1.401   .     A
C20    C172    1.413   .     A
C20    N1054   1.437   1_545 S
C21    C33     1.403   .     A
C21    C165    1.413   .     A
C21    N329    1.438   .     S
C22    C166    1.412   .     A
C22    C34     1.403   .     A
C22    N332    1.438   .     S
C23    N335    1.436   .     S
C23    C763    1.401   1_545 S
C23    C895    1.413   1_545 S
C24    N338    1.436   .     S
C24    C764    1.401   .     S
C24    C896    1.412   .     S
C25    C177    1.411   .     A
C25    N341    1.434   .     S
C25    C765    1.401   1_545 S
C26    N344    1.434   .     S
C26    C178    1.411   .     A
C26    C766    1.401   .     S
C27    C179    1.413   .     A
C27    N347    1.436   .     S
C27    C403    1.401   .     S
C28    C180    1.413   .     A
C28    N350    1.436   .     S
C28    C404    1.401   1_455 S
C29    N353    1.436   .     S
C29    C37     1.401   .     A
C29    C173    1.413   .     A
C30    C38     1.400   .     A
C30    C174    1.413   .     A
C30    N356    1.436   .     S
C31    N359    1.436   .     S
C31    C175    1.412   .     A
C31    C39     1.401   .     A
C32    N362    1.436   .     S
C32    C176    1.412   .     A
C32    C40     1.401   .     A
C33    C111    1.458   .     S
C33    C381    1.402   1_455 S
C34    C112    1.458   .     S
C34    C382    1.403   1_455 S
C35    C109    1.457   .     S
C35    C751    1.401   .     S
C36    C110    1.456   .     S
C36    C752    1.401   1_545 S
C37    C115    1.458   .     S
C37    C753    1.401   .     S
C38    C116    1.457   .     S
C38    C754    1.401   1_545 S
C39    C113    1.456   .     S
C39    C391    1.401   1_455 S
C40    C114    1.457   .     S
C40    C392    1.401   .     S
O41    Zn744   1.944   1_545 S
O42    Zn739   1.946   1_545 S
O43    Zn378   1.948   1_455 S
O44    Zn373   1.949   1_455 S
O45    C109    1.274   .     A
O46    C110    1.274   .     A
O47    C111    1.278   .     A
O48    C476    1.280   .     S
O49    C837    1.277   1_545 S
O50    C838    1.277   .     S
O51    C475    1.279   .     S
O52    C112    1.277   .     A
O53    C113    1.274   .     S
O54    C478    1.274   1_455 A
O55    C843    1.279   1_545 S
O56    C116    1.279   .     A
O57    C113    1.277   .     A
O58    C478    1.277   1_455 A
O59    C843    1.276   1_545 S
O60    C116    1.276   .     A
O61    C117    1.281   .     A
O62    C118    1.277   .     A
O63    C119    1.277   .     A
O64    C120    1.276   .     A
O65    C121    1.275   .     A
O66    C122    1.275   .     A
O67    C123    1.282   .     A
O68    C124    1.282   .     A
O69    C125    1.283   .     A
O70    C126    1.282   .     A
O71    C127    1.281   .     A
O72    C128    1.277   .     A
O73    C129    1.276   .     A
O74    C130    1.276   .     A
O75    C131    1.282   .     A
O76    C132    1.283   .     A
O77    C127    1.278   .     A
O77    Zn368   1.935   .     S
O78    C128    1.282   .     A
O79    C125    1.276   .     A
O79    Zn734   1.934   .     S
O80    C126    1.277   .     A
O81    C131    1.275   .     A
O82    C132    1.275   .     A
O82    Zn371   1.934   .     S
O83    C129    1.282   .     A
O84    C130    1.282   .     A
O84    Zn729   1.934   .     S
O85    Zn367   1.935   .     S
O85    C119    1.281   .     A
O86    C120    1.282   .     A
O87    C117    1.278   .     A
O88    C118    1.282   .     A
O88    Zn730   1.933   .     S
O89    C123    1.276   .     A
O90    C124    1.277   .     A
O90    Zn372   1.936   .     S
O91    C121    1.282   .     A
O91    Zn733   1.933   .     S
O92    C122    1.283   .     A
C93    C165    1.415   .     A
C93    C98     1.401   .     A
C93    I569    2.153   1_455 S
C94    I206    2.153   .     S
C94    C461    1.400   .     S
C94    C530    1.415   .     S
C95    C167    1.416   .     A
C95    I207    2.153   .     S
C95    C828    1.397   .     S
C96    I208    2.153   .     S
C96    C168    1.415   .     A
C96    C827    1.396   1_545 S
C97    I209    2.153   .     S
C97    C458    1.400   1_455 S
C97    C533    1.416   1_455 S
C98    I210    2.153   .     S
C98    C534    1.417   1_455 S
C99    I211    2.153   .     S
C99    C171    1.415   .     A
C99    C824    1.396   .     S
C100   C172    1.415   .     A
C100   I212    2.153   .     S
C100   C823    1.397   1_545 S
C101   I213    2.153   .     S
C101   C173    1.415   .     A
C101   C106    1.396   1_556 S
C102   I214    2.153   .     S
C102   C174    1.415   .     A
C102   C105    1.396   1_554 S
C103   C175    1.415   .     A
C103   I215    2.153   .     S
C103   C108    1.396   1_556 S
C104   I216    2.153   .     S
C104   C176    1.415   .     A
C104   C107    1.397   1_554 S
C105   C177    1.416   .     A
C105   I217    2.153   .     S
C105   C102    1.396   1_556 S
C106   C178    1.416   .     A
C106   I218    2.153   .     S
C106   C101    1.396   1_554 S
C107   C179    1.415   .     A
C107   I219    2.153   .     S
C107   C104    1.397   1_556 S
C108   I220    2.153   .     S
C108   C180    1.415   .     A
C108   C103    1.396   1_554 S
C109   O777    1.277   .     S
C110   O778    1.277   1_545 S
C111   O415    1.279   1_455 S
C112   O412    1.280   1_455 S
C114   O418    1.274   .     A
C114   O422    1.277   .     A
C115   O787    1.276   .     S
C115   O783    1.279   .     S
C117   C183    1.453   .     S
C118   C184    1.454   .     S
C119   C185    1.454   .     S
C120   C186    1.455   .     S
C121   C187    1.453   .     S
C122   C188    1.454   .     S
C123   C181    1.454   .     S
C124   C182    1.455   .     S
C125   C191    1.454   .     S
C126   C192    1.455   .     S
C127   C193    1.454   .     S
C128   C194    1.455   .     S
C129   C195    1.454   .     S
C130   C196    1.455   .     S
C131   C189    1.453   .     S
C132   C190    1.454   .     S
C133   C196    1.408   .     A
C133   N221    1.437   .     S
C133   C148    1.400   .     A
C134   N224    1.437   .     S
C134   C147    1.401   .     A
C134   C195    1.409   .     A
C135   C146    1.399   .     A
C135   C194    1.408   .     A
C135   N227    1.437   .     S
C136   N230    1.433   .     S
C136   C145    1.399   .     A
C136   C193    1.407   .     A
C137   C192    1.409   .     A
C137   C144    1.400   .     A
C137   N233    1.434   .     S
C138   C143    1.400   .     A
C138   C191    1.409   .     A
C138   N236    1.434   .     S
C139   C142    1.401   .     A
C139   C190    1.408   .     A
C139   N239    1.434   .     S
C140   C141    1.400   .     A
C140   C189    1.408   .     A
C140   N242    1.434   .     S
C141   N245    1.435   .     S
C141   C188    1.406   .     A
C142   C187    1.407   .     A
C142   N248    1.435   .     S
C143   N251    1.437   .     S
C143   C186    1.408   .     A
C144   C185    1.408   .     A
C144   N254    1.437   .     S
C145   C184    1.409   .     A
C145   N257    1.438   .     S
C146   C183    1.407   .     A
C146   N260    1.433   .     S
C147   N263    1.434   .     S
C147   C182    1.408   .     A
C148   C181    1.408   .     A
C148   N266    1.434   .     S
C149   C182    1.408   .     A
C149   C164    1.399   .     A
C149   N269    1.435   .     S
C150   C163    1.400   .     A
C150   C181    1.409   .     A
C150   N272    1.438   .     S
C151   C184    1.408   .     A
C151   C162    1.399   .     A
C151   N275    1.433   .     S
C152   C161    1.399   .     A
C152   C183    1.407   .     A
C152   N278    1.438   .     S
C153   N281    1.433   .     S
C153   C160    1.400   .     A
C153   C186    1.408   .     A
C154   N284    1.433   .     S
C154   C159    1.399   .     A
C154   C185    1.407   .     A
C155   C158    1.401   .     A
C155   C188    1.408   .     A
C155   N287    1.434   .     S
C156   C187    1.406   .     A
C156   N290    1.434   .     S
C156   C157    1.400   .     A
C157   N293    1.435   .     S
C157   C190    1.407   .     A
C158   N296    1.437   .     S
C158   C189    1.408   .     A
C159   C192    1.409   .     A
C159   N299    1.437   .     S
C160   C191    1.408   .     A
C160   N302    1.437   .     S
C161   N305    1.433   .     S
C161   C194    1.408   .     A
C162   C193    1.408   .     A
C162   N308    1.438   .     S
C163   C196    1.409   .     A
C163   N311    1.434   .     S
C164   C195    1.407   .     A
C164   N314    1.434   .     S
C165   C197    1.420   .     A
C166   C198    1.421   .     A
C166   C458    1.415   1_455 S
C167   C199    1.422   .     A
C167   C751    1.413   .     S
C168   C200    1.423   .     A
C168   C752    1.412   1_545 S
C169   C461    1.416   .     S
C169   C561    1.419   .     S
C170   C462    1.417   .     S
C170   C562    1.419   .     S
C171   C199    1.423   .     A
C172   C200    1.423   .     A
C173   C201    1.423   .     A
C174   C202    1.423   .     S
C175   C567    1.423   1_455 S
C176   C204    1.422   .     A
C177   C929    1.421   1_545 S
C178   C930    1.422   .     A
C179   C203    1.423   .     A
C180   C568    1.423   1_455 S
C197   C198    1.412   .     A
C197   C533    1.419   1_455 S
C198   C534    1.419   1_455 S
C199   C928    1.417   .     S
C200   C927    1.417   1_545 S
C201   C905    1.421   .     S
C201   C930    1.416   1_556 S
C202   C906    1.422   1_545 A
C202   C929    1.416   1_544 S
C203   C539    1.423   .     S
C203   C204    1.417   1_556 S
C204   C544    1.423   .     S
C204   C203    1.417   1_554 S
I205   C457    2.153   .     S
N221   O222    1.301   .     A
N221   O223    1.301   .     A
N224   O225    1.301   .     A
N224   O226    1.301   .     A
N227   O228    1.301   .     A
N227   O229    1.301   .     A
N230   O231    1.301   .     A
N230   O232    1.301   .     A
N233   O234    1.301   .     A
N233   O235    1.301   .     A
N236   O237    1.301   .     A
N236   O238    1.301   .     A
N239   O240    1.301   .     A
N239   O241    1.301   .     A
N242   O244    1.301   .     A
N242   O243    1.301   .     A
N245   O246    1.301   .     A
N245   O247    1.301   .     A
N248   O250    1.301   .     A
N248   O249    1.301   .     A
N251   O252    1.301   .     A
N251   O253    1.301   .     A
N254   O256    1.301   .     A
N254   O255    1.301   .     A
N257   O258    1.301   .     A
N257   O259    1.301   .     A
N260   O261    1.301   .     A
N260   O262    1.301   .     A
N263   O265    1.301   .     A
N263   O264    1.301   .     A
N266   O268    1.301   .     A
N266   O267    1.301   .     A
N269   O271    1.301   .     A
N269   O270    1.300   .     A
N272   O273    1.301   .     A
N272   O274    1.301   .     A
N275   O276    1.301   .     A
N275   O277    1.301   .     A
N278   O279    1.301   .     A
N278   O280    1.301   .     A
N281   O283    1.301   .     A
N281   O282    1.301   .     A
N284   O285    1.301   .     A
N284   O286    1.301   .     A
N287   O289    1.301   .     A
N287   O288    1.301   .     A
N290   O291    1.301   .     A
N290   O292    1.301   .     A
N293   O294    1.301   .     A
N293   O295    1.301   .     A
N296   O297    1.301   .     A
N296   O298    1.301   .     A
N299   O300    1.301   .     A
N299   O301    1.301   .     A
N302   O304    1.301   .     A
N302   O303    1.301   .     A
N305   O306    1.301   .     A
N305   O307    1.301   .     A
N308   O310    1.301   .     A
N308   O309    1.301   .     A
N311   O313    1.301   .     A
N311   O312    1.301   .     A
N314   O315    1.301   .     A
N314   O316    1.301   .     A
N317   O319    1.301   .     A
N317   O318    1.300   .     A
N320   O322    1.301   .     A
N320   O685    1.300   .     S
O321   N684    1.300   1_455 S
N323   O325    1.301   .     A
N323   C747    1.436   1_545 S
N323   O1052   1.301   1_545 S
O324   N1051   1.301   .     S
N326   O328    1.301   .     A
N326   C748    1.437   .     S
N326   O1055   1.301   .     S
O327   N1054   1.301   1_545 S
N329   O331    1.301   .     A
N329   O330    1.302   .     A
N332   O333    1.301   .     A
N332   O334    1.302   .     A
N335   O337    1.301   .     A
N335   O1064   1.301   1_545 S
O336   N1063   1.301   .     S
N338   O340    1.301   .     A
N338   O1067   1.301   .     S
O339   N1066   1.301   1_545 S
N341   O343    1.301   .     A
N341   O342    1.300   .     A
N344   O345    1.300   .     A
N344   O346    1.301   .     A
N347   O348    1.301   .     A
N347   O349    1.301   .     A
N350   O351    1.301   .     A
N350   O352    1.301   .     A
N353   O354    1.301   .     A
N353   O355    1.301   .     A
N356   O358    1.301   .     A
N356   O357    1.301   .     A
N359   O360    1.301   .     A
N359   O361    1.301   .     A
N362   O364    1.301   .     A
N362   O363    1.301   .     A
Zn365  O451    1.933   .     S
Zn365  O420    1.950   .     S
Zn365  O405    1.949   .     S
Zn365  O1176   1.934   1_545 S
Zn366  O447    1.934   .     S
Zn366  O419    1.950   .     S
Zn366  O406    1.949   .     S
Zn366  O1180   1.933   1_545 S
Zn367  O422    1.949   .     S
Zn367  O407    1.946   .     S
Zn367  O442    1.935   .     S
Zn368  O408    1.946   .     S
Zn368  O421    1.949   .     S
Zn368  O450    1.935   .     S
Zn369  O424    1.950   .     S
Zn369  O444    1.934   .     S
Zn369  O405    1.948   .     S
Zn369  O1183   1.933   1_545 S
Zn370  O406    1.948   .     S
Zn370  O456    1.933   .     S
Zn370  O423    1.950   .     S
Zn370  O1171   1.934   1_545 S
Zn371  O418    1.950   .     S
Zn371  O407    1.944   .     S
Zn371  O453    1.936   .     S
Zn372  O417    1.950   .     S
Zn372  O408    1.944   .     S
Zn372  O445    1.934   .     S
Zn373  O412    1.950   .     S
Zn373  O435    1.933   .     S
Zn373  O432    1.934   .     S
Zn373  O44     1.949   1_655 S
Zn374  O411    1.950   .     S
Zn374  O431    1.934   .     S
Zn374  O407    1.949   .     S
Zn374  O436    1.933   .     S
Zn375  O426    1.935   .     S
Zn375  O433    1.935   .     S
Zn375  O414    1.949   .     S
Zn375  O1134   1.946   .     S
Zn376  O413    1.949   .     S
Zn376  O434    1.935   .     S
Zn376  O425    1.935   .     S
Zn376  O405    1.946   .     S
Zn377  O439    1.933   .     S
Zn377  O408    1.948   .     S
Zn377  O416    1.950   .     S
Zn377  O428    1.934   .     S
Zn378  O440    1.933   .     S
Zn378  O415    1.950   .     S
Zn378  O427    1.934   .     S
Zn378  O43     1.948   1_655 S
Zn379  O430    1.934   .     S
Zn379  O437    1.936   .     S
Zn379  O410    1.950   .     S
Zn379  O406    1.944   .     S
Zn380  O409    1.950   .     S
Zn380  O429    1.934   .     S
Zn380  O438    1.936   .     S
Zn380  O1133   1.944   .     S
C381   N681    1.434   .     S
C381   C533    1.411   .     A
C381   C33     1.402   1_655 S
C382   C534    1.412   .     A
C382   N684    1.434   .     S
C382   C34     1.403   1_655 S
C383   C399    1.401   .     A
C383   C535    1.412   .     A
C383   N1415   1.436   .     S
C384   C400    1.401   .     A
C384   C536    1.413   .     A
C384   N1418   1.437   1_545 S
C385   C397    1.403   .     A
C385   C529    1.413   .     A
C385   N693    1.438   .     S
C386   C530    1.412   .     A
C386   C398    1.403   .     A
C386   N696    1.438   .     S
C387   N699    1.436   .     S
C387   C1127   1.401   1_545 S
C387   C1259   1.413   1_545 S
C388   N702    1.436   .     S
C388   C1128   1.401   .     S
C388   C1260   1.412   .     S
C389   C541    1.411   .     A
C389   N705    1.434   .     S
C389   C1129   1.401   1_545 S
C390   N708    1.434   .     S
C390   C542    1.411   .     A
C390   C1130   1.401   .     S
C391   C543    1.413   .     A
C391   N711    1.436   .     S
C391   C39     1.401   1_655 S
C392   C544    1.413   .     A
C392   N714    1.436   .     S
C393   N717    1.436   .     S
C393   C401    1.401   .     A
C393   C537    1.413   .     A
C394   C402    1.400   .     A
C394   C538    1.413   .     A
C394   N720    1.436   .     S
C395   N723    1.436   .     S
C395   C539    1.412   .     A
C395   C403    1.401   .     A
C396   N726    1.436   .     S
C396   C540    1.412   .     A
C396   C404    1.401   .     A
C397   C475    1.458   .     S
C398   C476    1.458   .     S
C399   C473    1.457   .     S
C399   C1115   1.401   .     S
C400   C474    1.456   .     S
C400   C1116   1.401   1_545 S
C401   C479    1.458   .     S
C401   C1117   1.401   .     S
C402   C480    1.457   .     S
C402   C1118   1.401   1_545 S
C403   C477    1.456   .     S
C404   C478    1.457   .     S
C404   C28     1.401   1_655 S
O405   Zn1108  1.944   1_545 S
O406   Zn1103  1.946   1_545 S
O409   C473    1.274   .     A
O410   C474    1.274   .     A
O411   C475    1.278   .     A
O412   C112    1.280   1_655 S
O413   C1201   1.277   1_545 S
O414   C1202   1.277   .     S
O415   C111    1.279   1_655 S
O416   C476    1.277   .     A
O417   C477    1.274   .     S
O419   C1207   1.279   1_545 S
O420   C480    1.279   .     A
O421   C477    1.277   .     A
O423   C1207   1.276   1_545 S
O424   C480    1.276   .     A
O425   C481    1.281   .     A
O426   C482    1.277   .     A
O427   C483    1.277   .     A
O428   C484    1.276   .     A
O429   C485    1.275   .     A
O430   C486    1.275   .     A
O431   C487    1.282   .     A
O432   C488    1.282   .     A
O433   C489    1.283   .     A
O434   C490    1.282   .     A
O435   C491    1.281   .     A
O436   C492    1.277   .     A
O437   C493    1.276   .     A
O438   C494    1.276   .     A
O439   C495    1.282   .     A
O440   C496    1.283   .     A
O441   C491    1.278   .     A
O441   Zn4     1.935   1_655 S
O442   C492    1.282   .     A
O443   C489    1.276   .     A
O443   Zn1098  1.934   .     S
O444   C490    1.277   .     A
O445   C495    1.275   .     A
O446   C496    1.275   .     A
O446   Zn7     1.934   1_655 S
O447   C493    1.282   .     A
O448   C494    1.282   .     A
O448   Zn1093  1.934   .     S
O449   Zn3     1.935   1_655 S
O449   C483    1.281   .     A
O450   C484    1.282   .     A
O451   C481    1.278   .     A
O452   C482    1.282   .     A
O452   Zn1094  1.933   .     S
O453   C487    1.276   .     A
O454   C488    1.277   .     A
O454   Zn8     1.936   1_655 S
O455   C485    1.282   .     A
O455   Zn1097  1.933   .     S
O456   C486    1.283   .     A
C457   C529    1.415   .     A
C457   C462    1.401   .     A
C458   I570    2.153   .     S
C458   C97     1.400   1_655 S
C458   C166    1.415   1_655 S
C459   C531    1.416   .     A
C459   I571    2.153   .     S
C459   C1192   1.397   .     S
C460   I572    2.153   .     S
C460   C532    1.415   .     A
C460   C1191   1.396   1_545 S
C461   I573    2.153   .     S
C462   I574    2.153   .     S
C463   I575    2.153   .     S
C463   C535    1.415   .     A
C463   C1188   1.396   .     S
C464   C536    1.415   .     A
C464   I576    2.153   .     S
C464   C1187   1.397   1_545 S
C465   I577    2.153   .     S
C465   C537    1.415   .     A
C465   C470    1.396   1_556 S
C466   I578    2.153   .     S
C466   C538    1.415   .     A
C466   C469    1.396   1_554 S
C467   C539    1.415   .     A
C467   I579    2.153   .     S
C467   C472    1.396   1_556 S
C468   I580    2.153   .     S
C468   C540    1.415   .     A
C468   C471    1.397   1_554 S
C469   C541    1.416   .     A
C469   I581    2.153   .     S
C469   C466    1.396   1_556 S
C470   C542    1.416   .     A
C470   I582    2.153   .     S
C470   C465    1.396   1_554 S
C471   C543    1.415   .     A
C471   I583    2.153   .     S
C471   C468    1.397   1_556 S
C472   I584    2.153   .     S
C472   C544    1.415   .     A
C472   C467    1.396   1_554 S
C473   O1141   1.277   .     S
C474   O1142   1.277   1_545 S
C478   O54     1.274   1_655 A
C478   O58     1.277   1_655 A
C479   O1151   1.276   .     S
C479   O1147   1.279   .     S
C481   C547    1.453   .     S
C482   C548    1.454   .     S
C483   C549    1.454   .     S
C484   C550    1.455   .     S
C485   C551    1.453   .     S
C486   C552    1.454   .     S
C487   C545    1.454   .     S
C488   C546    1.455   .     S
C489   C555    1.454   .     S
C490   C556    1.455   .     S
C491   C557    1.454   .     S
C492   C558    1.455   .     S
C493   C559    1.454   .     S
C494   C560    1.455   .     S
C495   C553    1.453   .     S
C496   C554    1.454   .     S
C497   C560    1.408   .     A
C497   N585    1.437   .     S
C497   C512    1.400   .     A
C498   N588    1.437   .     S
C498   C511    1.401   .     A
C498   C559    1.409   .     A
C499   C510    1.399   .     A
C499   C558    1.408   .     A
C499   N591    1.437   .     S
C500   N594    1.433   .     S
C500   C509    1.399   .     A
C500   C557    1.407   .     A
C501   C556    1.409   .     A
C501   C508    1.400   .     A
C501   N597    1.434   .     S
C502   C507    1.400   .     A
C502   C555    1.409   .     A
C502   N600    1.434   .     S
C503   C506    1.401   .     A
C503   C554    1.408   .     A
C503   N603    1.434   .     S
C504   C505    1.400   .     A
C504   C553    1.408   .     A
C504   N606    1.434   .     S
C505   N609    1.435   .     S
C505   C552    1.406   .     A
C506   C551    1.407   .     A
C506   N612    1.435   .     S
C507   N615    1.437   .     S
C507   C550    1.408   .     A
C508   C549    1.408   .     A
C508   N618    1.437   .     S
C509   C548    1.409   .     A
C509   N621    1.438   .     S
C510   C547    1.407   .     A
C510   N624    1.433   .     S
C511   N627    1.434   .     S
C511   C546    1.408   .     A
C512   C545    1.408   .     A
C512   N630    1.434   .     S
C513   C546    1.408   .     A
C513   C528    1.399   .     A
C513   N633    1.435   .     S
C514   C527    1.400   .     A
C514   C545    1.409   .     A
C514   N636    1.438   .     S
C515   C548    1.408   .     A
C515   C526    1.399   .     A
C515   N639    1.433   .     S
C516   C525    1.399   .     A
C516   C547    1.407   .     A
C516   N642    1.438   .     S
C517   N645    1.433   .     S
C517   C524    1.400   .     A
C517   C550    1.408   .     A
C518   N648    1.433   .     S
C518   C523    1.399   .     A
C518   C549    1.407   .     A
C519   C522    1.401   .     A
C519   C552    1.408   .     A
C519   N651    1.434   .     S
C520   C551    1.406   .     A
C520   N654    1.434   .     S
C520   C521    1.400   .     A
C521   N657    1.435   .     S
C521   C554    1.407   .     A
C522   N660    1.437   .     S
C522   C553    1.408   .     A
C523   C556    1.409   .     A
C523   N663    1.437   .     S
C524   C555    1.408   .     A
C524   N666    1.437   .     S
C525   N669    1.433   .     S
C525   C558    1.408   .     A
C526   C557    1.408   .     A
C526   N672    1.438   .     S
C527   C560    1.409   .     A
C527   N675    1.434   .     S
C528   C559    1.407   .     A
C528   N678    1.434   .     S
C529   C561    1.420   .     A
C530   C562    1.421   .     A
C531   C563    1.422   .     A
C531   C1115   1.413   .     S
C532   C564    1.423   .     A
C532   C1116   1.412   1_545 S
C533   C97     1.416   1_655 S
C533   C197    1.419   1_655 S
C534   C98     1.417   1_655 S
C534   C198    1.419   1_655 S
C535   C563    1.423   .     A
C536   C564    1.423   .     A
C537   C565    1.423   .     A
C538   C566    1.423   .     S
C540   C568    1.422   .     A
C541   C1293   1.421   1_545 S
C542   C1294   1.422   .     A
C543   C567    1.423   .     A
C561   C562    1.412   .     A
C563   C1292   1.417   .     S
C564   C1291   1.417   1_545 S
C565   C1269   1.421   .     S
C565   C1294   1.416   1_556 S
C566   C1270   1.422   1_545 A
C566   C1293   1.416   1_544 S
C567   C175    1.423   1_655 S
C567   C568    1.417   1_556 S
C568   C180    1.423   1_655 S
C568   C567    1.417   1_554 S
I569   C93     2.153   1_655 S
N585   O586    1.301   .     A
N585   O587    1.301   .     A
N588   O589    1.301   .     A
N588   O590    1.301   .     A
N591   O592    1.301   .     A
N591   O593    1.301   .     A
N594   O595    1.301   .     A
N594   O596    1.301   .     A
N597   O598    1.301   .     A
N597   O599    1.301   .     A
N600   O601    1.301   .     A
N600   O602    1.301   .     A
N603   O604    1.301   .     A
N603   O605    1.301   .     A
N606   O608    1.301   .     A
N606   O607    1.301   .     A
N609   O610    1.301   .     A
N609   O611    1.301   .     A
N612   O614    1.301   .     A
N612   O613    1.301   .     A
N615   O616    1.301   .     A
N615   O617    1.301   .     A
N618   O620    1.301   .     A
N618   O619    1.301   .     A
N621   O622    1.301   .     A
N621   O623    1.301   .     A
N624   O625    1.301   .     A
N624   O626    1.301   .     A
N627   O629    1.301   .     A
N627   O628    1.301   .     A
N630   O632    1.301   .     A
N630   O631    1.301   .     A
N633   O635    1.301   .     A
N633   O634    1.300   .     A
N636   O637    1.301   .     A
N636   O638    1.301   .     A
N639   O640    1.301   .     A
N639   O641    1.301   .     A
N642   O643    1.301   .     A
N642   O644    1.301   .     A
N645   O647    1.301   .     A
N645   O646    1.301   .     A
N648   O649    1.301   .     A
N648   O650    1.301   .     A
N651   O653    1.301   .     A
N651   O652    1.301   .     A
N654   O655    1.301   .     A
N654   O656    1.301   .     A
N657   O658    1.301   .     A
N657   O659    1.301   .     A
N660   O661    1.301   .     A
N660   O662    1.301   .     A
N663   O664    1.301   .     A
N663   O665    1.301   .     A
N666   O668    1.301   .     A
N666   O667    1.301   .     A
N669   O670    1.301   .     A
N669   O671    1.301   .     A
N672   O674    1.301   .     A
N672   O673    1.301   .     A
N675   O677    1.301   .     A
N675   O676    1.301   .     A
N678   O679    1.301   .     A
N678   O680    1.301   .     A
N681   O683    1.301   .     A
N681   O682    1.300   .     A
N684   O686    1.301   .     A
N684   O321    1.300   1_655 S
N687   O689    1.301   .     A
N687   C1111   1.436   1_545 S
N687   O1416   1.301   1_545 S
O688   N1415   1.301   .     S
N690   O692    1.301   .     A
N690   C1112   1.437   .     S
N690   O1419   1.301   .     S
O691   N1418   1.301   1_545 S
N693   O695    1.301   .     A
N693   O694    1.302   .     A
N696   O697    1.301   .     A
N696   O698    1.302   .     A
N699   O701    1.301   .     A
N699   O1428   1.301   1_545 S
O700   N1427   1.301   .     S
N702   O704    1.301   .     A
N702   O1431   1.301   .     S
O703   N1430   1.301   1_545 S
N705   O707    1.301   .     A
N705   O706    1.300   .     A
N708   O709    1.300   .     A
N708   O710    1.301   .     A
N711   O712    1.301   .     A
N711   O713    1.301   .     A
N714   O715    1.301   .     A
N714   O716    1.301   .     A
N717   O718    1.301   .     A
N717   O719    1.301   .     A
N720   O722    1.301   .     A
N720   O721    1.301   .     A
N723   O724    1.301   .     A
N723   O725    1.301   .     A
N726   O728    1.301   .     A
N726   O727    1.301   .     A
Zn729  O815    1.933   .     S
Zn729  O784    1.950   .     S
Zn729  O769    1.949   .     S
Zn730  O811    1.934   .     S
Zn730  O783    1.950   .     S
Zn730  O770    1.949   .     S
Zn731  O1177   1.935   1_455 S
Zn731  O786    1.949   .     S
Zn731  O771    1.946   .     S
Zn731  O806    1.935   .     S
Zn732  O1169   1.935   1_455 S
Zn732  O772    1.946   .     S
Zn732  O785    1.949   .     S
Zn732  O814    1.935   .     S
Zn733  O788    1.950   .     S
Zn733  O808    1.934   .     S
Zn733  O769    1.948   .     S
Zn734  O770    1.948   .     S
Zn734  O820    1.933   .     S
Zn734  O787    1.950   .     S
Zn735  O782    1.950   .     S
Zn735  O1174   1.934   1_455 S
Zn735  O771    1.944   .     S
Zn735  O817    1.936   .     S
Zn736  O781    1.950   .     S
Zn736  O1182   1.936   1_455 S
Zn736  O772    1.944   .     S
Zn736  O809    1.934   .     S
Zn737  O776    1.950   .     S
Zn737  O799    1.933   .     S
Zn737  O796    1.934   .     S
Zn737  O1136   1.949   .     S
Zn738  O775    1.950   .     S
Zn738  O795    1.934   .     S
Zn738  O771    1.949   .     S
Zn738  O800    1.933   .     S
Zn739  O790    1.935   .     S
Zn739  O797    1.935   .     S
Zn739  O778    1.949   .     S
Zn739  O42     1.946   1_565 S
Zn740  O777    1.949   .     S
Zn740  O798    1.935   .     S
Zn740  O789    1.935   .     S
Zn740  O769    1.946   .     S
Zn741  O803    1.933   .     S
Zn741  O772    1.948   .     S
Zn741  O780    1.950   .     S
Zn741  O792    1.934   .     S
Zn742  O804    1.933   .     S
Zn742  O779    1.950   .     S
Zn742  O791    1.934   .     S
Zn742  O1135   1.948   .     S
Zn743  O794    1.934   .     S
Zn743  O801    1.936   .     S
Zn743  O774    1.950   .     S
Zn743  O770    1.944   .     S
Zn744  O773    1.950   .     S
Zn744  O793    1.934   .     S
Zn744  O802    1.936   .     S
Zn744  O41     1.944   1_565 S
C745   N1045   1.434   .     S
C745   C897    1.411   .     A
C745   C1125   1.402   .     S
C746   C898    1.412   .     A
C746   N1048   1.434   .     S
C746   C1126   1.403   .     S
C747   C763    1.401   .     A
C747   C899    1.412   .     A
C747   N323    1.436   1_565 S
C748   C764    1.401   .     A
C748   C900    1.413   .     A
C749   C761    1.403   .     A
C749   C893    1.413   .     A
C749   N1057   1.438   .     S
C750   C894    1.412   .     A
C750   C762    1.403   .     A
C750   N1060   1.438   .     S
C751   N1063   1.436   .     S
C752   N1066   1.436   .     S
C752   C36     1.401   1_565 S
C752   C168    1.412   1_565 S
C753   C905    1.411   .     A
C753   N1069   1.434   .     S
C754   N1072   1.434   .     S
C754   C906    1.411   .     A
C754   C38     1.401   1_565 S
C755   C907    1.413   .     A
C755   N1075   1.436   .     S
C755   C1131   1.401   .     S
C756   C908    1.413   .     A
C756   N1078   1.436   .     S
C756   C1132   1.401   1_455 S
C757   N1081   1.436   .     S
C757   C765    1.401   .     A
C757   C901    1.413   .     A
C758   C766    1.400   .     A
C758   C902    1.413   .     A
C758   N1084   1.436   .     S
C759   N1087   1.436   .     S
C759   C903    1.412   .     A
C759   C767    1.401   .     A
C760   N1090   1.436   .     S
C760   C904    1.412   .     A
C760   C768    1.401   .     A
C761   C839    1.458   .     S
C761   C1109   1.402   1_455 S
C762   C840    1.458   .     S
C762   C1110   1.403   1_455 S
C763   C837    1.457   .     S
C763   C23     1.401   1_565 S
C764   C838    1.456   .     S
C765   C843    1.458   .     S
C765   C25     1.401   1_565 S
C766   C844    1.457   .     S
C767   C841    1.456   .     S
C767   C1119   1.401   1_455 S
C768   C842    1.457   .     S
C768   C1120   1.401   .     S
O771   Zn1106  1.948   1_455 S
O772   Zn1101  1.949   1_455 S
O773   C837    1.274   .     A
O774   C838    1.274   .     A
O775   C839    1.278   .     A
O776   C1204   1.280   .     S
O778   C110    1.277   1_565 S
O779   C1203   1.279   .     S
O780   C840    1.277   .     A
O781   C841    1.274   .     S
O782   C1206   1.274   1_455 A
O784   C844    1.279   .     A
O785   C841    1.277   .     A
O786   C1206   1.277   1_455 A
O788   C844    1.276   .     A
O789   C845    1.281   .     A
O790   C846    1.277   .     A
O791   C847    1.277   .     A
O792   C848    1.276   .     A
O793   C849    1.275   .     A
O794   C850    1.275   .     A
O795   C851    1.282   .     A
O796   C852    1.282   .     A
O797   C853    1.283   .     A
O798   C854    1.282   .     A
O799   C855    1.281   .     A
O800   C856    1.277   .     A
O801   C857    1.276   .     A
O802   C858    1.276   .     A
O803   C859    1.282   .     A
O804   C860    1.283   .     A
O805   C855    1.278   .     A
O805   Zn1096  1.935   .     S
O806   C856    1.282   .     A
O807   C853    1.276   .     A
O807   Zn6     1.934   1_565 S
O808   C854    1.277   .     A
O809   C859    1.275   .     A
O810   C860    1.275   .     A
O810   Zn1099  1.934   .     S
O811   C857    1.282   .     A
O812   C858    1.282   .     A
O812   Zn1     1.934   1_565 S
O813   Zn1095  1.935   .     S
O813   C847    1.281   .     A
O814   C848    1.282   .     A
O815   C845    1.278   .     A
O816   C846    1.282   .     A
O816   Zn2     1.933   1_565 S
O817   C851    1.276   .     A
O818   C852    1.277   .     A
O818   Zn1100  1.936   .     S
O819   C849    1.282   .     A
O819   Zn5     1.933   1_565 S
O820   C850    1.283   .     A
C821   C893    1.415   .     A
C821   C826    1.401   .     A
C821   I1297   2.153   1_455 S
C822   I934    2.153   .     S
C822   C1189   1.400   .     S
C822   C1258   1.415   .     S
C823   C895    1.416   .     A
C823   I935    2.153   .     S
C823   C100    1.397   1_565 S
C824   I936    2.153   .     S
C824   C896    1.415   .     A
C825   I937    2.153   .     S
C825   C1186   1.400   1_455 S
C825   C1261   1.416   1_455 S
C826   I938    2.153   .     S
C826   C1262   1.417   1_455 S
C827   I939    2.153   .     S
C827   C899    1.415   .     A
C827   C96     1.396   1_565 S
C828   C900    1.415   .     A
C828   I940    2.153   .     S
C829   I941    2.153   .     S
C829   C901    1.415   .     A
C829   C834    1.396   1_556 S
C830   I942    2.153   .     S
C830   C902    1.415   .     A
C830   C833    1.396   1_554 S
C831   C903    1.415   .     A
C831   I943    2.153   .     S
C831   C836    1.396   1_556 S
C832   I944    2.153   .     S
C832   C904    1.415   .     A
C832   C835    1.397   1_554 S
C833   C905    1.416   .     A
C833   I945    2.153   .     S
C833   C830    1.396   1_556 S
C834   C906    1.416   .     A
C834   I946    2.153   .     S
C834   C829    1.396   1_554 S
C835   C907    1.415   .     A
C835   I947    2.153   .     S
C835   C832    1.397   1_556 S
C836   I948    2.153   .     S
C836   C908    1.415   .     A
C836   C831    1.396   1_554 S
C837   O49     1.277   1_565 S
C839   O1143   1.279   1_455 S
C840   O1140   1.280   1_455 S
C842   O1146   1.274   .     A
C842   O1150   1.277   .     A
C843   O59     1.276   1_565 S
C843   O55     1.279   1_565 S
C845   C911    1.453   .     S
C846   C912    1.454   .     S
C847   C913    1.454   .     S
C848   C914    1.455   .     S
C849   C915    1.453   .     S
C850   C916    1.454   .     S
C851   C909    1.454   .     S
C852   C910    1.455   .     S
C853   C919    1.454   .     S
C854   C920    1.455   .     S
C855   C921    1.454   .     S
C856   C922    1.455   .     S
C857   C923    1.454   .     S
C858   C924    1.455   .     S
C859   C917    1.453   .     S
C860   C918    1.454   .     S
C861   C924    1.408   .     A
C861   N949    1.437   .     S
C861   C876    1.400   .     A
C862   N952    1.437   .     S
C862   C875    1.401   .     A
C862   C923    1.409   .     A
C863   C874    1.399   .     A
C863   C922    1.408   .     A
C863   N955    1.437   .     S
C864   N958    1.433   .     S
C864   C873    1.399   .     A
C864   C921    1.407   .     A
C865   C920    1.409   .     A
C865   C872    1.400   .     A
C865   N961    1.434   .     S
C866   C871    1.400   .     A
C866   C919    1.409   .     A
C866   N964    1.434   .     S
C867   C870    1.401   .     A
C867   C918    1.408   .     A
C867   N967    1.434   .     S
C868   C869    1.400   .     A
C868   C917    1.408   .     A
C868   N970    1.434   .     S
C869   N973    1.435   .     S
C869   C916    1.406   .     A
C870   C915    1.407   .     A
C870   N976    1.435   .     S
C871   N979    1.437   .     S
C871   C914    1.408   .     A
C872   C913    1.408   .     A
C872   N982    1.437   .     S
C873   C912    1.409   .     A
C873   N985    1.438   .     S
C874   C911    1.407   .     A
C874   N988    1.433   .     S
C875   N991    1.434   .     S
C875   C910    1.408   .     A
C876   C909    1.408   .     A
C876   N994    1.434   .     S
C877   C910    1.408   .     A
C877   C892    1.399   .     A
C877   N997    1.435   .     S
C878   C891    1.400   .     A
C878   C909    1.409   .     A
C878   N1000   1.438   .     S
C879   C912    1.408   .     A
C879   C890    1.399   .     A
C879   N1003   1.433   .     S
C880   C889    1.399   .     A
C880   C911    1.407   .     A
C880   N1006   1.438   .     S
C881   N1009   1.433   .     S
C881   C888    1.400   .     A
C881   C914    1.408   .     A
C882   N1012   1.433   .     S
C882   C887    1.399   .     A
C882   C913    1.407   .     A
C883   C886    1.401   .     A
C883   C916    1.408   .     A
C883   N1015   1.434   .     S
C884   C915    1.406   .     A
C884   N1018   1.434   .     S
C884   C885    1.400   .     A
C885   N1021   1.435   .     S
C885   C918    1.407   .     A
C886   N1024   1.437   .     S
C886   C917    1.408   .     A
C887   C920    1.409   .     A
C887   N1027   1.437   .     S
C888   C919    1.408   .     A
C888   N1030   1.437   .     S
C889   N1033   1.433   .     S
C889   C922    1.408   .     A
C890   C921    1.408   .     A
C890   N1036   1.438   .     S
C891   C924    1.409   .     A
C891   N1039   1.434   .     S
C892   C923    1.407   .     A
C892   N1042   1.434   .     S
C893   C925    1.420   .     A
C894   C926    1.421   .     A
C894   C1186   1.415   1_455 S
C895   C927    1.422   .     A
C895   C23     1.413   1_565 S
C896   C928    1.423   .     A
C897   C1189   1.416   .     S
C897   C1289   1.419   .     S
C898   C1190   1.417   .     S
C898   C1290   1.419   .     S
C899   C927    1.423   .     A
C900   C928    1.423   .     A
C901   C929    1.423   .     A
C902   C930    1.423   .     S
C903   C1295   1.423   1_455 S
C904   C932    1.422   .     A
C906   C202    1.422   1_565 A
C907   C931    1.423   .     A
C908   C1296   1.423   1_455 S
C925   C926    1.412   .     A
C925   C1261   1.419   1_455 S
C926   C1262   1.419   1_455 S
C927   C200    1.417   1_565 S
C929   C177    1.421   1_565 S
C929   C202    1.416   1_566 S
C930   C201    1.416   1_554 S
C931   C1267   1.423   .     S
C931   C932    1.417   1_556 S
C932   C1272   1.423   .     S
C932   C931    1.417   1_554 S
I933   C1185   2.153   .     S
N949   O950    1.301   .     A
N949   O951    1.301   .     A
N952   O953    1.301   .     A
N952   O954    1.301   .     A
N955   O956    1.301   .     A
N955   O957    1.301   .     A
N958   O959    1.301   .     A
N958   O960    1.301   .     A
N961   O962    1.301   .     A
N961   O963    1.301   .     A
N964   O965    1.301   .     A
N964   O966    1.301   .     A
N967   O968    1.301   .     A
N967   O969    1.301   .     A
N970   O972    1.301   .     A
N970   O971    1.301   .     A
N973   O974    1.301   .     A
N973   O975    1.301   .     A
N976   O978    1.301   .     A
N976   O977    1.301   .     A
N979   O980    1.301   .     A
N979   O981    1.301   .     A
N982   O984    1.301   .     A
N982   O983    1.301   .     A
N985   O986    1.301   .     A
N985   O987    1.301   .     A
N988   O989    1.301   .     A
N988   O990    1.301   .     A
N991   O993    1.301   .     A
N991   O992    1.301   .     A
N994   O996    1.301   .     A
N994   O995    1.301   .     A
N997   O999    1.301   .     A
N997   O998    1.300   .     A
N1000  O1001   1.301   .     A
N1000  O1002   1.301   .     A
N1003  O1004   1.301   .     A
N1003  O1005   1.301   .     A
N1006  O1007   1.301   .     A
N1006  O1008   1.301   .     A
N1009  O1011   1.301   .     A
N1009  O1010   1.301   .     A
N1012  O1013   1.301   .     A
N1012  O1014   1.301   .     A
N1015  O1017   1.301   .     A
N1015  O1016   1.301   .     A
N1018  O1019   1.301   .     A
N1018  O1020   1.301   .     A
N1021  O1022   1.301   .     A
N1021  O1023   1.301   .     A
N1024  O1025   1.301   .     A
N1024  O1026   1.301   .     A
N1027  O1028   1.301   .     A
N1027  O1029   1.301   .     A
N1030  O1032   1.301   .     A
N1030  O1031   1.301   .     A
N1033  O1034   1.301   .     A
N1033  O1035   1.301   .     A
N1036  O1038   1.301   .     A
N1036  O1037   1.301   .     A
N1039  O1041   1.301   .     A
N1039  O1040   1.301   .     A
N1042  O1043   1.301   .     A
N1042  O1044   1.301   .     A
N1045  O1047   1.301   .     A
N1045  O1046   1.300   .     A
N1048  O1050   1.301   .     A
N1048  O1413   1.300   .     S
O1049  N1412   1.300   1_455 S
N1051  O1053   1.301   .     A
O1052  N323    1.301   1_565 S
N1054  O1056   1.301   .     A
N1054  C20     1.437   1_565 S
N1054  O327    1.301   1_565 S
N1057  O1059   1.301   .     A
N1057  O1058   1.302   .     A
N1060  O1061   1.301   .     A
N1060  O1062   1.302   .     A
N1063  O1065   1.301   .     A
O1064  N335    1.301   1_565 S
N1066  O1068   1.301   .     A
N1066  O339    1.301   1_565 S
N1069  O1071   1.301   .     A
N1069  O1070   1.300   .     A
N1072  O1073   1.300   .     A
N1072  O1074   1.301   .     A
N1075  O1076   1.301   .     A
N1075  O1077   1.301   .     A
N1078  O1079   1.301   .     A
N1078  O1080   1.301   .     A
N1081  O1082   1.301   .     A
N1081  O1083   1.301   .     A
N1084  O1086   1.301   .     A
N1084  O1085   1.301   .     A
N1087  O1088   1.301   .     A
N1087  O1089   1.301   .     A
N1090  O1092   1.301   .     A
N1090  O1091   1.301   .     A
Zn1093 O1179   1.933   .     S
Zn1093 O1148   1.950   .     S
Zn1093 O1133   1.949   .     S
Zn1094 O1175   1.934   .     S
Zn1094 O1147   1.950   .     S
Zn1094 O1134   1.949   .     S
Zn1095 O1150   1.949   .     S
Zn1095 O1135   1.946   .     S
Zn1095 O1170   1.935   .     S
Zn1096 O1136   1.946   .     S
Zn1096 O1149   1.949   .     S
Zn1096 O1178   1.935   .     S
Zn1097 O1152   1.950   .     S
Zn1097 O1172   1.934   .     S
Zn1097 O1133   1.948   .     S
Zn1098 O1134   1.948   .     S
Zn1098 O1184   1.933   .     S
Zn1098 O1151   1.950   .     S
Zn1099 O1146   1.950   .     S
Zn1099 O1135   1.944   .     S
Zn1099 O1181   1.936   .     S
Zn1100 O1145   1.950   .     S
Zn1100 O1136   1.944   .     S
Zn1100 O1173   1.934   .     S
Zn1101 O1140   1.950   .     S
Zn1101 O1163   1.933   .     S
Zn1101 O1160   1.934   .     S
Zn1101 O772    1.949   1_655 S
Zn1102 O1139   1.950   .     S
Zn1102 O1159   1.934   .     S
Zn1102 O1135   1.949   .     S
Zn1102 O1164   1.933   .     S
Zn1103 O1154   1.935   .     S
Zn1103 O1161   1.935   .     S
Zn1103 O1142   1.949   .     S
Zn1103 O406    1.946   1_565 S
Zn1104 O1141   1.949   .     S
Zn1104 O1162   1.935   .     S
Zn1104 O1153   1.935   .     S
Zn1104 O1133   1.946   .     S
Zn1105 O1167   1.933   .     S
Zn1105 O1136   1.948   .     S
Zn1105 O1144   1.950   .     S
Zn1105 O1156   1.934   .     S
Zn1106 O1168   1.933   .     S
Zn1106 O1143   1.950   .     S
Zn1106 O1155   1.934   .     S
Zn1106 O771    1.948   1_655 S
Zn1107 O1158   1.934   .     S
Zn1107 O1165   1.936   .     S
Zn1107 O1138   1.950   .     S
Zn1107 O1134   1.944   .     S
Zn1108 O1137   1.950   .     S
Zn1108 O1157   1.934   .     S
Zn1108 O1166   1.936   .     S
Zn1108 O405    1.944   1_565 S
C1109  N1409   1.434   .     S
C1109  C1261   1.411   .     A
C1109  C761    1.402   1_655 S
C1110  C1262   1.412   .     A
C1110  N1412   1.434   .     S
C1110  C762    1.403   1_655 S
C1111  C1127   1.401   .     A
C1111  C1263   1.412   .     A
C1111  N687    1.436   1_565 S
C1112  C1128   1.401   .     A
C1112  C1264   1.413   .     A
C1113  C1125   1.403   .     A
C1113  C1257   1.413   .     A
C1113  N1421   1.438   .     S
C1114  C1258   1.412   .     A
C1114  C1126   1.403   .     A
C1114  N1424   1.438   .     S
C1115  N1427   1.436   .     S
C1116  N1430   1.436   .     S
C1116  C400    1.401   1_565 S
C1116  C532    1.412   1_565 S
C1117  C1269   1.411   .     A
C1117  N1433   1.434   .     S
C1118  N1436   1.434   .     S
C1118  C1270   1.411   .     A
C1118  C402    1.401   1_565 S
C1119  C1271   1.413   .     A
C1119  N1439   1.436   .     S
C1119  C767    1.401   1_655 S
C1120  C1272   1.413   .     A
C1120  N1442   1.436   .     S
C1121  N1445   1.436   .     S
C1121  C1129   1.401   .     A
C1121  C1265   1.413   .     A
C1122  C1130   1.400   .     A
C1122  C1266   1.413   .     A
C1122  N1448   1.436   .     S
C1123  N1451   1.436   .     S
C1123  C1267   1.412   .     A
C1123  C1131   1.401   .     A
C1124  N1454   1.436   .     S
C1124  C1268   1.412   .     A
C1124  C1132   1.401   .     A
C1125  C1203   1.458   .     S
C1126  C1204   1.458   .     S
C1127  C1201   1.457   .     S
C1127  C387    1.401   1_565 S
C1128  C1202   1.456   .     S
C1129  C1207   1.458   .     S
C1129  C389    1.401   1_565 S
C1130  C1208   1.457   .     S
C1131  C1205   1.456   .     S
C1132  C1206   1.457   .     S
C1132  C756    1.401   1_655 S
O1137  C1201   1.274   .     A
O1138  C1202   1.274   .     A
O1139  C1203   1.278   .     A
O1140  C840    1.280   1_655 S
O1142  C474    1.277   1_565 S
O1143  C839    1.279   1_655 S
O1144  C1204   1.277   .     A
O1145  C1205   1.274   .     S
O1148  C1208   1.279   .     A
O1149  C1205   1.277   .     A
O1152  C1208   1.276   .     A
O1153  C1209   1.281   .     A
O1154  C1210   1.277   .     A
O1155  C1211   1.277   .     A
O1156  C1212   1.276   .     A
O1157  C1213   1.275   .     A
O1158  C1214   1.275   .     A
O1159  C1215   1.282   .     A
O1160  C1216   1.282   .     A
O1161  C1217   1.283   .     A
O1162  C1218   1.282   .     A
O1163  C1219   1.281   .     A
O1164  C1220   1.277   .     A
O1165  C1221   1.276   .     A
O1166  C1222   1.276   .     A
O1167  C1223   1.282   .     A
O1168  C1224   1.283   .     A
O1169  C1219   1.278   .     A
O1169  Zn732   1.935   1_655 S
O1170  C1220   1.282   .     A
O1171  C1217   1.276   .     A
O1171  Zn370   1.934   1_565 S
O1172  C1218   1.277   .     A
O1173  C1223   1.275   .     A
O1174  C1224   1.275   .     A
O1174  Zn735   1.934   1_655 S
O1175  C1221   1.282   .     A
O1176  C1222   1.282   .     A
O1176  Zn365   1.934   1_565 S
O1177  Zn731   1.935   1_655 S
O1177  C1211   1.281   .     A
O1178  C1212   1.282   .     A
O1179  C1209   1.278   .     A
O1180  C1210   1.282   .     A
O1180  Zn366   1.933   1_565 S
O1181  C1215   1.276   .     A
O1182  C1216   1.277   .     A
O1182  Zn736   1.936   1_655 S
O1183  C1213   1.282   .     A
O1183  Zn369   1.933   1_565 S
O1184  C1214   1.283   .     A
C1185  C1257   1.415   .     A
C1185  C1190   1.401   .     A
C1186  I1298   2.153   .     S
C1186  C825    1.400   1_655 S
C1186  C894    1.415   1_655 S
C1187  C1259   1.416   .     A
C1187  I1299   2.153   .     S
C1187  C464    1.397   1_565 S
C1188  I1300   2.153   .     S
C1188  C1260   1.415   .     A
C1189  I1301   2.153   .     S
C1190  I1302   2.153   .     S
C1191  I1303   2.153   .     S
C1191  C1263   1.415   .     A
C1191  C460    1.396   1_565 S
C1192  C1264   1.415   .     A
C1192  I1304   2.153   .     S
C1193  I1305   2.153   .     S
C1193  C1265   1.415   .     A
C1193  C1198   1.396   1_556 S
C1194  I1306   2.153   .     S
C1194  C1266   1.415   .     A
C1194  C1197   1.396   1_554 S
C1195  C1267   1.415   .     A
C1195  I1307   2.153   .     S
C1195  C1200   1.396   1_556 S
C1196  I1308   2.153   .     S
C1196  C1268   1.415   .     A
C1196  C1199   1.397   1_554 S
C1197  C1269   1.416   .     A
C1197  I1309   2.153   .     S
C1197  C1194   1.396   1_556 S
C1198  C1270   1.416   .     A
C1198  I1310   2.153   .     S
C1198  C1193   1.396   1_554 S
C1199  C1271   1.415   .     A
C1199  I1311   2.153   .     S
C1199  C1196   1.397   1_556 S
C1200  I1312   2.153   .     S
C1200  C1272   1.415   .     A
C1200  C1195   1.396   1_554 S
C1201  O413    1.277   1_565 S
C1206  O782    1.274   1_655 A
C1206  O786    1.277   1_655 A
C1207  O423    1.276   1_565 S
C1207  O419    1.279   1_565 S
C1209  C1275   1.453   .     S
C1210  C1276   1.454   .     S
C1211  C1277   1.454   .     S
C1212  C1278   1.455   .     S
C1213  C1279   1.453   .     S
C1214  C1280   1.454   .     S
C1215  C1273   1.454   .     S
C1216  C1274   1.455   .     S
C1217  C1283   1.454   .     S
C1218  C1284   1.455   .     S
C1219  C1285   1.454   .     S
C1220  C1286   1.455   .     S
C1221  C1287   1.454   .     S
C1222  C1288   1.455   .     S
C1223  C1281   1.453   .     S
C1224  C1282   1.454   .     S
C1225  C1288   1.408   .     A
C1225  N1313   1.437   .     S
C1225  C1240   1.400   .     A
C1226  N1316   1.437   .     S
C1226  C1239   1.401   .     A
C1226  C1287   1.409   .     A
C1227  C1238   1.399   .     A
C1227  C1286   1.408   .     A
C1227  N1319   1.437   .     S
C1228  N1322   1.433   .     S
C1228  C1237   1.399   .     A
C1228  C1285   1.407   .     A
C1229  C1284   1.409   .     A
C1229  C1236   1.400   .     A
C1229  N1325   1.434   .     S
C1230  C1235   1.400   .     A
C1230  C1283   1.409   .     A
C1230  N1328   1.434   .     S
C1231  C1234   1.401   .     A
C1231  C1282   1.408   .     A
C1231  N1331   1.434   .     S
C1232  C1233   1.400   .     A
C1232  C1281   1.408   .     A
C1232  N1334   1.434   .     S
C1233  N1337   1.435   .     S
C1233  C1280   1.406   .     A
C1234  C1279   1.407   .     A
C1234  N1340   1.435   .     S
C1235  N1343   1.437   .     S
C1235  C1278   1.408   .     A
C1236  C1277   1.408   .     A
C1236  N1346   1.437   .     S
C1237  C1276   1.409   .     A
C1237  N1349   1.438   .     S
C1238  C1275   1.407   .     A
C1238  N1352   1.433   .     S
C1239  N1355   1.434   .     S
C1239  C1274   1.408   .     A
C1240  C1273   1.408   .     A
C1240  N1358   1.434   .     S
C1241  C1274   1.408   .     A
C1241  C1256   1.399   .     A
C1241  N1361   1.435   .     S
C1242  C1255   1.400   .     A
C1242  C1273   1.409   .     A
C1242  N1364   1.438   .     S
C1243  C1276   1.408   .     A
C1243  C1254   1.399   .     A
C1243  N1367   1.433   .     S
C1244  C1253   1.399   .     A
C1244  C1275   1.407   .     A
C1244  N1370   1.438   .     S
C1245  N1373   1.433   .     S
C1245  C1252   1.400   .     A
C1245  C1278   1.408   .     A
C1246  N1376   1.433   .     S
C1246  C1251   1.399   .     A
C1246  C1277   1.407   .     A
C1247  C1250   1.401   .     A
C1247  C1280   1.408   .     A
C1247  N1379   1.434   .     S
C1248  C1279   1.406   .     A
C1248  N1382   1.434   .     S
C1248  C1249   1.400   .     A
C1249  N1385   1.435   .     S
C1249  C1282   1.407   .     A
C1250  N1388   1.437   .     S
C1250  C1281   1.408   .     A
C1251  C1284   1.409   .     A
C1251  N1391   1.437   .     S
C1252  C1283   1.408   .     A
C1252  N1394   1.437   .     S
C1253  N1397   1.433   .     S
C1253  C1286   1.408   .     A
C1254  C1285   1.408   .     A
C1254  N1400   1.438   .     S
C1255  C1288   1.409   .     A
C1255  N1403   1.434   .     S
C1256  C1287   1.407   .     A
C1256  N1406   1.434   .     S
C1257  C1289   1.420   .     A
C1258  C1290   1.421   .     A
C1259  C1291   1.422   .     A
C1259  C387    1.413   1_565 S
C1260  C1292   1.423   .     A
C1261  C825    1.416   1_655 S
C1261  C925    1.419   1_655 S
C1262  C826    1.417   1_655 S
C1262  C926    1.419   1_655 S
C1263  C1291   1.423   .     A
C1264  C1292   1.423   .     A
C1265  C1293   1.423   .     A
C1266  C1294   1.423   .     S
C1268  C1296   1.422   .     A
C1270  C566    1.422   1_565 A
C1271  C1295   1.423   .     A
C1289  C1290   1.412   .     A
C1291  C564    1.417   1_565 S
C1293  C541    1.421   1_565 S
C1293  C566    1.416   1_566 S
C1294  C565    1.416   1_554 S
C1295  C903    1.423   1_655 S
C1295  C1296   1.417   1_556 S
C1296  C908    1.423   1_655 S
C1296  C1295   1.417   1_554 S
I1297  C821    2.153   1_655 S
N1313  O1314   1.301   .     A
N1313  O1315   1.301   .     A
N1316  O1317   1.301   .     A
N1316  O1318   1.301   .     A
N1319  O1320   1.301   .     A
N1319  O1321   1.301   .     A
N1322  O1323   1.301   .     A
N1322  O1324   1.301   .     A
N1325  O1326   1.301   .     A
N1325  O1327   1.301   .     A
N1328  O1329   1.301   .     A
N1328  O1330   1.301   .     A
N1331  O1332   1.301   .     A
N1331  O1333   1.301   .     A
N1334  O1336   1.301   .     A
N1334  O1335   1.301   .     A
N1337  O1338   1.301   .     A
N1337  O1339   1.301   .     A
N1340  O1342   1.301   .     A
N1340  O1341   1.301   .     A
N1343  O1344   1.301   .     A
N1343  O1345   1.301   .     A
N1346  O1348   1.301   .     A
N1346  O1347   1.301   .     A
N1349  O1350   1.301   .     A
N1349  O1351   1.301   .     A
N1352  O1353   1.301   .     A
N1352  O1354   1.301   .     A
N1355  O1357   1.301   .     A
N1355  O1356   1.301   .     A
N1358  O1360   1.301   .     A
N1358  O1359   1.301   .     A
N1361  O1363   1.301   .     A
N1361  O1362   1.300   .     A
N1364  O1365   1.301   .     A
N1364  O1366   1.301   .     A
N1367  O1368   1.301   .     A
N1367  O1369   1.301   .     A
N1370  O1371   1.301   .     A
N1370  O1372   1.301   .     A
N1373  O1375   1.301   .     A
N1373  O1374   1.301   .     A
N1376  O1377   1.301   .     A
N1376  O1378   1.301   .     A
N1379  O1381   1.301   .     A
N1379  O1380   1.301   .     A
N1382  O1383   1.301   .     A
N1382  O1384   1.301   .     A
N1385  O1386   1.301   .     A
N1385  O1387   1.301   .     A
N1388  O1389   1.301   .     A
N1388  O1390   1.301   .     A
N1391  O1392   1.301   .     A
N1391  O1393   1.301   .     A
N1394  O1396   1.301   .     A
N1394  O1395   1.301   .     A
N1397  O1398   1.301   .     A
N1397  O1399   1.301   .     A
N1400  O1402   1.301   .     A
N1400  O1401   1.301   .     A
N1403  O1405   1.301   .     A
N1403  O1404   1.301   .     A
N1406  O1407   1.301   .     A
N1406  O1408   1.301   .     A
N1409  O1411   1.301   .     A
N1409  O1410   1.300   .     A
N1412  O1414   1.301   .     A
N1412  O1049   1.300   1_655 S
N1415  O1417   1.301   .     A
O1416  N687    1.301   1_565 S
N1418  O1420   1.301   .     A
N1418  C384    1.437   1_565 S
N1418  O691    1.301   1_565 S
N1421  O1423   1.301   .     A
N1421  O1422   1.302   .     A
N1424  O1425   1.301   .     A
N1424  O1426   1.302   .     A
N1427  O1429   1.301   .     A
O1428  N699    1.301   1_565 S
N1430  O1432   1.301   .     A
N1430  O703    1.301   1_565 S
N1433  O1435   1.301   .     A
N1433  O1434   1.300   .     A
N1436  O1437   1.300   .     A
N1436  O1438   1.301   .     A
N1439  O1440   1.301   .     A
N1439  O1441   1.301   .     A
N1442  O1443   1.301   .     A
N1442  O1444   1.301   .     A
N1445  O1446   1.301   .     A
N1445  O1447   1.301   .     A
N1448  O1450   1.301   .     A
N1448  O1449   1.301   .     A
N1451  O1452   1.301   .     A
N1451  O1453   1.301   .     A
N1454  O1456   1.301   .     A
N1454  O1455   1.301   .     A
