data_str_m1_o10_o18_pcu_sym.81
_audit_creation_date              2020-01-03
_audit_creation_method            'Materials Studio'
_symmetry_space_group_name_H-M    'P1'
_symmetry_Int_Tables_number       1
_symmetry_cell_setting            triclinic
loop_
_symmetry_equiv_pos_as_xyz
  x,y,z
_cell_length_a                    32.5414
_cell_length_b                    32.5347
_cell_length_c                    35.6703
_cell_angle_alpha                 98.0837
_cell_angle_beta                  72.8517
_cell_angle_gamma                 98.5866
loop_
_atom_site_label
_atom_site_type_symbol
_atom_site_fract_x
_atom_site_fract_y
_atom_site_fract_z
_atom_site_U_iso_or_equiv
_atom_site_adp_type
_atom_site_occupancy
C1     C     0.05249   0.15999   0.25873   0.00000  Uiso   1.00
C2     C     0.21870   0.16353   0.46242   0.00000  Uiso   1.00
C3     C     0.23928   0.14013   0.47974   0.00000  Uiso   1.00
C4     C     0.28111   0.17358   0.24116   0.00000  Uiso   1.00
C5     C     0.22201   0.13215   0.01914   0.00000  Uiso   1.00
C6     C     0.18243   0.14781   0.04103   0.00000  Uiso   1.00
C7     C     0.24597   0.11381   0.03857   0.00000  Uiso   1.00
C8     C     0.23325   0.11640   0.07976   0.00000  Uiso   1.00
C9     C     0.17333   0.15336   0.08223   0.00000  Uiso   1.00
C10    C     0.32714   0.17615   0.23741   0.00000  Uiso   1.00
C11    C     0.00708   0.15773   0.26224   0.00000  Uiso   1.00
C12    C     0.09859   0.21564   0.42125   0.00000  Uiso   1.00
C13    C     0.18100   0.32220   0.23804   0.00000  Uiso   1.00
C14    C     0.15161   0.01209   0.26214   0.00000  Uiso   1.00
C15    C     0.15597   0.05612   0.25888   0.00000  Uiso   1.00
C16    C     0.17690   0.27771   0.24132   0.00000  Uiso   1.00
C17    C     0.18838   0.14532   0.14399   0.00000  Uiso   1.00
C18    C     0.14516   0.18752   0.35625   0.00000  Uiso   1.00
C19    C     0.13388   0.19430   0.39957   0.00000  Uiso   1.00
C20    C     0.19789   0.13726   0.10137   0.00000  Uiso   1.00
C21    C     0.08491   0.21709   0.46238   0.00000  Uiso   1.00
C22    C     0.04582   0.23589   0.48316   0.00000  Uiso   1.00
C23    C     0.15742   0.17751   0.41951   0.00000  Uiso   1.00
C24    C     0.14792   0.18331   0.46073   0.00000  Uiso   1.00
C25    C     0.10846   0.19899   0.48224   0.00000  Uiso   1.00
C26    C     0.17442   0.16975   0.48088   0.00000  Uiso   1.00
C27    C     0.15584   0.16187   0.02117   0.00000  Uiso   1.00
C28    C     0.11168   0.16888   0.03974   0.00000  Uiso   1.00
C29    C     0.09123   0.19200   0.02191   0.00000  Uiso   1.00
H30    H     0.05898   0.19973   0.03777   0.00000  Uiso   1.00
H31    H     0.18221   0.15834   0.40271   0.00000  Uiso   1.00
H32    H     0.33285   0.04939   0.02678   0.00000  Uiso   1.00
H33    H     0.07763   0.08863   0.10905   0.00000  Uiso   1.00
H34    H     0.27900   0.17996   0.36044   0.00000  Uiso   1.00
H35    H     0.01699   0.19302   0.21438   0.00000  Uiso   1.00
H36    H     0.31787   0.14095   0.28564   0.00000  Uiso   1.00
H37    H     0.20818   0.00282   0.21584   0.00000  Uiso   1.00
H38    H     0.12406   0.33222   0.28441   0.00000  Uiso   1.00
H39    H     0.14890   0.17255   0.09981   0.00000  Uiso   1.00
H40    H     0.25202   0.10400   0.09519   0.00000  Uiso   1.00
H41    H     0.27173   0.13339   0.46373   0.00000  Uiso   1.00
H42    H     0.08009   0.22893   0.40612   0.00000  Uiso   1.00
N43    N     0.01450   0.25091   0.49977   0.00000  Uiso   1.00
O44    O     0.16667   0.16667   0.25000   0.00000  Uiso   1.00
O45    O     0.15693   0.12393   0.16625   0.00000  Uiso   1.00
O46    O     0.12687   0.20646   0.33749   0.00000  Uiso   1.00
O47    O     0.21088   0.17493   0.15877   0.00000  Uiso   1.00
O48    O     0.17198   0.16135   0.33749   0.00000  Uiso   1.00
O49    O     0.28443   0.06087   0.47804   0.00000  Uiso   1.00
O50    O     0.32987   0.12178   0.49877   0.00000  Uiso   1.00
O51    O     0.30551   0.06034   0.04273   0.00000  Uiso   1.00
O52    O     0.07075   0.17042   0.11732   0.00000  Uiso   1.00
O53    O     0.03307   0.12976   0.07208   0.00000  Uiso   1.00
O54    O     0.09616   0.09832   0.08373   0.00000  Uiso   1.00
O55    O     0.17849   0.08101   0.27821   0.00000  Uiso   1.00
O56    O     0.23513   0.23077   0.42082   0.00000  Uiso   1.00
O57    O     0.29677   0.20477   0.43190   0.00000  Uiso   1.00
O58    O     0.26151   0.16148   0.38061   0.00000  Uiso   1.00
O59    O     0.14581   0.26136   0.26767   0.00000  Uiso   1.00
O60    O     0.07452   0.13251   0.23607   0.00000  Uiso   1.00
O61    O     0.26785   0.19179   0.21806   0.00000  Uiso   1.00
O62    O     0.06990   0.18960   0.27820   0.00000  Uiso   1.00
O63    O     0.25440   0.15277   0.26768   0.00000  Uiso   1.00
O64    O     0.13800   0.06903   0.23607   0.00000  Uiso   1.00
O65    O     0.20437   0.25527   0.21806   0.00000  Uiso   1.00
S66    S     0.29273   0.08899   0.01290   0.00000  Uiso   1.00
S67    S     0.07660   0.14198   0.07952   0.00000  Uiso   1.00
S68    S     0.25365   0.19205   0.42369   0.00000  Uiso   1.00
Zn69   Zn    0.19244   0.14090   0.28278   0.00000  Uiso   1.00
Zn70   Zn    0.13459   0.12378   0.22258   0.00000  Uiso   1.00
Zn71   Zn    0.21166   0.19664   0.21188   0.00000  Uiso   1.00
Zn72   Zn    0.12798   0.20535   0.28277   0.00000  Uiso   1.00
C73    C     0.38582   0.15999   0.25873   0.00000  Uiso   1.00
C74    C     0.55204   0.16353   0.46242   0.00000  Uiso   1.00
C75    C     0.57261   0.14013   0.47974   0.00000  Uiso   1.00
C76    C     0.61444   0.17358   0.24116   0.00000  Uiso   1.00
C77    C     0.55535   0.13215   0.01914   0.00000  Uiso   1.00
C78    C     0.51576   0.14781   0.04103   0.00000  Uiso   1.00
C79    C     0.57930   0.11381   0.03857   0.00000  Uiso   1.00
C80    C     0.56658   0.11640   0.07976   0.00000  Uiso   1.00
C81    C     0.50666   0.15336   0.08223   0.00000  Uiso   1.00
C82    C     0.66048   0.17615   0.23741   0.00000  Uiso   1.00
C83    C     0.34041   0.15773   0.26224   0.00000  Uiso   1.00
C84    C     0.43193   0.21564   0.42125   0.00000  Uiso   1.00
C85    C     0.51433   0.32220   0.23804   0.00000  Uiso   1.00
C86    C     0.48494   0.01209   0.26214   0.00000  Uiso   1.00
C87    C     0.48930   0.05612   0.25888   0.00000  Uiso   1.00
C88    C     0.51023   0.27771   0.24132   0.00000  Uiso   1.00
C89    C     0.52171   0.14532   0.14399   0.00000  Uiso   1.00
C90    C     0.47849   0.18752   0.35625   0.00000  Uiso   1.00
C91    C     0.46721   0.19430   0.39957   0.00000  Uiso   1.00
C92    C     0.53122   0.13726   0.10137   0.00000  Uiso   1.00
C93    C     0.41824   0.21709   0.46238   0.00000  Uiso   1.00
C94    C     0.37915   0.23589   0.48316   0.00000  Uiso   1.00
C95    C     0.49075   0.17751   0.41951   0.00000  Uiso   1.00
C96    C     0.48126   0.18331   0.46073   0.00000  Uiso   1.00
C97    C     0.44179   0.19899   0.48224   0.00000  Uiso   1.00
C98    C     0.50775   0.16975   0.48088   0.00000  Uiso   1.00
C99    C     0.48917   0.16187   0.02117   0.00000  Uiso   1.00
C100   C     0.44501   0.16888   0.03974   0.00000  Uiso   1.00
C101   C     0.42456   0.19200   0.02191   0.00000  Uiso   1.00
H102   H     0.39231   0.19973   0.03777   0.00000  Uiso   1.00
H103   H     0.51555   0.15834   0.40271   0.00000  Uiso   1.00
H104   H     0.66619   0.04939   0.02678   0.00000  Uiso   1.00
H105   H     0.41096   0.08863   0.10905   0.00000  Uiso   1.00
H106   H     0.61233   0.17996   0.36044   0.00000  Uiso   1.00
H107   H     0.35032   0.19302   0.21438   0.00000  Uiso   1.00
H108   H     0.65121   0.14095   0.28564   0.00000  Uiso   1.00
H109   H     0.54151   0.00282   0.21584   0.00000  Uiso   1.00
H110   H     0.45739   0.33222   0.28441   0.00000  Uiso   1.00
H111   H     0.48223   0.17255   0.09981   0.00000  Uiso   1.00
H112   H     0.58536   0.10400   0.09519   0.00000  Uiso   1.00
H113   H     0.60506   0.13339   0.46373   0.00000  Uiso   1.00
H114   H     0.41342   0.22893   0.40612   0.00000  Uiso   1.00
N115   N     0.34784   0.25091   0.49977   0.00000  Uiso   1.00
O116   O     0.50000   0.16667   0.25000   0.00000  Uiso   1.00
O117   O     0.49027   0.12393   0.16625   0.00000  Uiso   1.00
O118   O     0.46020   0.20646   0.33749   0.00000  Uiso   1.00
O119   O     0.54421   0.17493   0.15877   0.00000  Uiso   1.00
O120   O     0.50532   0.16135   0.33749   0.00000  Uiso   1.00
O121   O     0.61776   0.06087   0.47804   0.00000  Uiso   1.00
O122   O     0.66321   0.12178   0.49877   0.00000  Uiso   1.00
O123   O     0.63884   0.06034   0.04273   0.00000  Uiso   1.00
O124   O     0.40408   0.17042   0.11732   0.00000  Uiso   1.00
O125   O     0.36640   0.12976   0.07208   0.00000  Uiso   1.00
O126   O     0.42949   0.09832   0.08373   0.00000  Uiso   1.00
O127   O     0.51182   0.08101   0.27821   0.00000  Uiso   1.00
O128   O     0.56846   0.23077   0.42082   0.00000  Uiso   1.00
O129   O     0.63011   0.20477   0.43190   0.00000  Uiso   1.00
O130   O     0.59484   0.16148   0.38061   0.00000  Uiso   1.00
O131   O     0.47914   0.26136   0.26767   0.00000  Uiso   1.00
O132   O     0.40785   0.13251   0.23607   0.00000  Uiso   1.00
O133   O     0.60119   0.19179   0.21806   0.00000  Uiso   1.00
O134   O     0.40323   0.18960   0.27820   0.00000  Uiso   1.00
O135   O     0.58773   0.15277   0.26768   0.00000  Uiso   1.00
O136   O     0.47133   0.06903   0.23607   0.00000  Uiso   1.00
O137   O     0.53771   0.25527   0.21806   0.00000  Uiso   1.00
S138   S     0.62606   0.08899   0.01290   0.00000  Uiso   1.00
S139   S     0.40993   0.14198   0.07952   0.00000  Uiso   1.00
S140   S     0.58698   0.19205   0.42369   0.00000  Uiso   1.00
Zn141  Zn    0.52577   0.14090   0.28278   0.00000  Uiso   1.00
Zn142  Zn    0.46792   0.12378   0.22258   0.00000  Uiso   1.00
Zn143  Zn    0.54500   0.19664   0.21188   0.00000  Uiso   1.00
Zn144  Zn    0.46131   0.20535   0.28277   0.00000  Uiso   1.00
C145   C     0.71916   0.15999   0.25873   0.00000  Uiso   1.00
C146   C     0.88537   0.16353   0.46242   0.00000  Uiso   1.00
C147   C     0.90595   0.14013   0.47974   0.00000  Uiso   1.00
C148   C     0.94777   0.17358   0.24116   0.00000  Uiso   1.00
C149   C     0.88868   0.13215   0.01914   0.00000  Uiso   1.00
C150   C     0.84909   0.14781   0.04103   0.00000  Uiso   1.00
C151   C     0.91264   0.11381   0.03857   0.00000  Uiso   1.00
C152   C     0.89992   0.11640   0.07976   0.00000  Uiso   1.00
C153   C     0.83999   0.15336   0.08223   0.00000  Uiso   1.00
C154   C     0.99381   0.17615   0.23741   0.00000  Uiso   1.00
C155   C     0.67375   0.15773   0.26224   0.00000  Uiso   1.00
C156   C     0.76526   0.21564   0.42125   0.00000  Uiso   1.00
C157   C     0.84767   0.32220   0.23804   0.00000  Uiso   1.00
C158   C     0.81828   0.01209   0.26214   0.00000  Uiso   1.00
C159   C     0.82264   0.05612   0.25888   0.00000  Uiso   1.00
C160   C     0.84357   0.27771   0.24132   0.00000  Uiso   1.00
C161   C     0.85505   0.14532   0.14399   0.00000  Uiso   1.00
C162   C     0.81182   0.18752   0.35625   0.00000  Uiso   1.00
C163   C     0.80054   0.19430   0.39957   0.00000  Uiso   1.00
C164   C     0.86456   0.13726   0.10137   0.00000  Uiso   1.00
C165   C     0.75158   0.21709   0.46238   0.00000  Uiso   1.00
C166   C     0.71248   0.23589   0.48316   0.00000  Uiso   1.00
C167   C     0.82408   0.17751   0.41951   0.00000  Uiso   1.00
C168   C     0.81459   0.18331   0.46073   0.00000  Uiso   1.00
C169   C     0.77513   0.19899   0.48224   0.00000  Uiso   1.00
C170   C     0.84109   0.16975   0.48088   0.00000  Uiso   1.00
C171   C     0.82250   0.16187   0.02117   0.00000  Uiso   1.00
C172   C     0.77835   0.16888   0.03974   0.00000  Uiso   1.00
C173   C     0.75789   0.19200   0.02191   0.00000  Uiso   1.00
H174   H     0.72564   0.19973   0.03777   0.00000  Uiso   1.00
H175   H     0.84888   0.15834   0.40271   0.00000  Uiso   1.00
H176   H     0.99952   0.04939   0.02678   0.00000  Uiso   1.00
H177   H     0.74429   0.08863   0.10905   0.00000  Uiso   1.00
H178   H     0.94567   0.17996   0.36044   0.00000  Uiso   1.00
H179   H     0.68365   0.19302   0.21438   0.00000  Uiso   1.00
H180   H     0.98454   0.14095   0.28564   0.00000  Uiso   1.00
H181   H     0.87484   0.00282   0.21584   0.00000  Uiso   1.00
H182   H     0.79073   0.33222   0.28441   0.00000  Uiso   1.00
H183   H     0.81557   0.17255   0.09981   0.00000  Uiso   1.00
H184   H     0.91869   0.10400   0.09519   0.00000  Uiso   1.00
H185   H     0.93839   0.13339   0.46373   0.00000  Uiso   1.00
H186   H     0.74676   0.22893   0.40612   0.00000  Uiso   1.00
N187   N     0.68117   0.25091   0.49977   0.00000  Uiso   1.00
O188   O     0.83333   0.16667   0.25000   0.00000  Uiso   1.00
O189   O     0.82360   0.12393   0.16625   0.00000  Uiso   1.00
O190   O     0.79354   0.20646   0.33749   0.00000  Uiso   1.00
O191   O     0.87755   0.17493   0.15877   0.00000  Uiso   1.00
O192   O     0.83865   0.16135   0.33749   0.00000  Uiso   1.00
O193   O     0.95109   0.06087   0.47804   0.00000  Uiso   1.00
O194   O     0.99654   0.12178   0.49877   0.00000  Uiso   1.00
O195   O     0.97218   0.06034   0.04273   0.00000  Uiso   1.00
O196   O     0.73741   0.17042   0.11732   0.00000  Uiso   1.00
O197   O     0.69974   0.12976   0.07208   0.00000  Uiso   1.00
O198   O     0.76283   0.09832   0.08373   0.00000  Uiso   1.00
O199   O     0.84515   0.08101   0.27821   0.00000  Uiso   1.00
O200   O     0.90180   0.23077   0.42082   0.00000  Uiso   1.00
O201   O     0.96344   0.20477   0.43190   0.00000  Uiso   1.00
O202   O     0.92817   0.16148   0.38061   0.00000  Uiso   1.00
O203   O     0.81247   0.26136   0.26767   0.00000  Uiso   1.00
O204   O     0.74119   0.13251   0.23607   0.00000  Uiso   1.00
O205   O     0.93452   0.19179   0.21806   0.00000  Uiso   1.00
O206   O     0.73656   0.18960   0.27820   0.00000  Uiso   1.00
O207   O     0.92106   0.15277   0.26768   0.00000  Uiso   1.00
O208   O     0.80467   0.06903   0.23607   0.00000  Uiso   1.00
O209   O     0.87104   0.25527   0.21806   0.00000  Uiso   1.00
S210   S     0.95939   0.08899   0.01290   0.00000  Uiso   1.00
S211   S     0.74327   0.14198   0.07952   0.00000  Uiso   1.00
S212   S     0.92031   0.19205   0.42369   0.00000  Uiso   1.00
Zn213  Zn    0.85910   0.14090   0.28278   0.00000  Uiso   1.00
Zn214  Zn    0.80125   0.12378   0.22258   0.00000  Uiso   1.00
Zn215  Zn    0.87833   0.19664   0.21188   0.00000  Uiso   1.00
Zn216  Zn    0.79465   0.20535   0.28277   0.00000  Uiso   1.00
C217   C     0.05249   0.49332   0.25873   0.00000  Uiso   1.00
C218   C     0.21870   0.49686   0.46242   0.00000  Uiso   1.00
C219   C     0.23928   0.47346   0.47974   0.00000  Uiso   1.00
C220   C     0.28111   0.50692   0.24116   0.00000  Uiso   1.00
C221   C     0.22201   0.46549   0.01914   0.00000  Uiso   1.00
C222   C     0.18243   0.48114   0.04103   0.00000  Uiso   1.00
C223   C     0.24597   0.44714   0.03857   0.00000  Uiso   1.00
C224   C     0.23325   0.44973   0.07976   0.00000  Uiso   1.00
C225   C     0.17333   0.48669   0.08223   0.00000  Uiso   1.00
C226   C     0.32714   0.50948   0.23741   0.00000  Uiso   1.00
C227   C     0.00708   0.49107   0.26224   0.00000  Uiso   1.00
C228   C     0.09859   0.54898   0.42125   0.00000  Uiso   1.00
C229   C     0.18100   0.65553   0.23804   0.00000  Uiso   1.00
C230   C     0.15161   0.34543   0.26214   0.00000  Uiso   1.00
C231   C     0.15597   0.38945   0.25888   0.00000  Uiso   1.00
C232   C     0.17690   0.61105   0.24132   0.00000  Uiso   1.00
C233   C     0.18838   0.47865   0.14399   0.00000  Uiso   1.00
C234   C     0.14516   0.52086   0.35625   0.00000  Uiso   1.00
C235   C     0.13388   0.52764   0.39957   0.00000  Uiso   1.00
C236   C     0.19789   0.47059   0.10137   0.00000  Uiso   1.00
C237   C     0.08491   0.55042   0.46238   0.00000  Uiso   1.00
C238   C     0.04582   0.56923   0.48316   0.00000  Uiso   1.00
C239   C     0.15742   0.51084   0.41951   0.00000  Uiso   1.00
C240   C     0.14792   0.51664   0.46073   0.00000  Uiso   1.00
C241   C     0.10846   0.53233   0.48224   0.00000  Uiso   1.00
C242   C     0.17442   0.50308   0.48088   0.00000  Uiso   1.00
C243   C     0.15584   0.49520   0.02117   0.00000  Uiso   1.00
C244   C     0.11168   0.50221   0.03974   0.00000  Uiso   1.00
C245   C     0.09123   0.52533   0.02191   0.00000  Uiso   1.00
H246   H     0.05898   0.53307   0.03777   0.00000  Uiso   1.00
H247   H     0.18221   0.49167   0.40271   0.00000  Uiso   1.00
H248   H     0.33285   0.38272   0.02678   0.00000  Uiso   1.00
H249   H     0.07763   0.42196   0.10905   0.00000  Uiso   1.00
H250   H     0.27900   0.51330   0.36044   0.00000  Uiso   1.00
H251   H     0.01699   0.52635   0.21438   0.00000  Uiso   1.00
H252   H     0.31787   0.47429   0.28564   0.00000  Uiso   1.00
H253   H     0.20818   0.33615   0.21584   0.00000  Uiso   1.00
H254   H     0.12406   0.66555   0.28441   0.00000  Uiso   1.00
H255   H     0.14890   0.50589   0.09981   0.00000  Uiso   1.00
H256   H     0.25202   0.43733   0.09519   0.00000  Uiso   1.00
H257   H     0.27173   0.46673   0.46373   0.00000  Uiso   1.00
H258   H     0.08009   0.56226   0.40612   0.00000  Uiso   1.00
N259   N     0.01450   0.58425   0.49977   0.00000  Uiso   1.00
O260   O     0.16667   0.50000   0.25000   0.00000  Uiso   1.00
O261   O     0.15693   0.45726   0.16625   0.00000  Uiso   1.00
O262   O     0.12687   0.53979   0.33749   0.00000  Uiso   1.00
O263   O     0.21088   0.50826   0.15877   0.00000  Uiso   1.00
O264   O     0.17198   0.49468   0.33749   0.00000  Uiso   1.00
O265   O     0.28443   0.39421   0.47804   0.00000  Uiso   1.00
O266   O     0.32987   0.45511   0.49877   0.00000  Uiso   1.00
O267   O     0.30551   0.39367   0.04273   0.00000  Uiso   1.00
O268   O     0.07075   0.50375   0.11732   0.00000  Uiso   1.00
O269   O     0.03307   0.46309   0.07208   0.00000  Uiso   1.00
O270   O     0.09616   0.43166   0.08373   0.00000  Uiso   1.00
O271   O     0.17849   0.41434   0.27821   0.00000  Uiso   1.00
O272   O     0.23513   0.56411   0.42082   0.00000  Uiso   1.00
O273   O     0.29677   0.53810   0.43190   0.00000  Uiso   1.00
O274   O     0.26151   0.49481   0.38061   0.00000  Uiso   1.00
O275   O     0.14581   0.59469   0.26767   0.00000  Uiso   1.00
O276   O     0.07452   0.46584   0.23607   0.00000  Uiso   1.00
O277   O     0.26785   0.52512   0.21806   0.00000  Uiso   1.00
O278   O     0.06990   0.52293   0.27820   0.00000  Uiso   1.00
O279   O     0.25440   0.48610   0.26768   0.00000  Uiso   1.00
O280   O     0.13800   0.40236   0.23607   0.00000  Uiso   1.00
O281   O     0.20437   0.58860   0.21806   0.00000  Uiso   1.00
S282   S     0.29273   0.42232   0.01290   0.00000  Uiso   1.00
S283   S     0.07660   0.47531   0.07952   0.00000  Uiso   1.00
S284   S     0.25365   0.52538   0.42369   0.00000  Uiso   1.00
Zn285  Zn    0.19244   0.47423   0.28278   0.00000  Uiso   1.00
Zn286  Zn    0.13459   0.45711   0.22258   0.00000  Uiso   1.00
Zn287  Zn    0.21166   0.52997   0.21188   0.00000  Uiso   1.00
Zn288  Zn    0.12798   0.53868   0.28277   0.00000  Uiso   1.00
C289   C     0.38582   0.49332   0.25873   0.00000  Uiso   1.00
C290   C     0.55204   0.49686   0.46242   0.00000  Uiso   1.00
C291   C     0.57261   0.47346   0.47974   0.00000  Uiso   1.00
C292   C     0.61444   0.50692   0.24116   0.00000  Uiso   1.00
C293   C     0.55535   0.46549   0.01914   0.00000  Uiso   1.00
C294   C     0.51576   0.48114   0.04103   0.00000  Uiso   1.00
C295   C     0.57930   0.44714   0.03857   0.00000  Uiso   1.00
C296   C     0.56658   0.44973   0.07976   0.00000  Uiso   1.00
C297   C     0.50666   0.48669   0.08223   0.00000  Uiso   1.00
C298   C     0.66048   0.50948   0.23741   0.00000  Uiso   1.00
C299   C     0.34041   0.49107   0.26224   0.00000  Uiso   1.00
C300   C     0.43193   0.54898   0.42125   0.00000  Uiso   1.00
C301   C     0.51433   0.65553   0.23804   0.00000  Uiso   1.00
C302   C     0.48494   0.34543   0.26214   0.00000  Uiso   1.00
C303   C     0.48930   0.38945   0.25888   0.00000  Uiso   1.00
C304   C     0.51023   0.61105   0.24132   0.00000  Uiso   1.00
C305   C     0.52171   0.47865   0.14399   0.00000  Uiso   1.00
C306   C     0.47849   0.52086   0.35625   0.00000  Uiso   1.00
C307   C     0.46721   0.52764   0.39957   0.00000  Uiso   1.00
C308   C     0.53122   0.47059   0.10137   0.00000  Uiso   1.00
C309   C     0.41824   0.55042   0.46238   0.00000  Uiso   1.00
C310   C     0.37915   0.56923   0.48316   0.00000  Uiso   1.00
C311   C     0.49075   0.51084   0.41951   0.00000  Uiso   1.00
C312   C     0.48126   0.51664   0.46073   0.00000  Uiso   1.00
C313   C     0.44179   0.53233   0.48224   0.00000  Uiso   1.00
C314   C     0.50775   0.50308   0.48088   0.00000  Uiso   1.00
C315   C     0.48917   0.49520   0.02117   0.00000  Uiso   1.00
C316   C     0.44501   0.50221   0.03974   0.00000  Uiso   1.00
C317   C     0.42456   0.52533   0.02191   0.00000  Uiso   1.00
H318   H     0.39231   0.53307   0.03777   0.00000  Uiso   1.00
H319   H     0.51555   0.49167   0.40271   0.00000  Uiso   1.00
H320   H     0.66619   0.38272   0.02678   0.00000  Uiso   1.00
H321   H     0.41096   0.42196   0.10905   0.00000  Uiso   1.00
H322   H     0.61233   0.51330   0.36044   0.00000  Uiso   1.00
H323   H     0.35032   0.52635   0.21438   0.00000  Uiso   1.00
H324   H     0.65121   0.47429   0.28564   0.00000  Uiso   1.00
H325   H     0.54151   0.33615   0.21584   0.00000  Uiso   1.00
H326   H     0.45739   0.66555   0.28441   0.00000  Uiso   1.00
H327   H     0.48223   0.50589   0.09981   0.00000  Uiso   1.00
H328   H     0.58536   0.43733   0.09519   0.00000  Uiso   1.00
H329   H     0.60506   0.46673   0.46373   0.00000  Uiso   1.00
H330   H     0.41342   0.56226   0.40612   0.00000  Uiso   1.00
N331   N     0.34784   0.58425   0.49977   0.00000  Uiso   1.00
O332   O     0.50000   0.50000   0.25000   0.00000  Uiso   1.00
O333   O     0.49027   0.45726   0.16625   0.00000  Uiso   1.00
O334   O     0.46020   0.53979   0.33749   0.00000  Uiso   1.00
O335   O     0.54421   0.50826   0.15877   0.00000  Uiso   1.00
O336   O     0.50532   0.49468   0.33749   0.00000  Uiso   1.00
O337   O     0.61776   0.39421   0.47804   0.00000  Uiso   1.00
O338   O     0.66321   0.45511   0.49877   0.00000  Uiso   1.00
O339   O     0.63884   0.39367   0.04273   0.00000  Uiso   1.00
O340   O     0.40408   0.50375   0.11732   0.00000  Uiso   1.00
O341   O     0.36640   0.46309   0.07208   0.00000  Uiso   1.00
O342   O     0.42949   0.43166   0.08373   0.00000  Uiso   1.00
O343   O     0.51182   0.41434   0.27821   0.00000  Uiso   1.00
O344   O     0.56846   0.56411   0.42082   0.00000  Uiso   1.00
O345   O     0.63011   0.53810   0.43190   0.00000  Uiso   1.00
O346   O     0.59484   0.49481   0.38061   0.00000  Uiso   1.00
O347   O     0.47914   0.59469   0.26767   0.00000  Uiso   1.00
O348   O     0.40785   0.46584   0.23607   0.00000  Uiso   1.00
O349   O     0.60119   0.52512   0.21806   0.00000  Uiso   1.00
O350   O     0.40323   0.52293   0.27820   0.00000  Uiso   1.00
O351   O     0.58773   0.48610   0.26768   0.00000  Uiso   1.00
O352   O     0.47133   0.40236   0.23607   0.00000  Uiso   1.00
O353   O     0.53771   0.58860   0.21806   0.00000  Uiso   1.00
S354   S     0.62606   0.42232   0.01290   0.00000  Uiso   1.00
S355   S     0.40993   0.47531   0.07952   0.00000  Uiso   1.00
S356   S     0.58698   0.52538   0.42369   0.00000  Uiso   1.00
Zn357  Zn    0.52577   0.47423   0.28278   0.00000  Uiso   1.00
Zn358  Zn    0.46792   0.45711   0.22258   0.00000  Uiso   1.00
Zn359  Zn    0.54500   0.52997   0.21188   0.00000  Uiso   1.00
Zn360  Zn    0.46131   0.53868   0.28277   0.00000  Uiso   1.00
C361   C     0.71916   0.49332   0.25873   0.00000  Uiso   1.00
C362   C     0.88537   0.49686   0.46242   0.00000  Uiso   1.00
C363   C     0.90595   0.47346   0.47974   0.00000  Uiso   1.00
C364   C     0.94777   0.50692   0.24116   0.00000  Uiso   1.00
C365   C     0.88868   0.46549   0.01914   0.00000  Uiso   1.00
C366   C     0.84909   0.48114   0.04103   0.00000  Uiso   1.00
C367   C     0.91264   0.44714   0.03857   0.00000  Uiso   1.00
C368   C     0.89992   0.44973   0.07976   0.00000  Uiso   1.00
C369   C     0.83999   0.48669   0.08223   0.00000  Uiso   1.00
C370   C     0.99381   0.50948   0.23741   0.00000  Uiso   1.00
C371   C     0.67375   0.49107   0.26224   0.00000  Uiso   1.00
C372   C     0.76526   0.54898   0.42125   0.00000  Uiso   1.00
C373   C     0.84767   0.65553   0.23804   0.00000  Uiso   1.00
C374   C     0.81828   0.34543   0.26214   0.00000  Uiso   1.00
C375   C     0.82264   0.38945   0.25888   0.00000  Uiso   1.00
C376   C     0.84357   0.61105   0.24132   0.00000  Uiso   1.00
C377   C     0.85505   0.47865   0.14399   0.00000  Uiso   1.00
C378   C     0.81182   0.52086   0.35625   0.00000  Uiso   1.00
C379   C     0.80054   0.52764   0.39957   0.00000  Uiso   1.00
C380   C     0.86456   0.47059   0.10137   0.00000  Uiso   1.00
C381   C     0.75158   0.55042   0.46238   0.00000  Uiso   1.00
C382   C     0.71248   0.56923   0.48316   0.00000  Uiso   1.00
C383   C     0.82408   0.51084   0.41951   0.00000  Uiso   1.00
C384   C     0.81459   0.51664   0.46073   0.00000  Uiso   1.00
C385   C     0.77513   0.53233   0.48224   0.00000  Uiso   1.00
C386   C     0.84109   0.50308   0.48088   0.00000  Uiso   1.00
C387   C     0.82250   0.49520   0.02117   0.00000  Uiso   1.00
C388   C     0.77835   0.50221   0.03974   0.00000  Uiso   1.00
C389   C     0.75789   0.52533   0.02191   0.00000  Uiso   1.00
H390   H     0.72564   0.53307   0.03777   0.00000  Uiso   1.00
H391   H     0.84888   0.49167   0.40271   0.00000  Uiso   1.00
H392   H     0.99952   0.38272   0.02678   0.00000  Uiso   1.00
H393   H     0.74429   0.42196   0.10905   0.00000  Uiso   1.00
H394   H     0.94567   0.51330   0.36044   0.00000  Uiso   1.00
H395   H     0.68365   0.52635   0.21438   0.00000  Uiso   1.00
H396   H     0.98454   0.47429   0.28564   0.00000  Uiso   1.00
H397   H     0.87484   0.33615   0.21584   0.00000  Uiso   1.00
H398   H     0.79073   0.66555   0.28441   0.00000  Uiso   1.00
H399   H     0.81557   0.50589   0.09981   0.00000  Uiso   1.00
H400   H     0.91869   0.43733   0.09519   0.00000  Uiso   1.00
H401   H     0.93839   0.46673   0.46373   0.00000  Uiso   1.00
H402   H     0.74676   0.56226   0.40612   0.00000  Uiso   1.00
N403   N     0.68117   0.58425   0.49977   0.00000  Uiso   1.00
O404   O     0.83333   0.50000   0.25000   0.00000  Uiso   1.00
O405   O     0.82360   0.45726   0.16625   0.00000  Uiso   1.00
O406   O     0.79354   0.53979   0.33749   0.00000  Uiso   1.00
O407   O     0.87755   0.50826   0.15877   0.00000  Uiso   1.00
O408   O     0.83865   0.49468   0.33749   0.00000  Uiso   1.00
O409   O     0.95109   0.39421   0.47804   0.00000  Uiso   1.00
O410   O     0.99654   0.45511   0.49877   0.00000  Uiso   1.00
O411   O     0.97218   0.39367   0.04273   0.00000  Uiso   1.00
O412   O     0.73741   0.50375   0.11732   0.00000  Uiso   1.00
O413   O     0.69974   0.46309   0.07208   0.00000  Uiso   1.00
O414   O     0.76283   0.43166   0.08373   0.00000  Uiso   1.00
O415   O     0.84515   0.41434   0.27821   0.00000  Uiso   1.00
O416   O     0.90180   0.56411   0.42082   0.00000  Uiso   1.00
O417   O     0.96344   0.53810   0.43190   0.00000  Uiso   1.00
O418   O     0.92817   0.49481   0.38061   0.00000  Uiso   1.00
O419   O     0.81247   0.59469   0.26767   0.00000  Uiso   1.00
O420   O     0.74119   0.46584   0.23607   0.00000  Uiso   1.00
O421   O     0.93452   0.52512   0.21806   0.00000  Uiso   1.00
O422   O     0.73656   0.52293   0.27820   0.00000  Uiso   1.00
O423   O     0.92106   0.48610   0.26768   0.00000  Uiso   1.00
O424   O     0.80467   0.40236   0.23607   0.00000  Uiso   1.00
O425   O     0.87104   0.58860   0.21806   0.00000  Uiso   1.00
S426   S     0.95939   0.42232   0.01290   0.00000  Uiso   1.00
S427   S     0.74327   0.47531   0.07952   0.00000  Uiso   1.00
S428   S     0.92031   0.52538   0.42369   0.00000  Uiso   1.00
Zn429  Zn    0.85910   0.47423   0.28278   0.00000  Uiso   1.00
Zn430  Zn    0.80125   0.45711   0.22258   0.00000  Uiso   1.00
Zn431  Zn    0.87833   0.52997   0.21188   0.00000  Uiso   1.00
Zn432  Zn    0.79465   0.53868   0.28277   0.00000  Uiso   1.00
C433   C     0.05249   0.82666   0.25873   0.00000  Uiso   1.00
C434   C     0.21870   0.83019   0.46242   0.00000  Uiso   1.00
C435   C     0.23928   0.80680   0.47974   0.00000  Uiso   1.00
C436   C     0.28111   0.84025   0.24116   0.00000  Uiso   1.00
C437   C     0.22201   0.79882   0.01914   0.00000  Uiso   1.00
C438   C     0.18243   0.81448   0.04103   0.00000  Uiso   1.00
C439   C     0.24597   0.78047   0.03857   0.00000  Uiso   1.00
C440   C     0.23325   0.78307   0.07976   0.00000  Uiso   1.00
C441   C     0.17333   0.82002   0.08223   0.00000  Uiso   1.00
C442   C     0.32714   0.84281   0.23741   0.00000  Uiso   1.00
C443   C     0.00708   0.82440   0.26224   0.00000  Uiso   1.00
C444   C     0.09859   0.88231   0.42125   0.00000  Uiso   1.00
C445   C     0.18100   0.98886   0.23804   0.00000  Uiso   1.00
C446   C     0.15161   0.67876   0.26214   0.00000  Uiso   1.00
C447   C     0.15597   0.72278   0.25888   0.00000  Uiso   1.00
C448   C     0.17690   0.94438   0.24132   0.00000  Uiso   1.00
C449   C     0.18838   0.81198   0.14399   0.00000  Uiso   1.00
C450   C     0.14516   0.85419   0.35625   0.00000  Uiso   1.00
C451   C     0.13388   0.86097   0.39957   0.00000  Uiso   1.00
C452   C     0.19789   0.80392   0.10137   0.00000  Uiso   1.00
C453   C     0.08491   0.88375   0.46238   0.00000  Uiso   1.00
C454   C     0.04582   0.90256   0.48316   0.00000  Uiso   1.00
C455   C     0.15742   0.84418   0.41951   0.00000  Uiso   1.00
C456   C     0.14792   0.84997   0.46073   0.00000  Uiso   1.00
C457   C     0.10846   0.86566   0.48224   0.00000  Uiso   1.00
C458   C     0.17442   0.83642   0.48088   0.00000  Uiso   1.00
C459   C     0.15584   0.82853   0.02117   0.00000  Uiso   1.00
C460   C     0.11168   0.83555   0.03974   0.00000  Uiso   1.00
C461   C     0.09123   0.85867   0.02191   0.00000  Uiso   1.00
H462   H     0.05898   0.86640   0.03777   0.00000  Uiso   1.00
H463   H     0.18221   0.82501   0.40271   0.00000  Uiso   1.00
H464   H     0.33285   0.71605   0.02678   0.00000  Uiso   1.00
H465   H     0.07763   0.75530   0.10905   0.00000  Uiso   1.00
H466   H     0.27900   0.84663   0.36044   0.00000  Uiso   1.00
H467   H     0.01699   0.85968   0.21438   0.00000  Uiso   1.00
H468   H     0.31787   0.80762   0.28564   0.00000  Uiso   1.00
H469   H     0.20818   0.66948   0.21584   0.00000  Uiso   1.00
H470   H     0.12406   0.99888   0.28441   0.00000  Uiso   1.00
H471   H     0.14890   0.83922   0.09981   0.00000  Uiso   1.00
H472   H     0.25202   0.77066   0.09519   0.00000  Uiso   1.00
H473   H     0.27173   0.80006   0.46373   0.00000  Uiso   1.00
H474   H     0.08009   0.89560   0.40612   0.00000  Uiso   1.00
N475   N     0.01450   0.91758   0.49977   0.00000  Uiso   1.00
O476   O     0.16667   0.83333   0.25000   0.00000  Uiso   1.00
O477   O     0.15693   0.79060   0.16625   0.00000  Uiso   1.00
O478   O     0.12687   0.87313   0.33749   0.00000  Uiso   1.00
O479   O     0.21088   0.84159   0.15877   0.00000  Uiso   1.00
O480   O     0.17198   0.82802   0.33749   0.00000  Uiso   1.00
O481   O     0.28443   0.72754   0.47804   0.00000  Uiso   1.00
O482   O     0.32987   0.78845   0.49877   0.00000  Uiso   1.00
O483   O     0.30551   0.72701   0.04273   0.00000  Uiso   1.00
O484   O     0.07075   0.83708   0.11732   0.00000  Uiso   1.00
O485   O     0.03307   0.79643   0.07208   0.00000  Uiso   1.00
O486   O     0.09616   0.76499   0.08373   0.00000  Uiso   1.00
O487   O     0.17849   0.74768   0.27821   0.00000  Uiso   1.00
O488   O     0.23513   0.89744   0.42082   0.00000  Uiso   1.00
O489   O     0.29677   0.87143   0.43190   0.00000  Uiso   1.00
O490   O     0.26151   0.82815   0.38061   0.00000  Uiso   1.00
O491   O     0.14581   0.92803   0.26767   0.00000  Uiso   1.00
O492   O     0.07452   0.79917   0.23607   0.00000  Uiso   1.00
O493   O     0.26785   0.85845   0.21806   0.00000  Uiso   1.00
O494   O     0.06990   0.85627   0.27820   0.00000  Uiso   1.00
O495   O     0.25440   0.81944   0.26768   0.00000  Uiso   1.00
O496   O     0.13800   0.73570   0.23607   0.00000  Uiso   1.00
O497   O     0.20437   0.92193   0.21806   0.00000  Uiso   1.00
S498   S     0.29273   0.75565   0.01290   0.00000  Uiso   1.00
S499   S     0.07660   0.80864   0.07952   0.00000  Uiso   1.00
S500   S     0.25365   0.85871   0.42369   0.00000  Uiso   1.00
Zn501  Zn    0.19244   0.80756   0.28278   0.00000  Uiso   1.00
Zn502  Zn    0.13459   0.79044   0.22258   0.00000  Uiso   1.00
Zn503  Zn    0.21166   0.86331   0.21188   0.00000  Uiso   1.00
Zn504  Zn    0.12798   0.87202   0.28277   0.00000  Uiso   1.00
C505   C     0.38582   0.82666   0.25873   0.00000  Uiso   1.00
C506   C     0.55204   0.83019   0.46242   0.00000  Uiso   1.00
C507   C     0.57261   0.80680   0.47974   0.00000  Uiso   1.00
C508   C     0.61444   0.84025   0.24116   0.00000  Uiso   1.00
C509   C     0.55535   0.79882   0.01914   0.00000  Uiso   1.00
C510   C     0.51576   0.81448   0.04103   0.00000  Uiso   1.00
C511   C     0.57930   0.78047   0.03857   0.00000  Uiso   1.00
C512   C     0.56658   0.78307   0.07976   0.00000  Uiso   1.00
C513   C     0.50666   0.82002   0.08223   0.00000  Uiso   1.00
C514   C     0.66048   0.84281   0.23741   0.00000  Uiso   1.00
C515   C     0.34041   0.82440   0.26224   0.00000  Uiso   1.00
C516   C     0.43193   0.88231   0.42125   0.00000  Uiso   1.00
C517   C     0.51433   0.98886   0.23804   0.00000  Uiso   1.00
C518   C     0.48494   0.67876   0.26214   0.00000  Uiso   1.00
C519   C     0.48930   0.72278   0.25888   0.00000  Uiso   1.00
C520   C     0.51023   0.94438   0.24132   0.00000  Uiso   1.00
C521   C     0.52171   0.81198   0.14399   0.00000  Uiso   1.00
C522   C     0.47849   0.85419   0.35625   0.00000  Uiso   1.00
C523   C     0.46721   0.86097   0.39957   0.00000  Uiso   1.00
C524   C     0.53122   0.80392   0.10137   0.00000  Uiso   1.00
C525   C     0.41824   0.88375   0.46238   0.00000  Uiso   1.00
C526   C     0.37915   0.90256   0.48316   0.00000  Uiso   1.00
C527   C     0.49075   0.84418   0.41951   0.00000  Uiso   1.00
C528   C     0.48126   0.84997   0.46073   0.00000  Uiso   1.00
C529   C     0.44179   0.86566   0.48224   0.00000  Uiso   1.00
C530   C     0.50775   0.83642   0.48088   0.00000  Uiso   1.00
C531   C     0.48917   0.82853   0.02117   0.00000  Uiso   1.00
C532   C     0.44501   0.83555   0.03974   0.00000  Uiso   1.00
C533   C     0.42456   0.85867   0.02191   0.00000  Uiso   1.00
H534   H     0.39231   0.86640   0.03777   0.00000  Uiso   1.00
H535   H     0.51555   0.82501   0.40271   0.00000  Uiso   1.00
H536   H     0.66619   0.71605   0.02678   0.00000  Uiso   1.00
H537   H     0.41096   0.75530   0.10905   0.00000  Uiso   1.00
H538   H     0.61233   0.84663   0.36044   0.00000  Uiso   1.00
H539   H     0.35032   0.85968   0.21438   0.00000  Uiso   1.00
H540   H     0.65121   0.80762   0.28564   0.00000  Uiso   1.00
H541   H     0.54151   0.66948   0.21584   0.00000  Uiso   1.00
H542   H     0.45739   0.99888   0.28441   0.00000  Uiso   1.00
H543   H     0.48223   0.83922   0.09981   0.00000  Uiso   1.00
H544   H     0.58536   0.77066   0.09519   0.00000  Uiso   1.00
H545   H     0.60506   0.80006   0.46373   0.00000  Uiso   1.00
H546   H     0.41342   0.89560   0.40612   0.00000  Uiso   1.00
N547   N     0.34784   0.91758   0.49977   0.00000  Uiso   1.00
O548   O     0.50000   0.83333   0.25000   0.00000  Uiso   1.00
O549   O     0.49027   0.79060   0.16625   0.00000  Uiso   1.00
O550   O     0.46020   0.87313   0.33749   0.00000  Uiso   1.00
O551   O     0.54421   0.84159   0.15877   0.00000  Uiso   1.00
O552   O     0.50532   0.82802   0.33749   0.00000  Uiso   1.00
O553   O     0.61776   0.72754   0.47804   0.00000  Uiso   1.00
O554   O     0.66321   0.78845   0.49877   0.00000  Uiso   1.00
O555   O     0.63884   0.72701   0.04273   0.00000  Uiso   1.00
O556   O     0.40408   0.83708   0.11732   0.00000  Uiso   1.00
O557   O     0.36640   0.79643   0.07208   0.00000  Uiso   1.00
O558   O     0.42949   0.76499   0.08373   0.00000  Uiso   1.00
O559   O     0.51182   0.74768   0.27821   0.00000  Uiso   1.00
O560   O     0.56846   0.89744   0.42082   0.00000  Uiso   1.00
O561   O     0.63011   0.87143   0.43190   0.00000  Uiso   1.00
O562   O     0.59484   0.82815   0.38061   0.00000  Uiso   1.00
O563   O     0.47914   0.92803   0.26767   0.00000  Uiso   1.00
O564   O     0.40785   0.79917   0.23607   0.00000  Uiso   1.00
O565   O     0.60119   0.85845   0.21806   0.00000  Uiso   1.00
O566   O     0.40323   0.85627   0.27820   0.00000  Uiso   1.00
O567   O     0.58773   0.81944   0.26768   0.00000  Uiso   1.00
O568   O     0.47133   0.73570   0.23607   0.00000  Uiso   1.00
O569   O     0.53771   0.92193   0.21806   0.00000  Uiso   1.00
S570   S     0.62606   0.75565   0.01290   0.00000  Uiso   1.00
S571   S     0.40993   0.80864   0.07952   0.00000  Uiso   1.00
S572   S     0.58698   0.85871   0.42369   0.00000  Uiso   1.00
Zn573  Zn    0.52577   0.80756   0.28278   0.00000  Uiso   1.00
Zn574  Zn    0.46792   0.79044   0.22258   0.00000  Uiso   1.00
Zn575  Zn    0.54500   0.86331   0.21188   0.00000  Uiso   1.00
Zn576  Zn    0.46131   0.87202   0.28277   0.00000  Uiso   1.00
C577   C     0.71916   0.82666   0.25873   0.00000  Uiso   1.00
C578   C     0.88537   0.83019   0.46242   0.00000  Uiso   1.00
C579   C     0.90595   0.80680   0.47974   0.00000  Uiso   1.00
C580   C     0.94777   0.84025   0.24116   0.00000  Uiso   1.00
C581   C     0.88868   0.79882   0.01914   0.00000  Uiso   1.00
C582   C     0.84909   0.81448   0.04103   0.00000  Uiso   1.00
C583   C     0.91264   0.78047   0.03857   0.00000  Uiso   1.00
C584   C     0.89992   0.78307   0.07976   0.00000  Uiso   1.00
C585   C     0.83999   0.82002   0.08223   0.00000  Uiso   1.00
C586   C     0.99381   0.84281   0.23741   0.00000  Uiso   1.00
C587   C     0.67375   0.82440   0.26224   0.00000  Uiso   1.00
C588   C     0.76526   0.88231   0.42125   0.00000  Uiso   1.00
C589   C     0.84767   0.98886   0.23804   0.00000  Uiso   1.00
C590   C     0.81828   0.67876   0.26214   0.00000  Uiso   1.00
C591   C     0.82264   0.72278   0.25888   0.00000  Uiso   1.00
C592   C     0.84357   0.94438   0.24132   0.00000  Uiso   1.00
C593   C     0.85505   0.81198   0.14399   0.00000  Uiso   1.00
C594   C     0.81182   0.85419   0.35625   0.00000  Uiso   1.00
C595   C     0.80054   0.86097   0.39957   0.00000  Uiso   1.00
C596   C     0.86456   0.80392   0.10137   0.00000  Uiso   1.00
C597   C     0.75158   0.88375   0.46238   0.00000  Uiso   1.00
C598   C     0.71248   0.90256   0.48316   0.00000  Uiso   1.00
C599   C     0.82408   0.84418   0.41951   0.00000  Uiso   1.00
C600   C     0.81459   0.84997   0.46073   0.00000  Uiso   1.00
C601   C     0.77513   0.86566   0.48224   0.00000  Uiso   1.00
C602   C     0.84109   0.83642   0.48088   0.00000  Uiso   1.00
C603   C     0.82250   0.82853   0.02117   0.00000  Uiso   1.00
C604   C     0.77835   0.83555   0.03974   0.00000  Uiso   1.00
C605   C     0.75789   0.85867   0.02191   0.00000  Uiso   1.00
H606   H     0.72564   0.86640   0.03777   0.00000  Uiso   1.00
H607   H     0.84888   0.82501   0.40271   0.00000  Uiso   1.00
H608   H     0.99952   0.71605   0.02678   0.00000  Uiso   1.00
H609   H     0.74429   0.75530   0.10905   0.00000  Uiso   1.00
H610   H     0.94567   0.84663   0.36044   0.00000  Uiso   1.00
H611   H     0.68365   0.85968   0.21438   0.00000  Uiso   1.00
H612   H     0.98454   0.80762   0.28564   0.00000  Uiso   1.00
H613   H     0.87484   0.66948   0.21584   0.00000  Uiso   1.00
H614   H     0.79073   0.99888   0.28441   0.00000  Uiso   1.00
H615   H     0.81557   0.83922   0.09981   0.00000  Uiso   1.00
H616   H     0.91869   0.77066   0.09519   0.00000  Uiso   1.00
H617   H     0.93839   0.80006   0.46373   0.00000  Uiso   1.00
H618   H     0.74676   0.89560   0.40612   0.00000  Uiso   1.00
N619   N     0.68117   0.91758   0.49977   0.00000  Uiso   1.00
O620   O     0.83333   0.83333   0.25000   0.00000  Uiso   1.00
O621   O     0.82360   0.79060   0.16625   0.00000  Uiso   1.00
O622   O     0.79354   0.87313   0.33749   0.00000  Uiso   1.00
O623   O     0.87755   0.84159   0.15877   0.00000  Uiso   1.00
O624   O     0.83865   0.82802   0.33749   0.00000  Uiso   1.00
O625   O     0.95109   0.72754   0.47804   0.00000  Uiso   1.00
O626   O     0.99654   0.78845   0.49877   0.00000  Uiso   1.00
O627   O     0.97218   0.72701   0.04273   0.00000  Uiso   1.00
O628   O     0.73741   0.83708   0.11732   0.00000  Uiso   1.00
O629   O     0.69974   0.79643   0.07208   0.00000  Uiso   1.00
O630   O     0.76283   0.76499   0.08373   0.00000  Uiso   1.00
O631   O     0.84515   0.74768   0.27821   0.00000  Uiso   1.00
O632   O     0.90180   0.89744   0.42082   0.00000  Uiso   1.00
O633   O     0.96344   0.87143   0.43190   0.00000  Uiso   1.00
O634   O     0.92817   0.82815   0.38061   0.00000  Uiso   1.00
O635   O     0.81247   0.92803   0.26767   0.00000  Uiso   1.00
O636   O     0.74119   0.79917   0.23607   0.00000  Uiso   1.00
O637   O     0.93452   0.85845   0.21806   0.00000  Uiso   1.00
O638   O     0.73656   0.85627   0.27820   0.00000  Uiso   1.00
O639   O     0.92106   0.81944   0.26768   0.00000  Uiso   1.00
O640   O     0.80467   0.73570   0.23607   0.00000  Uiso   1.00
O641   O     0.87104   0.92193   0.21806   0.00000  Uiso   1.00
S642   S     0.95939   0.75565   0.01290   0.00000  Uiso   1.00
S643   S     0.74327   0.80864   0.07952   0.00000  Uiso   1.00
S644   S     0.92031   0.85871   0.42369   0.00000  Uiso   1.00
Zn645  Zn    0.85910   0.80756   0.28278   0.00000  Uiso   1.00
Zn646  Zn    0.80125   0.79044   0.22258   0.00000  Uiso   1.00
Zn647  Zn    0.87833   0.86331   0.21188   0.00000  Uiso   1.00
Zn648  Zn    0.79465   0.87202   0.28277   0.00000  Uiso   1.00
C649   C     0.05249   0.15999   0.75873   0.00000  Uiso   1.00
C650   C     0.21870   0.16353   0.96242   0.00000  Uiso   1.00
C651   C     0.23928   0.14013   0.97974   0.00000  Uiso   1.00
C652   C     0.28111   0.17358   0.74116   0.00000  Uiso   1.00
C653   C     0.22201   0.13215   0.51914   0.00000  Uiso   1.00
C654   C     0.18243   0.14781   0.54103   0.00000  Uiso   1.00
C655   C     0.24597   0.11381   0.53857   0.00000  Uiso   1.00
C656   C     0.23325   0.11640   0.57976   0.00000  Uiso   1.00
C657   C     0.17333   0.15336   0.58223   0.00000  Uiso   1.00
C658   C     0.32714   0.17615   0.73741   0.00000  Uiso   1.00
C659   C     0.00708   0.15773   0.76224   0.00000  Uiso   1.00
C660   C     0.09859   0.21564   0.92125   0.00000  Uiso   1.00
C661   C     0.18100   0.32220   0.73804   0.00000  Uiso   1.00
C662   C     0.15161   0.01209   0.76214   0.00000  Uiso   1.00
C663   C     0.15597   0.05612   0.75888   0.00000  Uiso   1.00
C664   C     0.17690   0.27771   0.74132   0.00000  Uiso   1.00
C665   C     0.18838   0.14532   0.64399   0.00000  Uiso   1.00
C666   C     0.14516   0.18752   0.85625   0.00000  Uiso   1.00
C667   C     0.13388   0.19430   0.89957   0.00000  Uiso   1.00
C668   C     0.19789   0.13726   0.60137   0.00000  Uiso   1.00
C669   C     0.08491   0.21709   0.96238   0.00000  Uiso   1.00
C670   C     0.04582   0.23589   0.98316   0.00000  Uiso   1.00
C671   C     0.15742   0.17751   0.91951   0.00000  Uiso   1.00
C672   C     0.14792   0.18331   0.96073   0.00000  Uiso   1.00
C673   C     0.10846   0.19899   0.98224   0.00000  Uiso   1.00
C674   C     0.17442   0.16975   0.98088   0.00000  Uiso   1.00
C675   C     0.15584   0.16187   0.52117   0.00000  Uiso   1.00
C676   C     0.11168   0.16888   0.53974   0.00000  Uiso   1.00
C677   C     0.09123   0.19200   0.52191   0.00000  Uiso   1.00
H678   H     0.05898   0.19973   0.53777   0.00000  Uiso   1.00
H679   H     0.18221   0.15834   0.90271   0.00000  Uiso   1.00
H680   H     0.33285   0.04939   0.52678   0.00000  Uiso   1.00
H681   H     0.07763   0.08863   0.60905   0.00000  Uiso   1.00
H682   H     0.27900   0.17996   0.86044   0.00000  Uiso   1.00
H683   H     0.01699   0.19302   0.71438   0.00000  Uiso   1.00
H684   H     0.31787   0.14095   0.78564   0.00000  Uiso   1.00
H685   H     0.20818   0.00282   0.71584   0.00000  Uiso   1.00
H686   H     0.12406   0.33222   0.78441   0.00000  Uiso   1.00
H687   H     0.14890   0.17255   0.59981   0.00000  Uiso   1.00
H688   H     0.25202   0.10400   0.59519   0.00000  Uiso   1.00
H689   H     0.27173   0.13339   0.96373   0.00000  Uiso   1.00
H690   H     0.08009   0.22893   0.90612   0.00000  Uiso   1.00
N691   N     0.01450   0.25091   0.99977   0.00000  Uiso   1.00
O692   O     0.16667   0.16667   0.75000   0.00000  Uiso   1.00
O693   O     0.15693   0.12393   0.66625   0.00000  Uiso   1.00
O694   O     0.12687   0.20646   0.83749   0.00000  Uiso   1.00
O695   O     0.21088   0.17493   0.65877   0.00000  Uiso   1.00
O696   O     0.17198   0.16135   0.83749   0.00000  Uiso   1.00
O697   O     0.28443   0.06087   0.97804   0.00000  Uiso   1.00
O698   O     0.32987   0.12178   0.99877   0.00000  Uiso   1.00
O699   O     0.30551   0.06034   0.54273   0.00000  Uiso   1.00
O700   O     0.07075   0.17042   0.61732   0.00000  Uiso   1.00
O701   O     0.03307   0.12976   0.57208   0.00000  Uiso   1.00
O702   O     0.09616   0.09832   0.58373   0.00000  Uiso   1.00
O703   O     0.17849   0.08101   0.77821   0.00000  Uiso   1.00
O704   O     0.23513   0.23077   0.92082   0.00000  Uiso   1.00
O705   O     0.29677   0.20477   0.93190   0.00000  Uiso   1.00
O706   O     0.26151   0.16148   0.88061   0.00000  Uiso   1.00
O707   O     0.14581   0.26136   0.76767   0.00000  Uiso   1.00
O708   O     0.07452   0.13251   0.73607   0.00000  Uiso   1.00
O709   O     0.26785   0.19179   0.71806   0.00000  Uiso   1.00
O710   O     0.06990   0.18960   0.77820   0.00000  Uiso   1.00
O711   O     0.25440   0.15277   0.76768   0.00000  Uiso   1.00
O712   O     0.13800   0.06903   0.73607   0.00000  Uiso   1.00
O713   O     0.20437   0.25527   0.71806   0.00000  Uiso   1.00
S714   S     0.29273   0.08899   0.51290   0.00000  Uiso   1.00
S715   S     0.07660   0.14198   0.57952   0.00000  Uiso   1.00
S716   S     0.25365   0.19205   0.92369   0.00000  Uiso   1.00
Zn717  Zn    0.19244   0.14090   0.78278   0.00000  Uiso   1.00
Zn718  Zn    0.13459   0.12378   0.72258   0.00000  Uiso   1.00
Zn719  Zn    0.21166   0.19664   0.71188   0.00000  Uiso   1.00
Zn720  Zn    0.12798   0.20535   0.78277   0.00000  Uiso   1.00
C721   C     0.38582   0.15999   0.75873   0.00000  Uiso   1.00
C722   C     0.55204   0.16353   0.96242   0.00000  Uiso   1.00
C723   C     0.57261   0.14013   0.97974   0.00000  Uiso   1.00
C724   C     0.61444   0.17358   0.74116   0.00000  Uiso   1.00
C725   C     0.55535   0.13215   0.51914   0.00000  Uiso   1.00
C726   C     0.51576   0.14781   0.54103   0.00000  Uiso   1.00
C727   C     0.57930   0.11381   0.53857   0.00000  Uiso   1.00
C728   C     0.56658   0.11640   0.57976   0.00000  Uiso   1.00
C729   C     0.50666   0.15336   0.58223   0.00000  Uiso   1.00
C730   C     0.66048   0.17615   0.73741   0.00000  Uiso   1.00
C731   C     0.34041   0.15773   0.76224   0.00000  Uiso   1.00
C732   C     0.43193   0.21564   0.92125   0.00000  Uiso   1.00
C733   C     0.51433   0.32220   0.73804   0.00000  Uiso   1.00
C734   C     0.48494   0.01209   0.76214   0.00000  Uiso   1.00
C735   C     0.48930   0.05612   0.75888   0.00000  Uiso   1.00
C736   C     0.51023   0.27771   0.74132   0.00000  Uiso   1.00
C737   C     0.52171   0.14532   0.64399   0.00000  Uiso   1.00
C738   C     0.47849   0.18752   0.85625   0.00000  Uiso   1.00
C739   C     0.46721   0.19430   0.89957   0.00000  Uiso   1.00
C740   C     0.53122   0.13726   0.60137   0.00000  Uiso   1.00
C741   C     0.41824   0.21709   0.96238   0.00000  Uiso   1.00
C742   C     0.37915   0.23589   0.98316   0.00000  Uiso   1.00
C743   C     0.49075   0.17751   0.91951   0.00000  Uiso   1.00
C744   C     0.48126   0.18331   0.96073   0.00000  Uiso   1.00
C745   C     0.44179   0.19899   0.98224   0.00000  Uiso   1.00
C746   C     0.50775   0.16975   0.98088   0.00000  Uiso   1.00
C747   C     0.48917   0.16187   0.52117   0.00000  Uiso   1.00
C748   C     0.44501   0.16888   0.53974   0.00000  Uiso   1.00
C749   C     0.42456   0.19200   0.52191   0.00000  Uiso   1.00
H750   H     0.39231   0.19973   0.53777   0.00000  Uiso   1.00
H751   H     0.51555   0.15834   0.90271   0.00000  Uiso   1.00
H752   H     0.66619   0.04939   0.52678   0.00000  Uiso   1.00
H753   H     0.41096   0.08863   0.60905   0.00000  Uiso   1.00
H754   H     0.61233   0.17996   0.86044   0.00000  Uiso   1.00
H755   H     0.35032   0.19302   0.71438   0.00000  Uiso   1.00
H756   H     0.65121   0.14095   0.78564   0.00000  Uiso   1.00
H757   H     0.54151   0.00282   0.71584   0.00000  Uiso   1.00
H758   H     0.45739   0.33222   0.78441   0.00000  Uiso   1.00
H759   H     0.48223   0.17255   0.59981   0.00000  Uiso   1.00
H760   H     0.58536   0.10400   0.59519   0.00000  Uiso   1.00
H761   H     0.60506   0.13339   0.96373   0.00000  Uiso   1.00
H762   H     0.41342   0.22893   0.90612   0.00000  Uiso   1.00
N763   N     0.34784   0.25091   0.99977   0.00000  Uiso   1.00
O764   O     0.50000   0.16667   0.75000   0.00000  Uiso   1.00
O765   O     0.49027   0.12393   0.66625   0.00000  Uiso   1.00
O766   O     0.46020   0.20646   0.83749   0.00000  Uiso   1.00
O767   O     0.54421   0.17493   0.65877   0.00000  Uiso   1.00
O768   O     0.50532   0.16135   0.83749   0.00000  Uiso   1.00
O769   O     0.61776   0.06087   0.97804   0.00000  Uiso   1.00
O770   O     0.66321   0.12178   0.99877   0.00000  Uiso   1.00
O771   O     0.63884   0.06034   0.54273   0.00000  Uiso   1.00
O772   O     0.40408   0.17042   0.61732   0.00000  Uiso   1.00
O773   O     0.36640   0.12976   0.57208   0.00000  Uiso   1.00
O774   O     0.42949   0.09832   0.58373   0.00000  Uiso   1.00
O775   O     0.51182   0.08101   0.77821   0.00000  Uiso   1.00
O776   O     0.56846   0.23077   0.92082   0.00000  Uiso   1.00
O777   O     0.63011   0.20477   0.93190   0.00000  Uiso   1.00
O778   O     0.59484   0.16148   0.88061   0.00000  Uiso   1.00
O779   O     0.47914   0.26136   0.76767   0.00000  Uiso   1.00
O780   O     0.40785   0.13251   0.73607   0.00000  Uiso   1.00
O781   O     0.60119   0.19179   0.71806   0.00000  Uiso   1.00
O782   O     0.40323   0.18960   0.77820   0.00000  Uiso   1.00
O783   O     0.58773   0.15277   0.76768   0.00000  Uiso   1.00
O784   O     0.47133   0.06903   0.73607   0.00000  Uiso   1.00
O785   O     0.53771   0.25527   0.71806   0.00000  Uiso   1.00
S786   S     0.62606   0.08899   0.51290   0.00000  Uiso   1.00
S787   S     0.40993   0.14198   0.57952   0.00000  Uiso   1.00
S788   S     0.58698   0.19205   0.92369   0.00000  Uiso   1.00
Zn789  Zn    0.52577   0.14090   0.78278   0.00000  Uiso   1.00
Zn790  Zn    0.46792   0.12378   0.72258   0.00000  Uiso   1.00
Zn791  Zn    0.54500   0.19664   0.71188   0.00000  Uiso   1.00
Zn792  Zn    0.46131   0.20535   0.78277   0.00000  Uiso   1.00
C793   C     0.71916   0.15999   0.75873   0.00000  Uiso   1.00
C794   C     0.88537   0.16353   0.96242   0.00000  Uiso   1.00
C795   C     0.90595   0.14013   0.97974   0.00000  Uiso   1.00
C796   C     0.94777   0.17358   0.74116   0.00000  Uiso   1.00
C797   C     0.88868   0.13215   0.51914   0.00000  Uiso   1.00
C798   C     0.84909   0.14781   0.54103   0.00000  Uiso   1.00
C799   C     0.91264   0.11381   0.53857   0.00000  Uiso   1.00
C800   C     0.89992   0.11640   0.57976   0.00000  Uiso   1.00
C801   C     0.83999   0.15336   0.58223   0.00000  Uiso   1.00
C802   C     0.99381   0.17615   0.73741   0.00000  Uiso   1.00
C803   C     0.67375   0.15773   0.76224   0.00000  Uiso   1.00
C804   C     0.76526   0.21564   0.92125   0.00000  Uiso   1.00
C805   C     0.84767   0.32220   0.73804   0.00000  Uiso   1.00
C806   C     0.81828   0.01209   0.76214   0.00000  Uiso   1.00
C807   C     0.82264   0.05612   0.75888   0.00000  Uiso   1.00
C808   C     0.84357   0.27771   0.74132   0.00000  Uiso   1.00
C809   C     0.85505   0.14532   0.64399   0.00000  Uiso   1.00
C810   C     0.81182   0.18752   0.85625   0.00000  Uiso   1.00
C811   C     0.80054   0.19430   0.89957   0.00000  Uiso   1.00
C812   C     0.86456   0.13726   0.60137   0.00000  Uiso   1.00
C813   C     0.75158   0.21709   0.96238   0.00000  Uiso   1.00
C814   C     0.71248   0.23589   0.98316   0.00000  Uiso   1.00
C815   C     0.82408   0.17751   0.91951   0.00000  Uiso   1.00
C816   C     0.81459   0.18331   0.96073   0.00000  Uiso   1.00
C817   C     0.77513   0.19899   0.98224   0.00000  Uiso   1.00
C818   C     0.84109   0.16975   0.98088   0.00000  Uiso   1.00
C819   C     0.82250   0.16187   0.52117   0.00000  Uiso   1.00
C820   C     0.77835   0.16888   0.53974   0.00000  Uiso   1.00
C821   C     0.75789   0.19200   0.52191   0.00000  Uiso   1.00
H822   H     0.72564   0.19973   0.53777   0.00000  Uiso   1.00
H823   H     0.84888   0.15834   0.90271   0.00000  Uiso   1.00
H824   H     0.99952   0.04939   0.52678   0.00000  Uiso   1.00
H825   H     0.74429   0.08863   0.60905   0.00000  Uiso   1.00
H826   H     0.94567   0.17996   0.86044   0.00000  Uiso   1.00
H827   H     0.68365   0.19302   0.71438   0.00000  Uiso   1.00
H828   H     0.98454   0.14095   0.78564   0.00000  Uiso   1.00
H829   H     0.87484   0.00282   0.71584   0.00000  Uiso   1.00
H830   H     0.79073   0.33222   0.78441   0.00000  Uiso   1.00
H831   H     0.81557   0.17255   0.59981   0.00000  Uiso   1.00
H832   H     0.91869   0.10400   0.59519   0.00000  Uiso   1.00
H833   H     0.93839   0.13339   0.96373   0.00000  Uiso   1.00
H834   H     0.74676   0.22893   0.90612   0.00000  Uiso   1.00
N835   N     0.68117   0.25091   0.99977   0.00000  Uiso   1.00
O836   O     0.83333   0.16667   0.75000   0.00000  Uiso   1.00
O837   O     0.82360   0.12393   0.66625   0.00000  Uiso   1.00
O838   O     0.79354   0.20646   0.83749   0.00000  Uiso   1.00
O839   O     0.87755   0.17493   0.65877   0.00000  Uiso   1.00
O840   O     0.83865   0.16135   0.83749   0.00000  Uiso   1.00
O841   O     0.95109   0.06087   0.97804   0.00000  Uiso   1.00
O842   O     0.99654   0.12178   0.99877   0.00000  Uiso   1.00
O843   O     0.97218   0.06034   0.54273   0.00000  Uiso   1.00
O844   O     0.73741   0.17042   0.61732   0.00000  Uiso   1.00
O845   O     0.69974   0.12976   0.57208   0.00000  Uiso   1.00
O846   O     0.76283   0.09832   0.58373   0.00000  Uiso   1.00
O847   O     0.84515   0.08101   0.77821   0.00000  Uiso   1.00
O848   O     0.90180   0.23077   0.92082   0.00000  Uiso   1.00
O849   O     0.96344   0.20477   0.93190   0.00000  Uiso   1.00
O850   O     0.92817   0.16148   0.88061   0.00000  Uiso   1.00
O851   O     0.81247   0.26136   0.76767   0.00000  Uiso   1.00
O852   O     0.74119   0.13251   0.73607   0.00000  Uiso   1.00
O853   O     0.93452   0.19179   0.71806   0.00000  Uiso   1.00
O854   O     0.73656   0.18960   0.77820   0.00000  Uiso   1.00
O855   O     0.92106   0.15277   0.76768   0.00000  Uiso   1.00
O856   O     0.80467   0.06903   0.73607   0.00000  Uiso   1.00
O857   O     0.87104   0.25527   0.71806   0.00000  Uiso   1.00
S858   S     0.95939   0.08899   0.51290   0.00000  Uiso   1.00
S859   S     0.74327   0.14198   0.57952   0.00000  Uiso   1.00
S860   S     0.92031   0.19205   0.92369   0.00000  Uiso   1.00
Zn861  Zn    0.85910   0.14090   0.78278   0.00000  Uiso   1.00
Zn862  Zn    0.80125   0.12378   0.72258   0.00000  Uiso   1.00
Zn863  Zn    0.87833   0.19664   0.71188   0.00000  Uiso   1.00
Zn864  Zn    0.79465   0.20535   0.78277   0.00000  Uiso   1.00
C865   C     0.05249   0.49332   0.75873   0.00000  Uiso   1.00
C866   C     0.21870   0.49686   0.96242   0.00000  Uiso   1.00
C867   C     0.23928   0.47346   0.97974   0.00000  Uiso   1.00
C868   C     0.28111   0.50692   0.74116   0.00000  Uiso   1.00
C869   C     0.22201   0.46549   0.51914   0.00000  Uiso   1.00
C870   C     0.18243   0.48114   0.54103   0.00000  Uiso   1.00
C871   C     0.24597   0.44714   0.53857   0.00000  Uiso   1.00
C872   C     0.23325   0.44973   0.57976   0.00000  Uiso   1.00
C873   C     0.17333   0.48669   0.58223   0.00000  Uiso   1.00
C874   C     0.32714   0.50948   0.73741   0.00000  Uiso   1.00
C875   C     0.00708   0.49107   0.76224   0.00000  Uiso   1.00
C876   C     0.09859   0.54898   0.92125   0.00000  Uiso   1.00
C877   C     0.18100   0.65553   0.73804   0.00000  Uiso   1.00
C878   C     0.15161   0.34543   0.76214   0.00000  Uiso   1.00
C879   C     0.15597   0.38945   0.75888   0.00000  Uiso   1.00
C880   C     0.17690   0.61105   0.74132   0.00000  Uiso   1.00
C881   C     0.18838   0.47865   0.64399   0.00000  Uiso   1.00
C882   C     0.14516   0.52086   0.85625   0.00000  Uiso   1.00
C883   C     0.13388   0.52764   0.89957   0.00000  Uiso   1.00
C884   C     0.19789   0.47059   0.60137   0.00000  Uiso   1.00
C885   C     0.08491   0.55042   0.96238   0.00000  Uiso   1.00
C886   C     0.04582   0.56923   0.98316   0.00000  Uiso   1.00
C887   C     0.15742   0.51084   0.91951   0.00000  Uiso   1.00
C888   C     0.14792   0.51664   0.96073   0.00000  Uiso   1.00
C889   C     0.10846   0.53233   0.98224   0.00000  Uiso   1.00
C890   C     0.17442   0.50308   0.98088   0.00000  Uiso   1.00
C891   C     0.15584   0.49520   0.52117   0.00000  Uiso   1.00
C892   C     0.11168   0.50221   0.53974   0.00000  Uiso   1.00
C893   C     0.09123   0.52533   0.52191   0.00000  Uiso   1.00
H894   H     0.05898   0.53307   0.53777   0.00000  Uiso   1.00
H895   H     0.18221   0.49167   0.90271   0.00000  Uiso   1.00
H896   H     0.33285   0.38272   0.52678   0.00000  Uiso   1.00
H897   H     0.07763   0.42196   0.60905   0.00000  Uiso   1.00
H898   H     0.27900   0.51330   0.86044   0.00000  Uiso   1.00
H899   H     0.01699   0.52635   0.71438   0.00000  Uiso   1.00
H900   H     0.31787   0.47429   0.78564   0.00000  Uiso   1.00
H901   H     0.20818   0.33615   0.71584   0.00000  Uiso   1.00
H902   H     0.12406   0.66555   0.78441   0.00000  Uiso   1.00
H903   H     0.14890   0.50589   0.59981   0.00000  Uiso   1.00
H904   H     0.25202   0.43733   0.59519   0.00000  Uiso   1.00
H905   H     0.27173   0.46673   0.96373   0.00000  Uiso   1.00
H906   H     0.08009   0.56226   0.90612   0.00000  Uiso   1.00
N907   N     0.01450   0.58425   0.99977   0.00000  Uiso   1.00
O908   O     0.16667   0.50000   0.75000   0.00000  Uiso   1.00
O909   O     0.15693   0.45726   0.66625   0.00000  Uiso   1.00
O910   O     0.12687   0.53979   0.83749   0.00000  Uiso   1.00
O911   O     0.21088   0.50826   0.65877   0.00000  Uiso   1.00
O912   O     0.17198   0.49468   0.83749   0.00000  Uiso   1.00
O913   O     0.28443   0.39421   0.97804   0.00000  Uiso   1.00
O914   O     0.32987   0.45511   0.99877   0.00000  Uiso   1.00
O915   O     0.30551   0.39367   0.54273   0.00000  Uiso   1.00
O916   O     0.07075   0.50375   0.61732   0.00000  Uiso   1.00
O917   O     0.03307   0.46309   0.57208   0.00000  Uiso   1.00
O918   O     0.09616   0.43166   0.58373   0.00000  Uiso   1.00
O919   O     0.17849   0.41434   0.77821   0.00000  Uiso   1.00
O920   O     0.23513   0.56411   0.92082   0.00000  Uiso   1.00
O921   O     0.29677   0.53810   0.93190   0.00000  Uiso   1.00
O922   O     0.26151   0.49481   0.88061   0.00000  Uiso   1.00
O923   O     0.14581   0.59469   0.76767   0.00000  Uiso   1.00
O924   O     0.07452   0.46584   0.73607   0.00000  Uiso   1.00
O925   O     0.26785   0.52512   0.71806   0.00000  Uiso   1.00
O926   O     0.06990   0.52293   0.77820   0.00000  Uiso   1.00
O927   O     0.25440   0.48610   0.76768   0.00000  Uiso   1.00
O928   O     0.13800   0.40236   0.73607   0.00000  Uiso   1.00
O929   O     0.20437   0.58860   0.71806   0.00000  Uiso   1.00
S930   S     0.29273   0.42232   0.51290   0.00000  Uiso   1.00
S931   S     0.07660   0.47531   0.57952   0.00000  Uiso   1.00
S932   S     0.25365   0.52538   0.92369   0.00000  Uiso   1.00
Zn933  Zn    0.19244   0.47423   0.78278   0.00000  Uiso   1.00
Zn934  Zn    0.13459   0.45711   0.72258   0.00000  Uiso   1.00
Zn935  Zn    0.21166   0.52997   0.71188   0.00000  Uiso   1.00
Zn936  Zn    0.12798   0.53868   0.78277   0.00000  Uiso   1.00
C937   C     0.38582   0.49332   0.75873   0.00000  Uiso   1.00
C938   C     0.55204   0.49686   0.96242   0.00000  Uiso   1.00
C939   C     0.57261   0.47346   0.97974   0.00000  Uiso   1.00
C940   C     0.61444   0.50692   0.74116   0.00000  Uiso   1.00
C941   C     0.55535   0.46549   0.51914   0.00000  Uiso   1.00
C942   C     0.51576   0.48114   0.54103   0.00000  Uiso   1.00
C943   C     0.57930   0.44714   0.53857   0.00000  Uiso   1.00
C944   C     0.56658   0.44973   0.57976   0.00000  Uiso   1.00
C945   C     0.50666   0.48669   0.58223   0.00000  Uiso   1.00
C946   C     0.66048   0.50948   0.73741   0.00000  Uiso   1.00
C947   C     0.34041   0.49107   0.76224   0.00000  Uiso   1.00
C948   C     0.43193   0.54898   0.92125   0.00000  Uiso   1.00
C949   C     0.51433   0.65553   0.73804   0.00000  Uiso   1.00
C950   C     0.48494   0.34543   0.76214   0.00000  Uiso   1.00
C951   C     0.48930   0.38945   0.75888   0.00000  Uiso   1.00
C952   C     0.51023   0.61105   0.74132   0.00000  Uiso   1.00
C953   C     0.52171   0.47865   0.64399   0.00000  Uiso   1.00
C954   C     0.47849   0.52086   0.85625   0.00000  Uiso   1.00
C955   C     0.46721   0.52764   0.89957   0.00000  Uiso   1.00
C956   C     0.53122   0.47059   0.60137   0.00000  Uiso   1.00
C957   C     0.41824   0.55042   0.96238   0.00000  Uiso   1.00
C958   C     0.37915   0.56923   0.98316   0.00000  Uiso   1.00
C959   C     0.49075   0.51084   0.91951   0.00000  Uiso   1.00
C960   C     0.48126   0.51664   0.96073   0.00000  Uiso   1.00
C961   C     0.44179   0.53233   0.98224   0.00000  Uiso   1.00
C962   C     0.50775   0.50308   0.98088   0.00000  Uiso   1.00
C963   C     0.48917   0.49520   0.52117   0.00000  Uiso   1.00
C964   C     0.44501   0.50221   0.53974   0.00000  Uiso   1.00
C965   C     0.42456   0.52533   0.52191   0.00000  Uiso   1.00
H966   H     0.39231   0.53307   0.53777   0.00000  Uiso   1.00
H967   H     0.51555   0.49167   0.90271   0.00000  Uiso   1.00
H968   H     0.66619   0.38272   0.52678   0.00000  Uiso   1.00
H969   H     0.41096   0.42196   0.60905   0.00000  Uiso   1.00
H970   H     0.61233   0.51330   0.86044   0.00000  Uiso   1.00
H971   H     0.35032   0.52635   0.71438   0.00000  Uiso   1.00
H972   H     0.65121   0.47429   0.78564   0.00000  Uiso   1.00
H973   H     0.54151   0.33615   0.71584   0.00000  Uiso   1.00
H974   H     0.45739   0.66555   0.78441   0.00000  Uiso   1.00
H975   H     0.48223   0.50589   0.59981   0.00000  Uiso   1.00
H976   H     0.58536   0.43733   0.59519   0.00000  Uiso   1.00
H977   H     0.60506   0.46673   0.96373   0.00000  Uiso   1.00
H978   H     0.41342   0.56226   0.90612   0.00000  Uiso   1.00
N979   N     0.34784   0.58425   0.99977   0.00000  Uiso   1.00
O980   O     0.50000   0.50000   0.75000   0.00000  Uiso   1.00
O981   O     0.49027   0.45726   0.66625   0.00000  Uiso   1.00
O982   O     0.46020   0.53979   0.83749   0.00000  Uiso   1.00
O983   O     0.54421   0.50826   0.65877   0.00000  Uiso   1.00
O984   O     0.50532   0.49468   0.83749   0.00000  Uiso   1.00
O985   O     0.61776   0.39421   0.97804   0.00000  Uiso   1.00
O986   O     0.66321   0.45511   0.99877   0.00000  Uiso   1.00
O987   O     0.63884   0.39367   0.54273   0.00000  Uiso   1.00
O988   O     0.40408   0.50375   0.61732   0.00000  Uiso   1.00
O989   O     0.36640   0.46309   0.57208   0.00000  Uiso   1.00
O990   O     0.42949   0.43166   0.58373   0.00000  Uiso   1.00
O991   O     0.51182   0.41434   0.77821   0.00000  Uiso   1.00
O992   O     0.56846   0.56411   0.92082   0.00000  Uiso   1.00
O993   O     0.63011   0.53810   0.93190   0.00000  Uiso   1.00
O994   O     0.59484   0.49481   0.88061   0.00000  Uiso   1.00
O995   O     0.47914   0.59469   0.76767   0.00000  Uiso   1.00
O996   O     0.40785   0.46584   0.73607   0.00000  Uiso   1.00
O997   O     0.60119   0.52512   0.71806   0.00000  Uiso   1.00
O998   O     0.40323   0.52293   0.77820   0.00000  Uiso   1.00
O999   O     0.58773   0.48610   0.76768   0.00000  Uiso   1.00
O1000  O     0.47133   0.40236   0.73607   0.00000  Uiso   1.00
O1001  O     0.53771   0.58860   0.71806   0.00000  Uiso   1.00
S1002  S     0.62606   0.42232   0.51290   0.00000  Uiso   1.00
S1003  S     0.40993   0.47531   0.57952   0.00000  Uiso   1.00
S1004  S     0.58698   0.52538   0.92369   0.00000  Uiso   1.00
Zn1005 Zn    0.52577   0.47423   0.78278   0.00000  Uiso   1.00
Zn1006 Zn    0.46792   0.45711   0.72258   0.00000  Uiso   1.00
Zn1007 Zn    0.54500   0.52997   0.71188   0.00000  Uiso   1.00
Zn1008 Zn    0.46131   0.53868   0.78277   0.00000  Uiso   1.00
C1009  C     0.71916   0.49332   0.75873   0.00000  Uiso   1.00
C1010  C     0.88537   0.49686   0.96242   0.00000  Uiso   1.00
C1011  C     0.90595   0.47346   0.97974   0.00000  Uiso   1.00
C1012  C     0.94777   0.50692   0.74116   0.00000  Uiso   1.00
C1013  C     0.88868   0.46549   0.51914   0.00000  Uiso   1.00
C1014  C     0.84909   0.48114   0.54103   0.00000  Uiso   1.00
C1015  C     0.91264   0.44714   0.53857   0.00000  Uiso   1.00
C1016  C     0.89992   0.44973   0.57976   0.00000  Uiso   1.00
C1017  C     0.83999   0.48669   0.58223   0.00000  Uiso   1.00
C1018  C     0.99381   0.50948   0.73741   0.00000  Uiso   1.00
C1019  C     0.67375   0.49107   0.76224   0.00000  Uiso   1.00
C1020  C     0.76526   0.54898   0.92125   0.00000  Uiso   1.00
C1021  C     0.84767   0.65553   0.73804   0.00000  Uiso   1.00
C1022  C     0.81828   0.34543   0.76214   0.00000  Uiso   1.00
C1023  C     0.82264   0.38945   0.75888   0.00000  Uiso   1.00
C1024  C     0.84357   0.61105   0.74132   0.00000  Uiso   1.00
C1025  C     0.85505   0.47865   0.64399   0.00000  Uiso   1.00
C1026  C     0.81182   0.52086   0.85625   0.00000  Uiso   1.00
C1027  C     0.80054   0.52764   0.89957   0.00000  Uiso   1.00
C1028  C     0.86456   0.47059   0.60137   0.00000  Uiso   1.00
C1029  C     0.75158   0.55042   0.96238   0.00000  Uiso   1.00
C1030  C     0.71248   0.56923   0.98316   0.00000  Uiso   1.00
C1031  C     0.82408   0.51084   0.91951   0.00000  Uiso   1.00
C1032  C     0.81459   0.51664   0.96073   0.00000  Uiso   1.00
C1033  C     0.77513   0.53233   0.98224   0.00000  Uiso   1.00
C1034  C     0.84109   0.50308   0.98088   0.00000  Uiso   1.00
C1035  C     0.82250   0.49520   0.52117   0.00000  Uiso   1.00
C1036  C     0.77835   0.50221   0.53974   0.00000  Uiso   1.00
C1037  C     0.75789   0.52533   0.52191   0.00000  Uiso   1.00
H1038  H     0.72564   0.53307   0.53777   0.00000  Uiso   1.00
H1039  H     0.84888   0.49167   0.90271   0.00000  Uiso   1.00
H1040  H     0.99952   0.38272   0.52678   0.00000  Uiso   1.00
H1041  H     0.74429   0.42196   0.60905   0.00000  Uiso   1.00
H1042  H     0.94567   0.51330   0.86044   0.00000  Uiso   1.00
H1043  H     0.68365   0.52635   0.71438   0.00000  Uiso   1.00
H1044  H     0.98454   0.47429   0.78564   0.00000  Uiso   1.00
H1045  H     0.87484   0.33615   0.71584   0.00000  Uiso   1.00
H1046  H     0.79073   0.66555   0.78441   0.00000  Uiso   1.00
H1047  H     0.81557   0.50589   0.59981   0.00000  Uiso   1.00
H1048  H     0.91869   0.43733   0.59519   0.00000  Uiso   1.00
H1049  H     0.93839   0.46673   0.96373   0.00000  Uiso   1.00
H1050  H     0.74676   0.56226   0.90612   0.00000  Uiso   1.00
N1051  N     0.68117   0.58425   0.99977   0.00000  Uiso   1.00
O1052  O     0.83333   0.50000   0.75000   0.00000  Uiso   1.00
O1053  O     0.82360   0.45726   0.66625   0.00000  Uiso   1.00
O1054  O     0.79354   0.53979   0.83749   0.00000  Uiso   1.00
O1055  O     0.87755   0.50826   0.65877   0.00000  Uiso   1.00
O1056  O     0.83865   0.49468   0.83749   0.00000  Uiso   1.00
O1057  O     0.95109   0.39421   0.97804   0.00000  Uiso   1.00
O1058  O     0.99654   0.45511   0.99877   0.00000  Uiso   1.00
O1059  O     0.97218   0.39367   0.54273   0.00000  Uiso   1.00
O1060  O     0.73741   0.50375   0.61732   0.00000  Uiso   1.00
O1061  O     0.69974   0.46309   0.57208   0.00000  Uiso   1.00
O1062  O     0.76283   0.43166   0.58373   0.00000  Uiso   1.00
O1063  O     0.84515   0.41434   0.77821   0.00000  Uiso   1.00
O1064  O     0.90180   0.56411   0.92082   0.00000  Uiso   1.00
O1065  O     0.96344   0.53810   0.93190   0.00000  Uiso   1.00
O1066  O     0.92817   0.49481   0.88061   0.00000  Uiso   1.00
O1067  O     0.81247   0.59469   0.76767   0.00000  Uiso   1.00
O1068  O     0.74119   0.46584   0.73607   0.00000  Uiso   1.00
O1069  O     0.93452   0.52512   0.71806   0.00000  Uiso   1.00
O1070  O     0.73656   0.52293   0.77820   0.00000  Uiso   1.00
O1071  O     0.92106   0.48610   0.76768   0.00000  Uiso   1.00
O1072  O     0.80467   0.40236   0.73607   0.00000  Uiso   1.00
O1073  O     0.87104   0.58860   0.71806   0.00000  Uiso   1.00
S1074  S     0.95939   0.42232   0.51290   0.00000  Uiso   1.00
S1075  S     0.74327   0.47531   0.57952   0.00000  Uiso   1.00
S1076  S     0.92031   0.52538   0.92369   0.00000  Uiso   1.00
Zn1077 Zn    0.85910   0.47423   0.78278   0.00000  Uiso   1.00
Zn1078 Zn    0.80125   0.45711   0.72258   0.00000  Uiso   1.00
Zn1079 Zn    0.87833   0.52997   0.71188   0.00000  Uiso   1.00
Zn1080 Zn    0.79465   0.53868   0.78277   0.00000  Uiso   1.00
C1081  C     0.05249   0.82666   0.75873   0.00000  Uiso   1.00
C1082  C     0.21870   0.83019   0.96242   0.00000  Uiso   1.00
C1083  C     0.23928   0.80680   0.97974   0.00000  Uiso   1.00
C1084  C     0.28111   0.84025   0.74116   0.00000  Uiso   1.00
C1085  C     0.22201   0.79882   0.51914   0.00000  Uiso   1.00
C1086  C     0.18243   0.81448   0.54103   0.00000  Uiso   1.00
C1087  C     0.24597   0.78047   0.53857   0.00000  Uiso   1.00
C1088  C     0.23325   0.78307   0.57976   0.00000  Uiso   1.00
C1089  C     0.17333   0.82002   0.58223   0.00000  Uiso   1.00
C1090  C     0.32714   0.84281   0.73741   0.00000  Uiso   1.00
C1091  C     0.00708   0.82440   0.76224   0.00000  Uiso   1.00
C1092  C     0.09859   0.88231   0.92125   0.00000  Uiso   1.00
C1093  C     0.18100   0.98886   0.73804   0.00000  Uiso   1.00
C1094  C     0.15161   0.67876   0.76214   0.00000  Uiso   1.00
C1095  C     0.15597   0.72278   0.75888   0.00000  Uiso   1.00
C1096  C     0.17690   0.94438   0.74132   0.00000  Uiso   1.00
C1097  C     0.18838   0.81198   0.64399   0.00000  Uiso   1.00
C1098  C     0.14516   0.85419   0.85625   0.00000  Uiso   1.00
C1099  C     0.13388   0.86097   0.89957   0.00000  Uiso   1.00
C1100  C     0.19789   0.80392   0.60137   0.00000  Uiso   1.00
C1101  C     0.08491   0.88375   0.96238   0.00000  Uiso   1.00
C1102  C     0.04582   0.90256   0.98316   0.00000  Uiso   1.00
C1103  C     0.15742   0.84418   0.91951   0.00000  Uiso   1.00
C1104  C     0.14792   0.84997   0.96073   0.00000  Uiso   1.00
C1105  C     0.10846   0.86566   0.98224   0.00000  Uiso   1.00
C1106  C     0.17442   0.83642   0.98088   0.00000  Uiso   1.00
C1107  C     0.15584   0.82853   0.52117   0.00000  Uiso   1.00
C1108  C     0.11168   0.83555   0.53974   0.00000  Uiso   1.00
C1109  C     0.09123   0.85867   0.52191   0.00000  Uiso   1.00
H1110  H     0.05898   0.86640   0.53777   0.00000  Uiso   1.00
H1111  H     0.18221   0.82501   0.90271   0.00000  Uiso   1.00
H1112  H     0.33285   0.71605   0.52678   0.00000  Uiso   1.00
H1113  H     0.07763   0.75530   0.60905   0.00000  Uiso   1.00
H1114  H     0.27900   0.84663   0.86044   0.00000  Uiso   1.00
H1115  H     0.01699   0.85968   0.71438   0.00000  Uiso   1.00
H1116  H     0.31787   0.80762   0.78564   0.00000  Uiso   1.00
H1117  H     0.20818   0.66948   0.71584   0.00000  Uiso   1.00
H1118  H     0.12406   0.99888   0.78441   0.00000  Uiso   1.00
H1119  H     0.14890   0.83922   0.59981   0.00000  Uiso   1.00
H1120  H     0.25202   0.77066   0.59519   0.00000  Uiso   1.00
H1121  H     0.27173   0.80006   0.96373   0.00000  Uiso   1.00
H1122  H     0.08009   0.89560   0.90612   0.00000  Uiso   1.00
N1123  N     0.01450   0.91758   0.99977   0.00000  Uiso   1.00
O1124  O     0.16667   0.83333   0.75000   0.00000  Uiso   1.00
O1125  O     0.15693   0.79060   0.66625   0.00000  Uiso   1.00
O1126  O     0.12687   0.87313   0.83749   0.00000  Uiso   1.00
O1127  O     0.21088   0.84159   0.65877   0.00000  Uiso   1.00
O1128  O     0.17198   0.82802   0.83749   0.00000  Uiso   1.00
O1129  O     0.28443   0.72754   0.97804   0.00000  Uiso   1.00
O1130  O     0.32987   0.78845   0.99877   0.00000  Uiso   1.00
O1131  O     0.30551   0.72701   0.54273   0.00000  Uiso   1.00
O1132  O     0.07075   0.83708   0.61732   0.00000  Uiso   1.00
O1133  O     0.03307   0.79643   0.57208   0.00000  Uiso   1.00
O1134  O     0.09616   0.76499   0.58373   0.00000  Uiso   1.00
O1135  O     0.17849   0.74768   0.77821   0.00000  Uiso   1.00
O1136  O     0.23513   0.89744   0.92082   0.00000  Uiso   1.00
O1137  O     0.29677   0.87143   0.93190   0.00000  Uiso   1.00
O1138  O     0.26151   0.82815   0.88061   0.00000  Uiso   1.00
O1139  O     0.14581   0.92803   0.76767   0.00000  Uiso   1.00
O1140  O     0.07452   0.79917   0.73607   0.00000  Uiso   1.00
O1141  O     0.26785   0.85845   0.71806   0.00000  Uiso   1.00
O1142  O     0.06990   0.85627   0.77820   0.00000  Uiso   1.00
O1143  O     0.25440   0.81944   0.76768   0.00000  Uiso   1.00
O1144  O     0.13800   0.73570   0.73607   0.00000  Uiso   1.00
O1145  O     0.20437   0.92193   0.71806   0.00000  Uiso   1.00
S1146  S     0.29273   0.75565   0.51290   0.00000  Uiso   1.00
S1147  S     0.07660   0.80864   0.57952   0.00000  Uiso   1.00
S1148  S     0.25365   0.85871   0.92369   0.00000  Uiso   1.00
Zn1149 Zn    0.19244   0.80756   0.78278   0.00000  Uiso   1.00
Zn1150 Zn    0.13459   0.79044   0.72258   0.00000  Uiso   1.00
Zn1151 Zn    0.21166   0.86331   0.71188   0.00000  Uiso   1.00
Zn1152 Zn    0.12798   0.87202   0.78277   0.00000  Uiso   1.00
C1153  C     0.38582   0.82666   0.75873   0.00000  Uiso   1.00
C1154  C     0.55204   0.83019   0.96242   0.00000  Uiso   1.00
C1155  C     0.57261   0.80680   0.97974   0.00000  Uiso   1.00
C1156  C     0.61444   0.84025   0.74116   0.00000  Uiso   1.00
C1157  C     0.55535   0.79882   0.51914   0.00000  Uiso   1.00
C1158  C     0.51576   0.81448   0.54103   0.00000  Uiso   1.00
C1159  C     0.57930   0.78047   0.53857   0.00000  Uiso   1.00
C1160  C     0.56658   0.78307   0.57976   0.00000  Uiso   1.00
C1161  C     0.50666   0.82002   0.58223   0.00000  Uiso   1.00
C1162  C     0.66048   0.84281   0.73741   0.00000  Uiso   1.00
C1163  C     0.34041   0.82440   0.76224   0.00000  Uiso   1.00
C1164  C     0.43193   0.88231   0.92125   0.00000  Uiso   1.00
C1165  C     0.51433   0.98886   0.73804   0.00000  Uiso   1.00
C1166  C     0.48494   0.67876   0.76214   0.00000  Uiso   1.00
C1167  C     0.48930   0.72278   0.75888   0.00000  Uiso   1.00
C1168  C     0.51023   0.94438   0.74132   0.00000  Uiso   1.00
C1169  C     0.52171   0.81198   0.64399   0.00000  Uiso   1.00
C1170  C     0.47849   0.85419   0.85625   0.00000  Uiso   1.00
C1171  C     0.46721   0.86097   0.89957   0.00000  Uiso   1.00
C1172  C     0.53122   0.80392   0.60137   0.00000  Uiso   1.00
C1173  C     0.41824   0.88375   0.96238   0.00000  Uiso   1.00
C1174  C     0.37915   0.90256   0.98316   0.00000  Uiso   1.00
C1175  C     0.49075   0.84418   0.91951   0.00000  Uiso   1.00
C1176  C     0.48126   0.84997   0.96073   0.00000  Uiso   1.00
C1177  C     0.44179   0.86566   0.98224   0.00000  Uiso   1.00
C1178  C     0.50775   0.83642   0.98088   0.00000  Uiso   1.00
C1179  C     0.48917   0.82853   0.52117   0.00000  Uiso   1.00
C1180  C     0.44501   0.83555   0.53974   0.00000  Uiso   1.00
C1181  C     0.42456   0.85867   0.52191   0.00000  Uiso   1.00
H1182  H     0.39231   0.86640   0.53777   0.00000  Uiso   1.00
H1183  H     0.51555   0.82501   0.90271   0.00000  Uiso   1.00
H1184  H     0.66619   0.71605   0.52678   0.00000  Uiso   1.00
H1185  H     0.41096   0.75530   0.60905   0.00000  Uiso   1.00
H1186  H     0.61233   0.84663   0.86044   0.00000  Uiso   1.00
H1187  H     0.35032   0.85968   0.71438   0.00000  Uiso   1.00
H1188  H     0.65121   0.80762   0.78564   0.00000  Uiso   1.00
H1189  H     0.54151   0.66948   0.71584   0.00000  Uiso   1.00
H1190  H     0.45739   0.99888   0.78441   0.00000  Uiso   1.00
H1191  H     0.48223   0.83922   0.59981   0.00000  Uiso   1.00
H1192  H     0.58536   0.77066   0.59519   0.00000  Uiso   1.00
H1193  H     0.60506   0.80006   0.96373   0.00000  Uiso   1.00
H1194  H     0.41342   0.89560   0.90612   0.00000  Uiso   1.00
N1195  N     0.34784   0.91758   0.99977   0.00000  Uiso   1.00
O1196  O     0.50000   0.83333   0.75000   0.00000  Uiso   1.00
O1197  O     0.49027   0.79060   0.66625   0.00000  Uiso   1.00
O1198  O     0.46020   0.87313   0.83749   0.00000  Uiso   1.00
O1199  O     0.54421   0.84159   0.65877   0.00000  Uiso   1.00
O1200  O     0.50532   0.82802   0.83749   0.00000  Uiso   1.00
O1201  O     0.61776   0.72754   0.97804   0.00000  Uiso   1.00
O1202  O     0.66321   0.78845   0.99877   0.00000  Uiso   1.00
O1203  O     0.63884   0.72701   0.54273   0.00000  Uiso   1.00
O1204  O     0.40408   0.83708   0.61732   0.00000  Uiso   1.00
O1205  O     0.36640   0.79643   0.57208   0.00000  Uiso   1.00
O1206  O     0.42949   0.76499   0.58373   0.00000  Uiso   1.00
O1207  O     0.51182   0.74768   0.77821   0.00000  Uiso   1.00
O1208  O     0.56846   0.89744   0.92082   0.00000  Uiso   1.00
O1209  O     0.63011   0.87143   0.93190   0.00000  Uiso   1.00
O1210  O     0.59484   0.82815   0.88061   0.00000  Uiso   1.00
O1211  O     0.47914   0.92803   0.76767   0.00000  Uiso   1.00
O1212  O     0.40785   0.79917   0.73607   0.00000  Uiso   1.00
O1213  O     0.60119   0.85845   0.71806   0.00000  Uiso   1.00
O1214  O     0.40323   0.85627   0.77820   0.00000  Uiso   1.00
O1215  O     0.58773   0.81944   0.76768   0.00000  Uiso   1.00
O1216  O     0.47133   0.73570   0.73607   0.00000  Uiso   1.00
O1217  O     0.53771   0.92193   0.71806   0.00000  Uiso   1.00
S1218  S     0.62606   0.75565   0.51290   0.00000  Uiso   1.00
S1219  S     0.40993   0.80864   0.57952   0.00000  Uiso   1.00
S1220  S     0.58698   0.85871   0.92369   0.00000  Uiso   1.00
Zn1221 Zn    0.52577   0.80756   0.78278   0.00000  Uiso   1.00
Zn1222 Zn    0.46792   0.79044   0.72258   0.00000  Uiso   1.00
Zn1223 Zn    0.54500   0.86331   0.71188   0.00000  Uiso   1.00
Zn1224 Zn    0.46131   0.87202   0.78277   0.00000  Uiso   1.00
C1225  C     0.71916   0.82666   0.75873   0.00000  Uiso   1.00
C1226  C     0.88537   0.83019   0.96242   0.00000  Uiso   1.00
C1227  C     0.90595   0.80680   0.97974   0.00000  Uiso   1.00
C1228  C     0.94777   0.84025   0.74116   0.00000  Uiso   1.00
C1229  C     0.88868   0.79882   0.51914   0.00000  Uiso   1.00
C1230  C     0.84909   0.81448   0.54103   0.00000  Uiso   1.00
C1231  C     0.91264   0.78047   0.53857   0.00000  Uiso   1.00
C1232  C     0.89992   0.78307   0.57976   0.00000  Uiso   1.00
C1233  C     0.83999   0.82002   0.58223   0.00000  Uiso   1.00
C1234  C     0.99381   0.84281   0.73741   0.00000  Uiso   1.00
C1235  C     0.67375   0.82440   0.76224   0.00000  Uiso   1.00
C1236  C     0.76526   0.88231   0.92125   0.00000  Uiso   1.00
C1237  C     0.84767   0.98886   0.73804   0.00000  Uiso   1.00
C1238  C     0.81828   0.67876   0.76214   0.00000  Uiso   1.00
C1239  C     0.82264   0.72278   0.75888   0.00000  Uiso   1.00
C1240  C     0.84357   0.94438   0.74132   0.00000  Uiso   1.00
C1241  C     0.85505   0.81198   0.64399   0.00000  Uiso   1.00
C1242  C     0.81182   0.85419   0.85625   0.00000  Uiso   1.00
C1243  C     0.80054   0.86097   0.89957   0.00000  Uiso   1.00
C1244  C     0.86456   0.80392   0.60137   0.00000  Uiso   1.00
C1245  C     0.75158   0.88375   0.96238   0.00000  Uiso   1.00
C1246  C     0.71248   0.90256   0.98316   0.00000  Uiso   1.00
C1247  C     0.82408   0.84418   0.91951   0.00000  Uiso   1.00
C1248  C     0.81459   0.84997   0.96073   0.00000  Uiso   1.00
C1249  C     0.77513   0.86566   0.98224   0.00000  Uiso   1.00
C1250  C     0.84109   0.83642   0.98088   0.00000  Uiso   1.00
C1251  C     0.82250   0.82853   0.52117   0.00000  Uiso   1.00
C1252  C     0.77835   0.83555   0.53974   0.00000  Uiso   1.00
C1253  C     0.75789   0.85867   0.52191   0.00000  Uiso   1.00
H1254  H     0.72564   0.86640   0.53777   0.00000  Uiso   1.00
H1255  H     0.84888   0.82501   0.90271   0.00000  Uiso   1.00
H1256  H     0.99952   0.71605   0.52678   0.00000  Uiso   1.00
H1257  H     0.74429   0.75530   0.60905   0.00000  Uiso   1.00
H1258  H     0.94567   0.84663   0.86044   0.00000  Uiso   1.00
H1259  H     0.68365   0.85968   0.71438   0.00000  Uiso   1.00
H1260  H     0.98454   0.80762   0.78564   0.00000  Uiso   1.00
H1261  H     0.87484   0.66948   0.71584   0.00000  Uiso   1.00
H1262  H     0.79073   0.99888   0.78441   0.00000  Uiso   1.00
H1263  H     0.81557   0.83922   0.59981   0.00000  Uiso   1.00
H1264  H     0.91869   0.77066   0.59519   0.00000  Uiso   1.00
H1265  H     0.93839   0.80006   0.96373   0.00000  Uiso   1.00
H1266  H     0.74676   0.89560   0.90612   0.00000  Uiso   1.00
N1267  N     0.68117   0.91758   0.99977   0.00000  Uiso   1.00
O1268  O     0.83333   0.83333   0.75000   0.00000  Uiso   1.00
O1269  O     0.82360   0.79060   0.66625   0.00000  Uiso   1.00
O1270  O     0.79354   0.87313   0.83749   0.00000  Uiso   1.00
O1271  O     0.87755   0.84159   0.65877   0.00000  Uiso   1.00
O1272  O     0.83865   0.82802   0.83749   0.00000  Uiso   1.00
O1273  O     0.95109   0.72754   0.97804   0.00000  Uiso   1.00
O1274  O     0.99654   0.78845   0.99877   0.00000  Uiso   1.00
O1275  O     0.97218   0.72701   0.54273   0.00000  Uiso   1.00
O1276  O     0.73741   0.83708   0.61732   0.00000  Uiso   1.00
O1277  O     0.69974   0.79643   0.57208   0.00000  Uiso   1.00
O1278  O     0.76283   0.76499   0.58373   0.00000  Uiso   1.00
O1279  O     0.84515   0.74768   0.77821   0.00000  Uiso   1.00
O1280  O     0.90180   0.89744   0.92082   0.00000  Uiso   1.00
O1281  O     0.96344   0.87143   0.93190   0.00000  Uiso   1.00
O1282  O     0.92817   0.82815   0.88061   0.00000  Uiso   1.00
O1283  O     0.81247   0.92803   0.76767   0.00000  Uiso   1.00
O1284  O     0.74119   0.79917   0.73607   0.00000  Uiso   1.00
O1285  O     0.93452   0.85845   0.71806   0.00000  Uiso   1.00
O1286  O     0.73656   0.85627   0.77820   0.00000  Uiso   1.00
O1287  O     0.92106   0.81944   0.76768   0.00000  Uiso   1.00
O1288  O     0.80467   0.73570   0.73607   0.00000  Uiso   1.00
O1289  O     0.87104   0.92193   0.71806   0.00000  Uiso   1.00
S1290  S     0.95939   0.75565   0.51290   0.00000  Uiso   1.00
S1291  S     0.74327   0.80864   0.57952   0.00000  Uiso   1.00
S1292  S     0.92031   0.85871   0.92369   0.00000  Uiso   1.00
Zn1293 Zn    0.85910   0.80756   0.78278   0.00000  Uiso   1.00
Zn1294 Zn    0.80125   0.79044   0.72258   0.00000  Uiso   1.00
Zn1295 Zn    0.87833   0.86331   0.71188   0.00000  Uiso   1.00
Zn1296 Zn    0.79465   0.87202   0.78277   0.00000  Uiso   1.00
loop_
_geom_bond_atom_site_label_1
_geom_bond_atom_site_label_2
_geom_bond_distance
_geom_bond_site_symmetry_2
_ccdc_geom_bond_type
C1     C11     1.437   .     S
C1     O62     1.270   .     A
C1     O60     1.270   .     A
C2     C3      1.392   .     A
C2     C26     1.429   .     A
C2     S68     1.784   .     S
C3     H41     1.080   .     S
C3     C653    1.397   .     S
C4     O63     1.276   .     A
C4     C10     1.455   .     S
C4     O61     1.280   .     A
C5     C6      1.421   .     A
C5     C7      1.421   .     A
C5     C651    1.397   1_554 S
C6     C27     1.425   .     A
C6     C9      1.402   .     A
C7     S66     1.773   .     S
C7     C8      1.398   .     A
C8     C20     1.393   .     A
C8     H40     1.083   .     S
C9     C20     1.388   .     A
C9     H39     1.077   .     S
C10    C83     1.335   .     S
C10    H107    1.088   .     S
C11    C154    1.335   1_455 S
C11    H180    1.086   1_455 S
C12    C19     1.401   .     A
C12    H42     1.084   .     S
C12    C21     1.398   .     A
C13    C16     1.452   .     S
C13    C230    1.332   .     S
C13    H253    1.088   .     S
C14    C15     1.436   .     S
C14    C445    1.332   1_545 S
C14    H470    1.086   1_545 S
C15    O64     1.277   .     A
C15    O55     1.277   .     A
C16    O65     1.268   .     A
C16    O59     1.269   .     A
C17    O45     1.275   .     A
C17    C20     1.453   .     S
C17    O47     1.271   .     A
C18    O46     1.281   .     A
C18    O48     1.285   .     A
C18    C19     1.472   .     S
C19    C23     1.395   .     A
C21    C22     1.446   .     S
C21    C25     1.417   .     A
C22    N43     1.157   .     T
C23    C24     1.402   .     A
C23    H31     1.077   .     S
C24    C26     1.422   .     A
C24    C25     1.415   .     A
C25    C677    1.398   .     S
C26    C675    1.429   .     S
C27    C28     1.432   .     A
C27    C674    1.429   1_554 S
C28    C29     1.395   .     A
C28    S67     1.783   .     S
C29    H30     1.083   .     S
C29    C673    1.398   1_554 S
H32    O51     0.991   .     S
H33    O54     0.990   .     S
H34    O58     0.991   .     S
H35    C154    1.088   1_455 S
H36    C83     1.086   .     S
H37    C445    1.088   1_545 S
H38    C230    1.086   .     S
O44    Zn70    1.944   .     S
O44    Zn69    1.959   .     S
O44    Zn72    1.930   .     S
O44    Zn71    1.928   .     S
O45    Zn70    1.925   .     S
O46    Zn72    1.937   .     S
O47    Zn71    1.933   .     S
O48    Zn69    1.922   .     S
O49    S714    1.503   .     S
O50    S714    1.503   .     S
O51    S66     1.682   .     S
O52    S67     1.504   .     D
O53    S67     1.503   .     D
O54    S67     1.683   .     S
O55    Zn69    1.928   .     S
O56    S68     1.504   .     D
O57    S68     1.504   .     D
O58    S68     1.682   .     S
O59    Zn72    1.930   .     S
O60    Zn70    1.925   .     S
O61    Zn71    1.937   .     S
O62    Zn72    1.931   .     S
O63    Zn69    1.921   .     S
O64    Zn70    1.936   .     S
O65    Zn71    1.931   .     S
S66    O697    1.503   1_554 S
S66    O698    1.503   1_554 S
C73    C83     1.437   .     S
C73    O134    1.270   .     A
C73    O132    1.270   .     A
C74    C75     1.392   .     A
C74    C98     1.429   .     A
C74    S140    1.784   .     S
C75    H113    1.080   .     S
C75    C725    1.397   .     S
C76    O135    1.276   .     A
C76    C82     1.455   .     S
C76    O133    1.280   .     A
C77    C78     1.421   .     A
C77    C79     1.421   .     A
C77    C723    1.397   1_554 S
C78    C99     1.425   .     A
C78    C81     1.402   .     A
C79    S138    1.773   .     S
C79    C80     1.398   .     A
C80    C92     1.393   .     A
C80    H112    1.083   .     S
C81    C92     1.388   .     A
C81    H111    1.077   .     S
C82    C155    1.335   .     S
C82    H179    1.088   .     S
C84    C91     1.401   .     A
C84    H114    1.084   .     S
C84    C93     1.398   .     A
C85    C88     1.452   .     S
C85    C302    1.332   .     S
C85    H325    1.088   .     S
C86    C87     1.436   .     S
C86    C517    1.332   1_545 S
C86    H542    1.086   1_545 S
C87    O136    1.277   .     A
C87    O127    1.277   .     A
C88    O137    1.268   .     A
C88    O131    1.269   .     A
C89    O117    1.275   .     A
C89    C92     1.453   .     S
C89    O119    1.271   .     A
C90    O118    1.281   .     A
C90    O120    1.285   .     A
C90    C91     1.472   .     S
C91    C95     1.395   .     A
C93    C94     1.446   .     S
C93    C97     1.417   .     A
C94    N115    1.157   .     T
C95    C96     1.402   .     A
C95    H103    1.077   .     S
C96    C98     1.422   .     A
C96    C97     1.415   .     A
C97    C749    1.398   .     S
C98    C747    1.429   .     S
C99    C100    1.432   .     A
C99    C746    1.429   1_554 S
C100   C101    1.395   .     A
C100   S139    1.783   .     S
C101   H102    1.083   .     S
C101   C745    1.398   1_554 S
H104   O123    0.991   .     S
H105   O126    0.990   .     S
H106   O130    0.991   .     S
H108   C155    1.086   .     S
H109   C517    1.088   1_545 S
H110   C302    1.086   .     S
O116   Zn142   1.944   .     S
O116   Zn141   1.959   .     S
O116   Zn144   1.930   .     S
O116   Zn143   1.928   .     S
O117   Zn142   1.925   .     S
O118   Zn144   1.937   .     S
O119   Zn143   1.933   .     S
O120   Zn141   1.922   .     S
O121   S786    1.503   .     S
O122   S786    1.503   .     S
O123   S138    1.682   .     S
O124   S139    1.504   .     D
O125   S139    1.503   .     D
O126   S139    1.683   .     S
O127   Zn141   1.928   .     S
O128   S140    1.504   .     D
O129   S140    1.504   .     D
O130   S140    1.682   .     S
O131   Zn144   1.930   .     S
O132   Zn142   1.925   .     S
O133   Zn143   1.937   .     S
O134   Zn144   1.931   .     S
O135   Zn141   1.921   .     S
O136   Zn142   1.936   .     S
O137   Zn143   1.931   .     S
S138   O769    1.503   1_554 S
S138   O770    1.503   1_554 S
C145   C155    1.437   .     S
C145   O206    1.270   .     A
C145   O204    1.270   .     A
C146   C147    1.392   .     A
C146   C170    1.429   .     A
C146   S212    1.784   .     S
C147   H185    1.080   .     S
C147   C797    1.397   .     S
C148   O207    1.276   .     A
C148   C154    1.455   .     S
C148   O205    1.280   .     A
C149   C150    1.421   .     A
C149   C151    1.421   .     A
C149   C795    1.397   1_554 S
C150   C171    1.425   .     A
C150   C153    1.402   .     A
C151   S210    1.773   .     S
C151   C152    1.398   .     A
C152   C164    1.393   .     A
C152   H184    1.083   .     S
C153   C164    1.388   .     A
C153   H183    1.077   .     S
C154   C11     1.335   1_655 S
C154   H35     1.088   1_655 S
C156   C163    1.401   .     A
C156   H186    1.084   .     S
C156   C165    1.398   .     A
C157   C160    1.452   .     S
C157   C374    1.332   .     S
C157   H397    1.088   .     S
C158   C159    1.436   .     S
C158   C589    1.332   1_545 S
C158   H614    1.086   1_545 S
C159   O208    1.277   .     A
C159   O199    1.277   .     A
C160   O209    1.268   .     A
C160   O203    1.269   .     A
C161   O189    1.275   .     A
C161   C164    1.453   .     S
C161   O191    1.271   .     A
C162   O190    1.281   .     A
C162   O192    1.285   .     A
C162   C163    1.472   .     S
C163   C167    1.395   .     A
C165   C166    1.446   .     S
C165   C169    1.417   .     A
C166   N187    1.157   .     T
C167   C168    1.402   .     A
C167   H175    1.077   .     S
C168   C170    1.422   .     A
C168   C169    1.415   .     A
C169   C821    1.398   .     S
C170   C819    1.429   .     S
C171   C172    1.432   .     A
C171   C818    1.429   1_554 S
C172   C173    1.395   .     A
C172   S211    1.783   .     S
C173   H174    1.083   .     S
C173   C817    1.398   1_554 S
H176   O195    0.991   .     S
H177   O198    0.990   .     S
H178   O202    0.991   .     S
H180   C11     1.086   1_655 S
H181   C589    1.088   1_545 S
H182   C374    1.086   .     S
O188   Zn214   1.944   .     S
O188   Zn213   1.959   .     S
O188   Zn216   1.930   .     S
O188   Zn215   1.928   .     S
O189   Zn214   1.925   .     S
O190   Zn216   1.937   .     S
O191   Zn215   1.933   .     S
O192   Zn213   1.922   .     S
O193   S858    1.503   .     S
O194   S858    1.503   .     S
O195   S210    1.682   .     S
O196   S211    1.504   .     D
O197   S211    1.503   .     D
O198   S211    1.683   .     S
O199   Zn213   1.928   .     S
O200   S212    1.504   .     D
O201   S212    1.504   .     D
O202   S212    1.682   .     S
O203   Zn216   1.930   .     S
O204   Zn214   1.925   .     S
O205   Zn215   1.937   .     S
O206   Zn216   1.931   .     S
O207   Zn213   1.921   .     S
O208   Zn214   1.936   .     S
O209   Zn215   1.931   .     S
S210   O841    1.503   1_554 S
S210   O842    1.503   1_554 S
C217   C227    1.437   .     S
C217   O278    1.270   .     A
C217   O276    1.270   .     A
C218   C219    1.392   .     A
C218   C242    1.429   .     A
C218   S284    1.784   .     S
C219   H257    1.080   .     S
C219   C869    1.397   .     S
C220   O279    1.276   .     A
C220   C226    1.455   .     S
C220   O277    1.280   .     A
C221   C222    1.421   .     A
C221   C223    1.421   .     A
C221   C867    1.397   1_554 S
C222   C243    1.425   .     A
C222   C225    1.402   .     A
C223   S282    1.773   .     S
C223   C224    1.398   .     A
C224   C236    1.393   .     A
C224   H256    1.083   .     S
C225   C236    1.388   .     A
C225   H255    1.077   .     S
C226   C299    1.335   .     S
C226   H323    1.088   .     S
C227   C370    1.335   1_455 S
C227   H396    1.086   1_455 S
C228   C235    1.401   .     A
C228   H258    1.084   .     S
C228   C237    1.398   .     A
C229   C232    1.452   .     S
C229   C446    1.332   .     S
C229   H469    1.088   .     S
C230   C231    1.436   .     S
C231   O280    1.277   .     A
C231   O271    1.277   .     A
C232   O281    1.268   .     A
C232   O275    1.269   .     A
C233   O261    1.275   .     A
C233   C236    1.453   .     S
C233   O263    1.271   .     A
C234   O262    1.281   .     A
C234   O264    1.285   .     A
C234   C235    1.472   .     S
C235   C239    1.395   .     A
C237   C238    1.446   .     S
C237   C241    1.417   .     A
C238   N259    1.157   .     T
C239   C240    1.402   .     A
C239   H247    1.077   .     S
C240   C242    1.422   .     A
C240   C241    1.415   .     A
C241   C893    1.398   .     S
C242   C891    1.429   .     S
C243   C244    1.432   .     A
C243   C890    1.429   1_554 S
C244   C245    1.395   .     A
C244   S283    1.783   .     S
C245   H246    1.083   .     S
C245   C889    1.398   1_554 S
H248   O267    0.991   .     S
H249   O270    0.990   .     S
H250   O274    0.991   .     S
H251   C370    1.088   1_455 S
H252   C299    1.086   .     S
H254   C446    1.086   .     S
O260   Zn286   1.944   .     S
O260   Zn285   1.959   .     S
O260   Zn288   1.930   .     S
O260   Zn287   1.928   .     S
O261   Zn286   1.925   .     S
O262   Zn288   1.937   .     S
O263   Zn287   1.933   .     S
O264   Zn285   1.922   .     S
O265   S930    1.503   .     S
O266   S930    1.503   .     S
O267   S282    1.682   .     S
O268   S283    1.504   .     D
O269   S283    1.503   .     D
O270   S283    1.683   .     S
O271   Zn285   1.928   .     S
O272   S284    1.504   .     D
O273   S284    1.504   .     D
O274   S284    1.682   .     S
O275   Zn288   1.930   .     S
O276   Zn286   1.925   .     S
O277   Zn287   1.937   .     S
O278   Zn288   1.931   .     S
O279   Zn285   1.921   .     S
O280   Zn286   1.936   .     S
O281   Zn287   1.931   .     S
S282   O913    1.503   1_554 S
S282   O914    1.503   1_554 S
C289   C299    1.437   .     S
C289   O350    1.270   .     A
C289   O348    1.270   .     A
C290   C291    1.392   .     A
C290   C314    1.429   .     A
C290   S356    1.784   .     S
C291   H329    1.080   .     S
C291   C941    1.397   .     S
C292   O351    1.276   .     A
C292   C298    1.455   .     S
C292   O349    1.280   .     A
C293   C294    1.421   .     A
C293   C295    1.421   .     A
C293   C939    1.397   1_554 S
C294   C315    1.425   .     A
C294   C297    1.402   .     A
C295   S354    1.773   .     S
C295   C296    1.398   .     A
C296   C308    1.393   .     A
C296   H328    1.083   .     S
C297   C308    1.388   .     A
C297   H327    1.077   .     S
C298   C371    1.335   .     S
C298   H395    1.088   .     S
C300   C307    1.401   .     A
C300   H330    1.084   .     S
C300   C309    1.398   .     A
C301   C304    1.452   .     S
C301   C518    1.332   .     S
C301   H541    1.088   .     S
C302   C303    1.436   .     S
C303   O352    1.277   .     A
C303   O343    1.277   .     A
C304   O353    1.268   .     A
C304   O347    1.269   .     A
C305   O333    1.275   .     A
C305   C308    1.453   .     S
C305   O335    1.271   .     A
C306   O334    1.281   .     A
C306   O336    1.285   .     A
C306   C307    1.472   .     S
C307   C311    1.395   .     A
C309   C310    1.446   .     S
C309   C313    1.417   .     A
C310   N331    1.157   .     T
C311   C312    1.402   .     A
C311   H319    1.077   .     S
C312   C314    1.422   .     A
C312   C313    1.415   .     A
C313   C965    1.398   .     S
C314   C963    1.429   .     S
C315   C316    1.432   .     A
C315   C962    1.429   1_554 S
C316   C317    1.395   .     A
C316   S355    1.783   .     S
C317   H318    1.083   .     S
C317   C961    1.398   1_554 S
H320   O339    0.991   .     S
H321   O342    0.990   .     S
H322   O346    0.991   .     S
H324   C371    1.086   .     S
H326   C518    1.086   .     S
O332   Zn358   1.944   .     S
O332   Zn357   1.959   .     S
O332   Zn360   1.930   .     S
O332   Zn359   1.928   .     S
O333   Zn358   1.925   .     S
O334   Zn360   1.937   .     S
O335   Zn359   1.933   .     S
O336   Zn357   1.922   .     S
O337   S1002   1.503   .     S
O338   S1002   1.503   .     S
O339   S354    1.682   .     S
O340   S355    1.504   .     D
O341   S355    1.503   .     D
O342   S355    1.683   .     S
O343   Zn357   1.928   .     S
O344   S356    1.504   .     D
O345   S356    1.504   .     D
O346   S356    1.682   .     S
O347   Zn360   1.930   .     S
O348   Zn358   1.925   .     S
O349   Zn359   1.937   .     S
O350   Zn360   1.931   .     S
O351   Zn357   1.921   .     S
O352   Zn358   1.936   .     S
O353   Zn359   1.931   .     S
S354   O985    1.503   1_554 S
S354   O986    1.503   1_554 S
C361   C371    1.437   .     S
C361   O422    1.270   .     A
C361   O420    1.270   .     A
C362   C363    1.392   .     A
C362   C386    1.429   .     A
C362   S428    1.784   .     S
C363   H401    1.080   .     S
C363   C1013   1.397   .     S
C364   O423    1.276   .     A
C364   C370    1.455   .     S
C364   O421    1.280   .     A
C365   C366    1.421   .     A
C365   C367    1.421   .     A
C365   C1011   1.397   1_554 S
C366   C387    1.425   .     A
C366   C369    1.402   .     A
C367   S426    1.773   .     S
C367   C368    1.398   .     A
C368   C380    1.393   .     A
C368   H400    1.083   .     S
C369   C380    1.388   .     A
C369   H399    1.077   .     S
C370   C227    1.335   1_655 S
C370   H251    1.088   1_655 S
C372   C379    1.401   .     A
C372   H402    1.084   .     S
C372   C381    1.398   .     A
C373   C376    1.452   .     S
C373   C590    1.332   .     S
C373   H613    1.088   .     S
C374   C375    1.436   .     S
C375   O424    1.277   .     A
C375   O415    1.277   .     A
C376   O425    1.268   .     A
C376   O419    1.269   .     A
C377   O405    1.275   .     A
C377   C380    1.453   .     S
C377   O407    1.271   .     A
C378   O406    1.281   .     A
C378   O408    1.285   .     A
C378   C379    1.472   .     S
C379   C383    1.395   .     A
C381   C382    1.446   .     S
C381   C385    1.417   .     A
C382   N403    1.157   .     T
C383   C384    1.402   .     A
C383   H391    1.077   .     S
C384   C386    1.422   .     A
C384   C385    1.415   .     A
C385   C1037   1.398   .     S
C386   C1035   1.429   .     S
C387   C388    1.432   .     A
C387   C1034   1.429   1_554 S
C388   C389    1.395   .     A
C388   S427    1.783   .     S
C389   H390    1.083   .     S
C389   C1033   1.398   1_554 S
H392   O411    0.991   .     S
H393   O414    0.990   .     S
H394   O418    0.991   .     S
H396   C227    1.086   1_655 S
H398   C590    1.086   .     S
O404   Zn430   1.944   .     S
O404   Zn429   1.959   .     S
O404   Zn432   1.930   .     S
O404   Zn431   1.928   .     S
O405   Zn430   1.925   .     S
O406   Zn432   1.937   .     S
O407   Zn431   1.933   .     S
O408   Zn429   1.922   .     S
O409   S1074   1.503   .     S
O410   S1074   1.503   .     S
O411   S426    1.682   .     S
O412   S427    1.504   .     D
O413   S427    1.503   .     D
O414   S427    1.683   .     S
O415   Zn429   1.928   .     S
O416   S428    1.504   .     D
O417   S428    1.504   .     D
O418   S428    1.682   .     S
O419   Zn432   1.930   .     S
O420   Zn430   1.925   .     S
O421   Zn431   1.937   .     S
O422   Zn432   1.931   .     S
O423   Zn429   1.921   .     S
O424   Zn430   1.936   .     S
O425   Zn431   1.931   .     S
S426   O1057   1.503   1_554 S
S426   O1058   1.503   1_554 S
C433   C443    1.437   .     S
C433   O494    1.270   .     A
C433   O492    1.270   .     A
C434   C435    1.392   .     A
C434   C458    1.429   .     A
C434   S500    1.784   .     S
C435   H473    1.080   .     S
C435   C1085   1.397   .     S
C436   O495    1.276   .     A
C436   C442    1.455   .     S
C436   O493    1.280   .     A
C437   C438    1.421   .     A
C437   C439    1.421   .     A
C437   C1083   1.397   1_554 S
C438   C459    1.425   .     A
C438   C441    1.402   .     A
C439   S498    1.773   .     S
C439   C440    1.398   .     A
C440   C452    1.393   .     A
C440   H472    1.083   .     S
C441   C452    1.388   .     A
C441   H471    1.077   .     S
C442   C515    1.335   .     S
C442   H539    1.088   .     S
C443   C586    1.335   1_455 S
C443   H612    1.086   1_455 S
C444   C451    1.401   .     A
C444   H474    1.084   .     S
C444   C453    1.398   .     A
C445   C448    1.452   .     S
C445   C14     1.332   1_565 S
C445   H37     1.088   1_565 S
C446   C447    1.436   .     S
C447   O496    1.277   .     A
C447   O487    1.277   .     A
C448   O497    1.268   .     A
C448   O491    1.269   .     A
C449   O477    1.275   .     A
C449   C452    1.453   .     S
C449   O479    1.271   .     A
C450   O478    1.281   .     A
C450   O480    1.285   .     A
C450   C451    1.472   .     S
C451   C455    1.395   .     A
C453   C454    1.446   .     S
C453   C457    1.417   .     A
C454   N475    1.157   .     T
C455   C456    1.402   .     A
C455   H463    1.077   .     S
C456   C458    1.422   .     A
C456   C457    1.415   .     A
C457   C1109   1.398   .     S
C458   C1107   1.429   .     S
C459   C460    1.432   .     A
C459   C1106   1.429   1_554 S
C460   C461    1.395   .     A
C460   S499    1.783   .     S
C461   H462    1.083   .     S
C461   C1105   1.398   1_554 S
H464   O483    0.991   .     S
H465   O486    0.990   .     S
H466   O490    0.991   .     S
H467   C586    1.088   1_455 S
H468   C515    1.086   .     S
H470   C14     1.086   1_565 S
O476   Zn502   1.944   .     S
O476   Zn501   1.959   .     S
O476   Zn504   1.930   .     S
O476   Zn503   1.928   .     S
O477   Zn502   1.925   .     S
O478   Zn504   1.937   .     S
O479   Zn503   1.933   .     S
O480   Zn501   1.922   .     S
O481   S1146   1.503   .     S
O482   S1146   1.503   .     S
O483   S498    1.682   .     S
O484   S499    1.504   .     D
O485   S499    1.503   .     D
O486   S499    1.683   .     S
O487   Zn501   1.928   .     S
O488   S500    1.504   .     D
O489   S500    1.504   .     D
O490   S500    1.682   .     S
O491   Zn504   1.930   .     S
O492   Zn502   1.925   .     S
O493   Zn503   1.937   .     S
O494   Zn504   1.931   .     S
O495   Zn501   1.921   .     S
O496   Zn502   1.936   .     S
O497   Zn503   1.931   .     S
S498   O1129   1.503   1_554 S
S498   O1130   1.503   1_554 S
C505   C515    1.437   .     S
C505   O566    1.270   .     A
C505   O564    1.270   .     A
C506   C507    1.392   .     A
C506   C530    1.429   .     A
C506   S572    1.784   .     S
C507   H545    1.080   .     S
C507   C1157   1.397   .     S
C508   O567    1.276   .     A
C508   C514    1.455   .     S
C508   O565    1.280   .     A
C509   C510    1.421   .     A
C509   C511    1.421   .     A
C509   C1155   1.397   1_554 S
C510   C531    1.425   .     A
C510   C513    1.402   .     A
C511   S570    1.773   .     S
C511   C512    1.398   .     A
C512   C524    1.393   .     A
C512   H544    1.083   .     S
C513   C524    1.388   .     A
C513   H543    1.077   .     S
C514   C587    1.335   .     S
C514   H611    1.088   .     S
C516   C523    1.401   .     A
C516   H546    1.084   .     S
C516   C525    1.398   .     A
C517   C520    1.452   .     S
C517   C86     1.332   1_565 S
C517   H109    1.088   1_565 S
C518   C519    1.436   .     S
C519   O568    1.277   .     A
C519   O559    1.277   .     A
C520   O569    1.268   .     A
C520   O563    1.269   .     A
C521   O549    1.275   .     A
C521   C524    1.453   .     S
C521   O551    1.271   .     A
C522   O550    1.281   .     A
C522   O552    1.285   .     A
C522   C523    1.472   .     S
C523   C527    1.395   .     A
C525   C526    1.446   .     S
C525   C529    1.417   .     A
C526   N547    1.157   .     T
C527   C528    1.402   .     A
C527   H535    1.077   .     S
C528   C530    1.422   .     A
C528   C529    1.415   .     A
C529   C1181   1.398   .     S
C530   C1179   1.429   .     S
C531   C532    1.432   .     A
C531   C1178   1.429   1_554 S
C532   C533    1.395   .     A
C532   S571    1.783   .     S
C533   H534    1.083   .     S
C533   C1177   1.398   1_554 S
H536   O555    0.991   .     S
H537   O558    0.990   .     S
H538   O562    0.991   .     S
H540   C587    1.086   .     S
H542   C86     1.086   1_565 S
O548   Zn574   1.944   .     S
O548   Zn573   1.959   .     S
O548   Zn576   1.930   .     S
O548   Zn575   1.928   .     S
O549   Zn574   1.925   .     S
O550   Zn576   1.937   .     S
O551   Zn575   1.933   .     S
O552   Zn573   1.922   .     S
O553   S1218   1.503   .     S
O554   S1218   1.503   .     S
O555   S570    1.682   .     S
O556   S571    1.504   .     D
O557   S571    1.503   .     D
O558   S571    1.683   .     S
O559   Zn573   1.928   .     S
O560   S572    1.504   .     D
O561   S572    1.504   .     D
O562   S572    1.682   .     S
O563   Zn576   1.930   .     S
O564   Zn574   1.925   .     S
O565   Zn575   1.937   .     S
O566   Zn576   1.931   .     S
O567   Zn573   1.921   .     S
O568   Zn574   1.936   .     S
O569   Zn575   1.931   .     S
S570   O1201   1.503   1_554 S
S570   O1202   1.503   1_554 S
C577   C587    1.437   .     S
C577   O638    1.270   .     A
C577   O636    1.270   .     A
C578   C579    1.392   .     A
C578   C602    1.429   .     A
C578   S644    1.784   .     S
C579   H617    1.080   .     S
C579   C1229   1.397   .     S
C580   O639    1.276   .     A
C580   C586    1.455   .     S
C580   O637    1.280   .     A
C581   C582    1.421   .     A
C581   C583    1.421   .     A
C581   C1227   1.397   1_554 S
C582   C603    1.425   .     A
C582   C585    1.402   .     A
C583   S642    1.773   .     S
C583   C584    1.398   .     A
C584   C596    1.393   .     A
C584   H616    1.083   .     S
C585   C596    1.388   .     A
C585   H615    1.077   .     S
C586   C443    1.335   1_655 S
C586   H467    1.088   1_655 S
C588   C595    1.401   .     A
C588   H618    1.084   .     S
C588   C597    1.398   .     A
C589   C592    1.452   .     S
C589   C158    1.332   1_565 S
C589   H181    1.088   1_565 S
C590   C591    1.436   .     S
C591   O640    1.277   .     A
C591   O631    1.277   .     A
C592   O641    1.268   .     A
C592   O635    1.269   .     A
C593   O621    1.275   .     A
C593   C596    1.453   .     S
C593   O623    1.271   .     A
C594   O622    1.281   .     A
C594   O624    1.285   .     A
C594   C595    1.472   .     S
C595   C599    1.395   .     A
C597   C598    1.446   .     S
C597   C601    1.417   .     A
C598   N619    1.157   .     T
C599   C600    1.402   .     A
C599   H607    1.077   .     S
C600   C602    1.422   .     A
C600   C601    1.415   .     A
C601   C1253   1.398   .     S
C602   C1251   1.429   .     S
C603   C604    1.432   .     A
C603   C1250   1.429   1_554 S
C604   C605    1.395   .     A
C604   S643    1.783   .     S
C605   H606    1.083   .     S
C605   C1249   1.398   1_554 S
H608   O627    0.991   .     S
H609   O630    0.990   .     S
H610   O634    0.991   .     S
H612   C443    1.086   1_655 S
H614   C158    1.086   1_565 S
O620   Zn646   1.944   .     S
O620   Zn645   1.959   .     S
O620   Zn648   1.930   .     S
O620   Zn647   1.928   .     S
O621   Zn646   1.925   .     S
O622   Zn648   1.937   .     S
O623   Zn647   1.933   .     S
O624   Zn645   1.922   .     S
O625   S1290   1.503   .     S
O626   S1290   1.503   .     S
O627   S642    1.682   .     S
O628   S643    1.504   .     D
O629   S643    1.503   .     D
O630   S643    1.683   .     S
O631   Zn645   1.928   .     S
O632   S644    1.504   .     D
O633   S644    1.504   .     D
O634   S644    1.682   .     S
O635   Zn648   1.930   .     S
O636   Zn646   1.925   .     S
O637   Zn647   1.937   .     S
O638   Zn648   1.931   .     S
O639   Zn645   1.921   .     S
O640   Zn646   1.936   .     S
O641   Zn647   1.931   .     S
S642   O1273   1.503   1_554 S
S642   O1274   1.503   1_554 S
C649   C659    1.437   .     S
C649   O710    1.270   .     A
C649   O708    1.270   .     A
C650   C651    1.392   .     A
C650   C674    1.429   .     A
C650   S716    1.784   .     S
C651   H689    1.080   .     S
C651   C5      1.397   1_556 S
C652   O711    1.276   .     A
C652   C658    1.455   .     S
C652   O709    1.280   .     A
C653   C654    1.421   .     A
C653   C655    1.421   .     A
C654   C675    1.425   .     A
C654   C657    1.402   .     A
C655   S714    1.773   .     S
C655   C656    1.398   .     A
C656   C668    1.393   .     A
C656   H688    1.083   .     S
C657   C668    1.388   .     A
C657   H687    1.077   .     S
C658   C731    1.335   .     S
C658   H755    1.088   .     S
C659   C802    1.335   1_455 S
C659   H828    1.086   1_455 S
C660   C667    1.401   .     A
C660   H690    1.084   .     S
C660   C669    1.398   .     A
C661   C664    1.452   .     S
C661   C878    1.332   .     S
C661   H901    1.088   .     S
C662   C663    1.436   .     S
C662   C1093   1.332   1_545 S
C662   H1118   1.086   1_545 S
C663   O712    1.277   .     A
C663   O703    1.277   .     A
C664   O713    1.268   .     A
C664   O707    1.269   .     A
C665   O693    1.275   .     A
C665   C668    1.453   .     S
C665   O695    1.271   .     A
C666   O694    1.281   .     A
C666   O696    1.285   .     A
C666   C667    1.472   .     S
C667   C671    1.395   .     A
C669   C670    1.446   .     S
C669   C673    1.417   .     A
C670   N691    1.157   .     T
C671   C672    1.402   .     A
C671   H679    1.077   .     S
C672   C674    1.422   .     A
C672   C673    1.415   .     A
C673   C29     1.398   1_556 S
C674   C27     1.429   1_556 S
C675   C676    1.432   .     A
C676   C677    1.395   .     A
C676   S715    1.783   .     S
C677   H678    1.083   .     S
H680   O699    0.991   .     S
H681   O702    0.990   .     S
H682   O706    0.991   .     S
H683   C802    1.088   1_455 S
H684   C731    1.086   .     S
H685   C1093   1.088   1_545 S
H686   C878    1.086   .     S
O692   Zn718   1.944   .     S
O692   Zn717   1.959   .     S
O692   Zn720   1.930   .     S
O692   Zn719   1.928   .     S
O693   Zn718   1.925   .     S
O694   Zn720   1.937   .     S
O695   Zn719   1.933   .     S
O696   Zn717   1.922   .     S
O697   S66     1.503   1_556 S
O698   S66     1.503   1_556 S
O699   S714    1.682   .     S
O700   S715    1.504   .     D
O701   S715    1.503   .     D
O702   S715    1.683   .     S
O703   Zn717   1.928   .     S
O704   S716    1.504   .     D
O705   S716    1.504   .     D
O706   S716    1.682   .     S
O707   Zn720   1.930   .     S
O708   Zn718   1.925   .     S
O709   Zn719   1.937   .     S
O710   Zn720   1.931   .     S
O711   Zn717   1.921   .     S
O712   Zn718   1.936   .     S
O713   Zn719   1.931   .     S
C721   C731    1.437   .     S
C721   O782    1.270   .     A
C721   O780    1.270   .     A
C722   C723    1.392   .     A
C722   C746    1.429   .     A
C722   S788    1.784   .     S
C723   H761    1.080   .     S
C723   C77     1.397   1_556 S
C724   O783    1.276   .     A
C724   C730    1.455   .     S
C724   O781    1.280   .     A
C725   C726    1.421   .     A
C725   C727    1.421   .     A
C726   C747    1.425   .     A
C726   C729    1.402   .     A
C727   S786    1.773   .     S
C727   C728    1.398   .     A
C728   C740    1.393   .     A
C728   H760    1.083   .     S
C729   C740    1.388   .     A
C729   H759    1.077   .     S
C730   C803    1.335   .     S
C730   H827    1.088   .     S
C732   C739    1.401   .     A
C732   H762    1.084   .     S
C732   C741    1.398   .     A
C733   C736    1.452   .     S
C733   C950    1.332   .     S
C733   H973    1.088   .     S
C734   C735    1.436   .     S
C734   C1165   1.332   1_545 S
C734   H1190   1.086   1_545 S
C735   O784    1.277   .     A
C735   O775    1.277   .     A
C736   O785    1.268   .     A
C736   O779    1.269   .     A
C737   O765    1.275   .     A
C737   C740    1.453   .     S
C737   O767    1.271   .     A
C738   O766    1.281   .     A
C738   O768    1.285   .     A
C738   C739    1.472   .     S
C739   C743    1.395   .     A
C741   C742    1.446   .     S
C741   C745    1.417   .     A
C742   N763    1.157   .     T
C743   C744    1.402   .     A
C743   H751    1.077   .     S
C744   C746    1.422   .     A
C744   C745    1.415   .     A
C745   C101    1.398   1_556 S
C746   C99     1.429   1_556 S
C747   C748    1.432   .     A
C748   C749    1.395   .     A
C748   S787    1.783   .     S
C749   H750    1.083   .     S
H752   O771    0.991   .     S
H753   O774    0.990   .     S
H754   O778    0.991   .     S
H756   C803    1.086   .     S
H757   C1165   1.088   1_545 S
H758   C950    1.086   .     S
O764   Zn790   1.944   .     S
O764   Zn789   1.959   .     S
O764   Zn792   1.930   .     S
O764   Zn791   1.928   .     S
O765   Zn790   1.925   .     S
O766   Zn792   1.937   .     S
O767   Zn791   1.933   .     S
O768   Zn789   1.922   .     S
O769   S138    1.503   1_556 S
O770   S138    1.503   1_556 S
O771   S786    1.682   .     S
O772   S787    1.504   .     D
O773   S787    1.503   .     D
O774   S787    1.683   .     S
O775   Zn789   1.928   .     S
O776   S788    1.504   .     D
O777   S788    1.504   .     D
O778   S788    1.682   .     S
O779   Zn792   1.930   .     S
O780   Zn790   1.925   .     S
O781   Zn791   1.937   .     S
O782   Zn792   1.931   .     S
O783   Zn789   1.921   .     S
O784   Zn790   1.936   .     S
O785   Zn791   1.931   .     S
C793   C803    1.437   .     S
C793   O854    1.270   .     A
C793   O852    1.270   .     A
C794   C795    1.392   .     A
C794   C818    1.429   .     A
C794   S860    1.784   .     S
C795   H833    1.080   .     S
C795   C149    1.397   1_556 S
C796   O855    1.276   .     A
C796   C802    1.455   .     S
C796   O853    1.280   .     A
C797   C798    1.421   .     A
C797   C799    1.421   .     A
C798   C819    1.425   .     A
C798   C801    1.402   .     A
C799   S858    1.773   .     S
C799   C800    1.398   .     A
C800   C812    1.393   .     A
C800   H832    1.083   .     S
C801   C812    1.388   .     A
C801   H831    1.077   .     S
C802   C659    1.335   1_655 S
C802   H683    1.088   1_655 S
C804   C811    1.401   .     A
C804   H834    1.084   .     S
C804   C813    1.398   .     A
C805   C808    1.452   .     S
C805   C1022   1.332   .     S
C805   H1045   1.088   .     S
C806   C807    1.436   .     S
C806   C1237   1.332   1_545 S
C806   H1262   1.086   1_545 S
C807   O856    1.277   .     A
C807   O847    1.277   .     A
C808   O857    1.268   .     A
C808   O851    1.269   .     A
C809   O837    1.275   .     A
C809   C812    1.453   .     S
C809   O839    1.271   .     A
C810   O838    1.281   .     A
C810   O840    1.285   .     A
C810   C811    1.472   .     S
C811   C815    1.395   .     A
C813   C814    1.446   .     S
C813   C817    1.417   .     A
C814   N835    1.157   .     T
C815   C816    1.402   .     A
C815   H823    1.077   .     S
C816   C818    1.422   .     A
C816   C817    1.415   .     A
C817   C173    1.398   1_556 S
C818   C171    1.429   1_556 S
C819   C820    1.432   .     A
C820   C821    1.395   .     A
C820   S859    1.783   .     S
C821   H822    1.083   .     S
H824   O843    0.991   .     S
H825   O846    0.990   .     S
H826   O850    0.991   .     S
H828   C659    1.086   1_655 S
H829   C1237   1.088   1_545 S
H830   C1022   1.086   .     S
O836   Zn862   1.944   .     S
O836   Zn861   1.959   .     S
O836   Zn864   1.930   .     S
O836   Zn863   1.928   .     S
O837   Zn862   1.925   .     S
O838   Zn864   1.937   .     S
O839   Zn863   1.933   .     S
O840   Zn861   1.922   .     S
O841   S210    1.503   1_556 S
O842   S210    1.503   1_556 S
O843   S858    1.682   .     S
O844   S859    1.504   .     D
O845   S859    1.503   .     D
O846   S859    1.683   .     S
O847   Zn861   1.928   .     S
O848   S860    1.504   .     D
O849   S860    1.504   .     D
O850   S860    1.682   .     S
O851   Zn864   1.930   .     S
O852   Zn862   1.925   .     S
O853   Zn863   1.937   .     S
O854   Zn864   1.931   .     S
O855   Zn861   1.921   .     S
O856   Zn862   1.936   .     S
O857   Zn863   1.931   .     S
C865   C875    1.437   .     S
C865   O926    1.270   .     A
C865   O924    1.270   .     A
C866   C867    1.392   .     A
C866   C890    1.429   .     A
C866   S932    1.784   .     S
C867   H905    1.080   .     S
C867   C221    1.397   1_556 S
C868   O927    1.276   .     A
C868   C874    1.455   .     S
C868   O925    1.280   .     A
C869   C870    1.421   .     A
C869   C871    1.421   .     A
C870   C891    1.425   .     A
C870   C873    1.402   .     A
C871   S930    1.773   .     S
C871   C872    1.398   .     A
C872   C884    1.393   .     A
C872   H904    1.083   .     S
C873   C884    1.388   .     A
C873   H903    1.077   .     S
C874   C947    1.335   .     S
C874   H971    1.088   .     S
C875   C1018   1.335   1_455 S
C875   H1044   1.086   1_455 S
C876   C883    1.401   .     A
C876   H906    1.084   .     S
C876   C885    1.398   .     A
C877   C880    1.452   .     S
C877   C1094   1.332   .     S
C877   H1117   1.088   .     S
C878   C879    1.436   .     S
C879   O928    1.277   .     A
C879   O919    1.277   .     A
C880   O929    1.268   .     A
C880   O923    1.269   .     A
C881   O909    1.275   .     A
C881   C884    1.453   .     S
C881   O911    1.271   .     A
C882   O910    1.281   .     A
C882   O912    1.285   .     A
C882   C883    1.472   .     S
C883   C887    1.395   .     A
C885   C886    1.446   .     S
C885   C889    1.417   .     A
C886   N907    1.157   .     T
C887   C888    1.402   .     A
C887   H895    1.077   .     S
C888   C890    1.422   .     A
C888   C889    1.415   .     A
C889   C245    1.398   1_556 S
C890   C243    1.429   1_556 S
C891   C892    1.432   .     A
C892   C893    1.395   .     A
C892   S931    1.783   .     S
C893   H894    1.083   .     S
H896   O915    0.991   .     S
H897   O918    0.990   .     S
H898   O922    0.991   .     S
H899   C1018   1.088   1_455 S
H900   C947    1.086   .     S
H902   C1094   1.086   .     S
O908   Zn934   1.944   .     S
O908   Zn933   1.959   .     S
O908   Zn936   1.930   .     S
O908   Zn935   1.928   .     S
O909   Zn934   1.925   .     S
O910   Zn936   1.937   .     S
O911   Zn935   1.933   .     S
O912   Zn933   1.922   .     S
O913   S282    1.503   1_556 S
O914   S282    1.503   1_556 S
O915   S930    1.682   .     S
O916   S931    1.504   .     D
O917   S931    1.503   .     D
O918   S931    1.683   .     S
O919   Zn933   1.928   .     S
O920   S932    1.504   .     D
O921   S932    1.504   .     D
O922   S932    1.682   .     S
O923   Zn936   1.930   .     S
O924   Zn934   1.925   .     S
O925   Zn935   1.937   .     S
O926   Zn936   1.931   .     S
O927   Zn933   1.921   .     S
O928   Zn934   1.936   .     S
O929   Zn935   1.931   .     S
C937   C947    1.437   .     S
C937   O998    1.270   .     A
C937   O996    1.270   .     A
C938   C939    1.392   .     A
C938   C962    1.429   .     A
C938   S1004   1.784   .     S
C939   H977    1.080   .     S
C939   C293    1.397   1_556 S
C940   O999    1.276   .     A
C940   C946    1.455   .     S
C940   O997    1.280   .     A
C941   C942    1.421   .     A
C941   C943    1.421   .     A
C942   C963    1.425   .     A
C942   C945    1.402   .     A
C943   S1002   1.773   .     S
C943   C944    1.398   .     A
C944   C956    1.393   .     A
C944   H976    1.083   .     S
C945   C956    1.388   .     A
C945   H975    1.077   .     S
C946   C1019   1.335   .     S
C946   H1043   1.088   .     S
C948   C955    1.401   .     A
C948   H978    1.084   .     S
C948   C957    1.398   .     A
C949   C952    1.452   .     S
C949   C1166   1.332   .     S
C949   H1189   1.088   .     S
C950   C951    1.436   .     S
C951   O1000   1.277   .     A
C951   O991    1.277   .     A
C952   O1001   1.268   .     A
C952   O995    1.269   .     A
C953   O981    1.275   .     A
C953   C956    1.453   .     S
C953   O983    1.271   .     A
C954   O982    1.281   .     A
C954   O984    1.285   .     A
C954   C955    1.472   .     S
C955   C959    1.395   .     A
C957   C958    1.446   .     S
C957   C961    1.417   .     A
C958   N979    1.157   .     T
C959   C960    1.402   .     A
C959   H967    1.077   .     S
C960   C962    1.422   .     A
C960   C961    1.415   .     A
C961   C317    1.398   1_556 S
C962   C315    1.429   1_556 S
C963   C964    1.432   .     A
C964   C965    1.395   .     A
C964   S1003   1.783   .     S
C965   H966    1.083   .     S
H968   O987    0.991   .     S
H969   O990    0.990   .     S
H970   O994    0.991   .     S
H972   C1019   1.086   .     S
H974   C1166   1.086   .     S
O980   Zn1006  1.944   .     S
O980   Zn1005  1.959   .     S
O980   Zn1008  1.930   .     S
O980   Zn1007  1.928   .     S
O981   Zn1006  1.925   .     S
O982   Zn1008  1.937   .     S
O983   Zn1007  1.933   .     S
O984   Zn1005  1.922   .     S
O985   S354    1.503   1_556 S
O986   S354    1.503   1_556 S
O987   S1002   1.682   .     S
O988   S1003   1.504   .     D
O989   S1003   1.503   .     D
O990   S1003   1.683   .     S
O991   Zn1005  1.928   .     S
O992   S1004   1.504   .     D
O993   S1004   1.504   .     D
O994   S1004   1.682   .     S
O995   Zn1008  1.930   .     S
O996   Zn1006  1.925   .     S
O997   Zn1007  1.937   .     S
O998   Zn1008  1.931   .     S
O999   Zn1005  1.921   .     S
O1000  Zn1006  1.936   .     S
O1001  Zn1007  1.931   .     S
C1009  C1019   1.437   .     S
C1009  O1070   1.270   .     A
C1009  O1068   1.270   .     A
C1010  C1011   1.392   .     A
C1010  C1034   1.429   .     A
C1010  S1076   1.784   .     S
C1011  H1049   1.080   .     S
C1011  C365    1.397   1_556 S
C1012  O1071   1.276   .     A
C1012  C1018   1.455   .     S
C1012  O1069   1.280   .     A
C1013  C1014   1.421   .     A
C1013  C1015   1.421   .     A
C1014  C1035   1.425   .     A
C1014  C1017   1.402   .     A
C1015  S1074   1.773   .     S
C1015  C1016   1.398   .     A
C1016  C1028   1.393   .     A
C1016  H1048   1.083   .     S
C1017  C1028   1.388   .     A
C1017  H1047   1.077   .     S
C1018  C875    1.335   1_655 S
C1018  H899    1.088   1_655 S
C1020  C1027   1.401   .     A
C1020  H1050   1.084   .     S
C1020  C1029   1.398   .     A
C1021  C1024   1.452   .     S
C1021  C1238   1.332   .     S
C1021  H1261   1.088   .     S
C1022  C1023   1.436   .     S
C1023  O1072   1.277   .     A
C1023  O1063   1.277   .     A
C1024  O1073   1.268   .     A
C1024  O1067   1.269   .     A
C1025  O1053   1.275   .     A
C1025  C1028   1.453   .     S
C1025  O1055   1.271   .     A
C1026  O1054   1.281   .     A
C1026  O1056   1.285   .     A
C1026  C1027   1.472   .     S
C1027  C1031   1.395   .     A
C1029  C1030   1.446   .     S
C1029  C1033   1.417   .     A
C1030  N1051   1.157   .     T
C1031  C1032   1.402   .     A
C1031  H1039   1.077   .     S
C1032  C1034   1.422   .     A
C1032  C1033   1.415   .     A
C1033  C389    1.398   1_556 S
C1034  C387    1.429   1_556 S
C1035  C1036   1.432   .     A
C1036  C1037   1.395   .     A
C1036  S1075   1.783   .     S
C1037  H1038   1.083   .     S
H1040  O1059   0.991   .     S
H1041  O1062   0.990   .     S
H1042  O1066   0.991   .     S
H1044  C875    1.086   1_655 S
H1046  C1238   1.086   .     S
O1052  Zn1078  1.944   .     S
O1052  Zn1077  1.959   .     S
O1052  Zn1080  1.930   .     S
O1052  Zn1079  1.928   .     S
O1053  Zn1078  1.925   .     S
O1054  Zn1080  1.937   .     S
O1055  Zn1079  1.933   .     S
O1056  Zn1077  1.922   .     S
O1057  S426    1.503   1_556 S
O1058  S426    1.503   1_556 S
O1059  S1074   1.682   .     S
O1060  S1075   1.504   .     D
O1061  S1075   1.503   .     D
O1062  S1075   1.683   .     S
O1063  Zn1077  1.928   .     S
O1064  S1076   1.504   .     D
O1065  S1076   1.504   .     D
O1066  S1076   1.682   .     S
O1067  Zn1080  1.930   .     S
O1068  Zn1078  1.925   .     S
O1069  Zn1079  1.937   .     S
O1070  Zn1080  1.931   .     S
O1071  Zn1077  1.921   .     S
O1072  Zn1078  1.936   .     S
O1073  Zn1079  1.931   .     S
C1081  C1091   1.437   .     S
C1081  O1142   1.270   .     A
C1081  O1140   1.270   .     A
C1082  C1083   1.392   .     A
C1082  C1106   1.429   .     A
C1082  S1148   1.784   .     S
C1083  H1121   1.080   .     S
C1083  C437    1.397   1_556 S
C1084  O1143   1.276   .     A
C1084  C1090   1.455   .     S
C1084  O1141   1.280   .     A
C1085  C1086   1.421   .     A
C1085  C1087   1.421   .     A
C1086  C1107   1.425   .     A
C1086  C1089   1.402   .     A
C1087  S1146   1.773   .     S
C1087  C1088   1.398   .     A
C1088  C1100   1.393   .     A
C1088  H1120   1.083   .     S
C1089  C1100   1.388   .     A
C1089  H1119   1.077   .     S
C1090  C1163   1.335   .     S
C1090  H1187   1.088   .     S
C1091  C1234   1.335   1_455 S
C1091  H1260   1.086   1_455 S
C1092  C1099   1.401   .     A
C1092  H1122   1.084   .     S
C1092  C1101   1.398   .     A
C1093  C1096   1.452   .     S
C1093  C662    1.332   1_565 S
C1093  H685    1.088   1_565 S
C1094  C1095   1.436   .     S
C1095  O1144   1.277   .     A
C1095  O1135   1.277   .     A
C1096  O1145   1.268   .     A
C1096  O1139   1.269   .     A
C1097  O1125   1.275   .     A
C1097  C1100   1.453   .     S
C1097  O1127   1.271   .     A
C1098  O1126   1.281   .     A
C1098  O1128   1.285   .     A
C1098  C1099   1.472   .     S
C1099  C1103   1.395   .     A
C1101  C1102   1.446   .     S
C1101  C1105   1.417   .     A
C1102  N1123   1.157   .     T
C1103  C1104   1.402   .     A
C1103  H1111   1.077   .     S
C1104  C1106   1.422   .     A
C1104  C1105   1.415   .     A
C1105  C461    1.398   1_556 S
C1106  C459    1.429   1_556 S
C1107  C1108   1.432   .     A
C1108  C1109   1.395   .     A
C1108  S1147   1.783   .     S
C1109  H1110   1.083   .     S
H1112  O1131   0.991   .     S
H1113  O1134   0.990   .     S
H1114  O1138   0.991   .     S
H1115  C1234   1.088   1_455 S
H1116  C1163   1.086   .     S
H1118  C662    1.086   1_565 S
O1124  Zn1150  1.944   .     S
O1124  Zn1149  1.959   .     S
O1124  Zn1152  1.930   .     S
O1124  Zn1151  1.928   .     S
O1125  Zn1150  1.925   .     S
O1126  Zn1152  1.937   .     S
O1127  Zn1151  1.933   .     S
O1128  Zn1149  1.922   .     S
O1129  S498    1.503   1_556 S
O1130  S498    1.503   1_556 S
O1131  S1146   1.682   .     S
O1132  S1147   1.504   .     D
O1133  S1147   1.503   .     D
O1134  S1147   1.683   .     S
O1135  Zn1149  1.928   .     S
O1136  S1148   1.504   .     D
O1137  S1148   1.504   .     D
O1138  S1148   1.682   .     S
O1139  Zn1152  1.930   .     S
O1140  Zn1150  1.925   .     S
O1141  Zn1151  1.937   .     S
O1142  Zn1152  1.931   .     S
O1143  Zn1149  1.921   .     S
O1144  Zn1150  1.936   .     S
O1145  Zn1151  1.931   .     S
C1153  C1163   1.437   .     S
C1153  O1214   1.270   .     A
C1153  O1212   1.270   .     A
C1154  C1155   1.392   .     A
C1154  C1178   1.429   .     A
C1154  S1220   1.784   .     S
C1155  H1193   1.080   .     S
C1155  C509    1.397   1_556 S
C1156  O1215   1.276   .     A
C1156  C1162   1.455   .     S
C1156  O1213   1.280   .     A
C1157  C1158   1.421   .     A
C1157  C1159   1.421   .     A
C1158  C1179   1.425   .     A
C1158  C1161   1.402   .     A
C1159  S1218   1.773   .     S
C1159  C1160   1.398   .     A
C1160  C1172   1.393   .     A
C1160  H1192   1.083   .     S
C1161  C1172   1.388   .     A
C1161  H1191   1.077   .     S
C1162  C1235   1.335   .     S
C1162  H1259   1.088   .     S
C1164  C1171   1.401   .     A
C1164  H1194   1.084   .     S
C1164  C1173   1.398   .     A
C1165  C1168   1.452   .     S
C1165  C734    1.332   1_565 S
C1165  H757    1.088   1_565 S
C1166  C1167   1.436   .     S
C1167  O1216   1.277   .     A
C1167  O1207   1.277   .     A
C1168  O1217   1.268   .     A
C1168  O1211   1.269   .     A
C1169  O1197   1.275   .     A
C1169  C1172   1.453   .     S
C1169  O1199   1.271   .     A
C1170  O1198   1.281   .     A
C1170  O1200   1.285   .     A
C1170  C1171   1.472   .     S
C1171  C1175   1.395   .     A
C1173  C1174   1.446   .     S
C1173  C1177   1.417   .     A
C1174  N1195   1.157   .     T
C1175  C1176   1.402   .     A
C1175  H1183   1.077   .     S
C1176  C1178   1.422   .     A
C1176  C1177   1.415   .     A
C1177  C533    1.398   1_556 S
C1178  C531    1.429   1_556 S
C1179  C1180   1.432   .     A
C1180  C1181   1.395   .     A
C1180  S1219   1.783   .     S
C1181  H1182   1.083   .     S
H1184  O1203   0.991   .     S
H1185  O1206   0.990   .     S
H1186  O1210   0.991   .     S
H1188  C1235   1.086   .     S
H1190  C734    1.086   1_565 S
O1196  Zn1222  1.944   .     S
O1196  Zn1221  1.959   .     S
O1196  Zn1224  1.930   .     S
O1196  Zn1223  1.928   .     S
O1197  Zn1222  1.925   .     S
O1198  Zn1224  1.937   .     S
O1199  Zn1223  1.933   .     S
O1200  Zn1221  1.922   .     S
O1201  S570    1.503   1_556 S
O1202  S570    1.503   1_556 S
O1203  S1218   1.682   .     S
O1204  S1219   1.504   .     D
O1205  S1219   1.503   .     D
O1206  S1219   1.683   .     S
O1207  Zn1221  1.928   .     S
O1208  S1220   1.504   .     D
O1209  S1220   1.504   .     D
O1210  S1220   1.682   .     S
O1211  Zn1224  1.930   .     S
O1212  Zn1222  1.925   .     S
O1213  Zn1223  1.937   .     S
O1214  Zn1224  1.931   .     S
O1215  Zn1221  1.921   .     S
O1216  Zn1222  1.936   .     S
O1217  Zn1223  1.931   .     S
C1225  C1235   1.437   .     S
C1225  O1286   1.270   .     A
C1225  O1284   1.270   .     A
C1226  C1227   1.392   .     A
C1226  C1250   1.429   .     A
C1226  S1292   1.784   .     S
C1227  H1265   1.080   .     S
C1227  C581    1.397   1_556 S
C1228  O1287   1.276   .     A
C1228  C1234   1.455   .     S
C1228  O1285   1.280   .     A
C1229  C1230   1.421   .     A
C1229  C1231   1.421   .     A
C1230  C1251   1.425   .     A
C1230  C1233   1.402   .     A
C1231  S1290   1.773   .     S
C1231  C1232   1.398   .     A
C1232  C1244   1.393   .     A
C1232  H1264   1.083   .     S
C1233  C1244   1.388   .     A
C1233  H1263   1.077   .     S
C1234  C1091   1.335   1_655 S
C1234  H1115   1.088   1_655 S
C1236  C1243   1.401   .     A
C1236  H1266   1.084   .     S
C1236  C1245   1.398   .     A
C1237  C1240   1.452   .     S
C1237  C806    1.332   1_565 S
C1237  H829    1.088   1_565 S
C1238  C1239   1.436   .     S
C1239  O1288   1.277   .     A
C1239  O1279   1.277   .     A
C1240  O1289   1.268   .     A
C1240  O1283   1.269   .     A
C1241  O1269   1.275   .     A
C1241  C1244   1.453   .     S
C1241  O1271   1.271   .     A
C1242  O1270   1.281   .     A
C1242  O1272   1.285   .     A
C1242  C1243   1.472   .     S
C1243  C1247   1.395   .     A
C1245  C1246   1.446   .     S
C1245  C1249   1.417   .     A
C1246  N1267   1.157   .     T
C1247  C1248   1.402   .     A
C1247  H1255   1.077   .     S
C1248  C1250   1.422   .     A
C1248  C1249   1.415   .     A
C1249  C605    1.398   1_556 S
C1250  C603    1.429   1_556 S
C1251  C1252   1.432   .     A
C1252  C1253   1.395   .     A
C1252  S1291   1.783   .     S
C1253  H1254   1.083   .     S
H1256  O1275   0.991   .     S
H1257  O1278   0.990   .     S
H1258  O1282   0.991   .     S
H1260  C1091   1.086   1_655 S
H1262  C806    1.086   1_565 S
O1268  Zn1294  1.944   .     S
O1268  Zn1293  1.959   .     S
O1268  Zn1296  1.930   .     S
O1268  Zn1295  1.928   .     S
O1269  Zn1294  1.925   .     S
O1270  Zn1296  1.937   .     S
O1271  Zn1295  1.933   .     S
O1272  Zn1293  1.922   .     S
O1273  S642    1.503   1_556 S
O1274  S642    1.503   1_556 S
O1275  S1290   1.682   .     S
O1276  S1291   1.504   .     D
O1277  S1291   1.503   .     D
O1278  S1291   1.683   .     S
O1279  Zn1293  1.928   .     S
O1280  S1292   1.504   .     D
O1281  S1292   1.504   .     D
O1282  S1292   1.682   .     S
O1283  Zn1296  1.930   .     S
O1284  Zn1294  1.925   .     S
O1285  Zn1295  1.937   .     S
O1286  Zn1296  1.931   .     S
O1287  Zn1293  1.921   .     S
O1288  Zn1294  1.936   .     S
O1289  Zn1295  1.931   .     S
