data_str_m1_o10_o16_pcu_sym.233
_audit_creation_date              2020-01-03
_audit_creation_method            'Materials Studio'
_symmetry_space_group_name_H-M    'P1'
_symmetry_Int_Tables_number       1
_symmetry_cell_setting            triclinic
loop_
_symmetry_equiv_pos_as_xyz
  x,y,z
_cell_length_a                    32.5872
_cell_length_b                    32.5826
_cell_length_c                    31.0893
_cell_angle_alpha                 96.4725
_cell_angle_beta                  74.7800
_cell_angle_gamma                 98.4207
loop_
_atom_site_label
_atom_site_type_symbol
_atom_site_fract_x
_atom_site_fract_y
_atom_site_fract_z
_atom_site_U_iso_or_equiv
_atom_site_adp_type
_atom_site_occupancy
Zn1    Zn    0.19338   0.13994   0.28734   0.00000  Uiso   1.00
Zn2    Zn    0.13379   0.12458   0.21875   0.00000  Uiso   1.00
Zn3    Zn    0.21056   0.19775   0.20657   0.00000  Uiso   1.00
Zn4    Zn    0.12893   0.20439   0.28733   0.00000  Uiso   1.00
O5     O     0.16667   0.16667   0.25000   0.00000  Uiso   1.00
O6     O     0.07071   0.18878   0.28213   0.00000  Uiso   1.00
O7     O     0.25491   0.15226   0.27013   0.00000  Uiso   1.00
O8     O     0.13760   0.06944   0.23413   0.00000  Uiso   1.00
O9     O     0.20345   0.25620   0.21360   0.00000  Uiso   1.00
O10    O     0.15451   0.12637   0.15458   0.00000  Uiso   1.00
O11    O     0.12940   0.20391   0.34968   0.00000  Uiso   1.00
O12    O     0.20824   0.17759   0.14606   0.00000  Uiso   1.00
O13    O     0.17451   0.15880   0.34968   0.00000  Uiso   1.00
O14    O     0.17930   0.08019   0.28213   0.00000  Uiso   1.00
O15    O     0.14632   0.26085   0.27013   0.00000  Uiso   1.00
O16    O     0.07412   0.13291   0.23413   0.00000  Uiso   1.00
O17    O     0.26693   0.19272   0.21360   0.00000  Uiso   1.00
C18    C     0.05294   0.15974   0.25964   0.00000  Uiso   1.00
C19    C     0.28070   0.17407   0.24035   0.00000  Uiso   1.00
C20    C     0.15629   0.05598   0.26007   0.00000  Uiso   1.00
C21    C     0.17652   0.27788   0.24025   0.00000  Uiso   1.00
C22    C     0.18537   0.14812   0.12952   0.00000  Uiso   1.00
C23    C     0.14984   0.18602   0.37086   0.00000  Uiso   1.00
C24    C     0.23945   0.12150   0.01064   0.00000  Uiso   1.00
H25    H     0.24628   0.10682   0.07365   0.00000  Uiso   1.00
H26    H     0.26750   0.10700   0.49267   0.00000  Uiso   1.00
C27    C     0.19290   0.14145   0.08144   0.00000  Uiso   1.00
C28    C     0.10207   0.20741   0.44499   0.00000  Uiso   1.00
C29    C     0.08448   0.19633   0.48873   0.00000  Uiso   1.00
C30    C     0.10721   0.17553   0.00960   0.00000  Uiso   1.00
C31    C     0.15074   0.17065   0.48958   0.00000  Uiso   1.00
C32    C     0.16768   0.17858   0.44391   0.00000  Uiso   1.00
C33    C     0.17740   0.15652   0.01296   0.00000  Uiso   1.00
C34    C     0.21665   0.14196   0.48858   0.00000  Uiso   1.00
C35    C     0.23346   0.15052   0.44359   0.00000  Uiso   1.00
C36    C     0.21063   0.17202   0.42316   0.00000  Uiso   1.00
C37    C     0.16817   0.15937   0.06006   0.00000  Uiso   1.00
C38    C     0.22731   0.12098   0.05687   0.00000  Uiso   1.00
C39    C     0.14127   0.19314   0.42040   0.00000  Uiso   1.00
C40    C     0.32628   0.17877   0.23837   0.00000  Uiso   1.00
C41    C     0.00785   0.15627   0.26318   0.00000  Uiso   1.00
C42    C     0.18028   0.32245   0.23684   0.00000  Uiso   1.00
C43    C     0.15172   0.01209   0.26406   0.00000  Uiso   1.00
F44    F     0.31588   0.12562   0.28746   0.00000  Uiso   1.00
F45    F     0.21346   0.00719   0.20545   0.00000  Uiso   1.00
F46    F     0.11778   0.32889   0.29567   0.00000  Uiso   1.00
N47    N     0.27532   0.14095   0.41920   0.00000  Uiso   1.00
O48    O     0.28114   0.12383   0.37856   0.00000  Uiso   1.00
O49    O     0.30845   0.15384   0.43523   0.00000  Uiso   1.00
F50    F     0.13993   0.18477   0.08542   0.00000  Uiso   1.00
N51    N     0.07983   0.23264   0.42587   0.00000  Uiso   1.00
O52    O     0.03837   0.22595   0.43267   0.00000  Uiso   1.00
O53    O     0.10016   0.26642   0.40788   0.00000  Uiso   1.00
F54    F     0.08526   0.15804   0.04792   0.00000  Uiso   1.00
F55    F     0.04459   0.20501   0.01117   0.00000  Uiso   1.00
F56    F     0.23228   0.18964   0.38474   0.00000  Uiso   1.00
F57    F     0.02011   0.20641   0.21115   0.00000  Uiso   1.00
Zn58   Zn    0.52672   0.13994   0.28734   0.00000  Uiso   1.00
Zn59   Zn    0.46713   0.12458   0.21875   0.00000  Uiso   1.00
Zn60   Zn    0.54389   0.19775   0.20657   0.00000  Uiso   1.00
Zn61   Zn    0.46226   0.20439   0.28733   0.00000  Uiso   1.00
O62    O     0.50000   0.16667   0.25000   0.00000  Uiso   1.00
O63    O     0.40405   0.18878   0.28213   0.00000  Uiso   1.00
O64    O     0.58824   0.15226   0.27013   0.00000  Uiso   1.00
O65    O     0.47093   0.06944   0.23413   0.00000  Uiso   1.00
O66    O     0.53678   0.25620   0.21360   0.00000  Uiso   1.00
O67    O     0.48784   0.12637   0.15458   0.00000  Uiso   1.00
O68    O     0.46274   0.20391   0.34968   0.00000  Uiso   1.00
O69    O     0.54157   0.17759   0.14606   0.00000  Uiso   1.00
O70    O     0.50785   0.15880   0.34968   0.00000  Uiso   1.00
O71    O     0.51264   0.08019   0.28213   0.00000  Uiso   1.00
O72    O     0.47965   0.26085   0.27013   0.00000  Uiso   1.00
O73    O     0.40745   0.13291   0.23413   0.00000  Uiso   1.00
O74    O     0.60026   0.19272   0.21360   0.00000  Uiso   1.00
C75    C     0.38628   0.15974   0.25964   0.00000  Uiso   1.00
C76    C     0.61404   0.17407   0.24035   0.00000  Uiso   1.00
C77    C     0.48962   0.05598   0.26007   0.00000  Uiso   1.00
C78    C     0.50985   0.27788   0.24025   0.00000  Uiso   1.00
C79    C     0.51870   0.14812   0.12952   0.00000  Uiso   1.00
C80    C     0.48318   0.18602   0.37086   0.00000  Uiso   1.00
C81    C     0.57278   0.12150   0.01064   0.00000  Uiso   1.00
H82    H     0.57961   0.10682   0.07365   0.00000  Uiso   1.00
H83    H     0.60083   0.10700   0.49267   0.00000  Uiso   1.00
C84    C     0.52623   0.14145   0.08144   0.00000  Uiso   1.00
C85    C     0.43541   0.20741   0.44499   0.00000  Uiso   1.00
C86    C     0.41781   0.19633   0.48873   0.00000  Uiso   1.00
C87    C     0.44054   0.17553   0.00960   0.00000  Uiso   1.00
C88    C     0.48407   0.17065   0.48958   0.00000  Uiso   1.00
C89    C     0.50102   0.17858   0.44391   0.00000  Uiso   1.00
C90    C     0.51073   0.15652   0.01296   0.00000  Uiso   1.00
C91    C     0.54998   0.14196   0.48858   0.00000  Uiso   1.00
C92    C     0.56679   0.15052   0.44359   0.00000  Uiso   1.00
C93    C     0.54396   0.17202   0.42316   0.00000  Uiso   1.00
C94    C     0.50151   0.15937   0.06006   0.00000  Uiso   1.00
C95    C     0.56064   0.12098   0.05687   0.00000  Uiso   1.00
C96    C     0.47460   0.19314   0.42040   0.00000  Uiso   1.00
C97    C     0.65961   0.17877   0.23837   0.00000  Uiso   1.00
C98    C     0.34118   0.15627   0.26318   0.00000  Uiso   1.00
C99    C     0.51362   0.32245   0.23684   0.00000  Uiso   1.00
C100   C     0.48505   0.01209   0.26406   0.00000  Uiso   1.00
F101   F     0.64922   0.12562   0.28746   0.00000  Uiso   1.00
F102   F     0.54679   0.00719   0.20545   0.00000  Uiso   1.00
F103   F     0.45111   0.32889   0.29567   0.00000  Uiso   1.00
N104   N     0.60866   0.14095   0.41920   0.00000  Uiso   1.00
O105   O     0.61448   0.12383   0.37856   0.00000  Uiso   1.00
O106   O     0.64178   0.15384   0.43523   0.00000  Uiso   1.00
F107   F     0.47326   0.18477   0.08542   0.00000  Uiso   1.00
N108   N     0.41317   0.23264   0.42587   0.00000  Uiso   1.00
O109   O     0.37171   0.22595   0.43267   0.00000  Uiso   1.00
O110   O     0.43350   0.26642   0.40788   0.00000  Uiso   1.00
F111   F     0.41859   0.15804   0.04792   0.00000  Uiso   1.00
F112   F     0.37792   0.20501   0.01117   0.00000  Uiso   1.00
F113   F     0.56561   0.18964   0.38474   0.00000  Uiso   1.00
F114   F     0.35344   0.20641   0.21115   0.00000  Uiso   1.00
Zn115  Zn    0.86005   0.13994   0.28734   0.00000  Uiso   1.00
Zn116  Zn    0.80046   0.12458   0.21875   0.00000  Uiso   1.00
Zn117  Zn    0.87723   0.19775   0.20657   0.00000  Uiso   1.00
Zn118  Zn    0.79560   0.20439   0.28733   0.00000  Uiso   1.00
O119   O     0.83333   0.16667   0.25000   0.00000  Uiso   1.00
O120   O     0.73738   0.18878   0.28213   0.00000  Uiso   1.00
O121   O     0.92158   0.15226   0.27013   0.00000  Uiso   1.00
O122   O     0.80426   0.06944   0.23413   0.00000  Uiso   1.00
O123   O     0.87012   0.25620   0.21360   0.00000  Uiso   1.00
O124   O     0.82118   0.12637   0.15458   0.00000  Uiso   1.00
O125   O     0.79607   0.20391   0.34968   0.00000  Uiso   1.00
O126   O     0.87491   0.17759   0.14606   0.00000  Uiso   1.00
O127   O     0.84118   0.15880   0.34968   0.00000  Uiso   1.00
O128   O     0.84597   0.08019   0.28213   0.00000  Uiso   1.00
O129   O     0.81298   0.26085   0.27013   0.00000  Uiso   1.00
O130   O     0.74078   0.13291   0.23413   0.00000  Uiso   1.00
O131   O     0.93360   0.19272   0.21360   0.00000  Uiso   1.00
C132   C     0.71961   0.15974   0.25964   0.00000  Uiso   1.00
C133   C     0.94737   0.17407   0.24035   0.00000  Uiso   1.00
C134   C     0.82296   0.05598   0.26007   0.00000  Uiso   1.00
C135   C     0.84318   0.27788   0.24025   0.00000  Uiso   1.00
C136   C     0.85203   0.14812   0.12952   0.00000  Uiso   1.00
C137   C     0.81651   0.18602   0.37086   0.00000  Uiso   1.00
C138   C     0.90612   0.12150   0.01064   0.00000  Uiso   1.00
H139   H     0.91295   0.10682   0.07365   0.00000  Uiso   1.00
H140   H     0.93417   0.10700   0.49267   0.00000  Uiso   1.00
C141   C     0.85957   0.14145   0.08144   0.00000  Uiso   1.00
C142   C     0.76874   0.20741   0.44499   0.00000  Uiso   1.00
C143   C     0.75114   0.19633   0.48873   0.00000  Uiso   1.00
C144   C     0.77388   0.17553   0.00960   0.00000  Uiso   1.00
C145   C     0.81741   0.17065   0.48958   0.00000  Uiso   1.00
C146   C     0.83435   0.17858   0.44391   0.00000  Uiso   1.00
C147   C     0.84407   0.15652   0.01296   0.00000  Uiso   1.00
C148   C     0.88331   0.14196   0.48858   0.00000  Uiso   1.00
C149   C     0.90012   0.15052   0.44359   0.00000  Uiso   1.00
C150   C     0.87729   0.17202   0.42316   0.00000  Uiso   1.00
C151   C     0.83484   0.15937   0.06006   0.00000  Uiso   1.00
C152   C     0.89398   0.12098   0.05687   0.00000  Uiso   1.00
C153   C     0.80794   0.19314   0.42040   0.00000  Uiso   1.00
C154   C     0.99295   0.17877   0.23837   0.00000  Uiso   1.00
C155   C     0.67452   0.15627   0.26318   0.00000  Uiso   1.00
C156   C     0.84695   0.32245   0.23684   0.00000  Uiso   1.00
C157   C     0.81839   0.01209   0.26406   0.00000  Uiso   1.00
F158   F     0.98255   0.12562   0.28746   0.00000  Uiso   1.00
F159   F     0.88012   0.00719   0.20545   0.00000  Uiso   1.00
F160   F     0.78445   0.32889   0.29567   0.00000  Uiso   1.00
N161   N     0.94199   0.14095   0.41920   0.00000  Uiso   1.00
O162   O     0.94781   0.12383   0.37856   0.00000  Uiso   1.00
O163   O     0.97511   0.15384   0.43523   0.00000  Uiso   1.00
F164   F     0.80660   0.18477   0.08542   0.00000  Uiso   1.00
N165   N     0.74650   0.23264   0.42587   0.00000  Uiso   1.00
O166   O     0.70504   0.22595   0.43267   0.00000  Uiso   1.00
O167   O     0.76683   0.26642   0.40788   0.00000  Uiso   1.00
F168   F     0.75193   0.15804   0.04792   0.00000  Uiso   1.00
F169   F     0.71125   0.20501   0.01117   0.00000  Uiso   1.00
F170   F     0.89894   0.18964   0.38474   0.00000  Uiso   1.00
F171   F     0.68678   0.20641   0.21115   0.00000  Uiso   1.00
Zn172  Zn    0.19338   0.47327   0.28734   0.00000  Uiso   1.00
Zn173  Zn    0.13379   0.45791   0.21875   0.00000  Uiso   1.00
Zn174  Zn    0.21056   0.53109   0.20657   0.00000  Uiso   1.00
Zn175  Zn    0.12893   0.53773   0.28733   0.00000  Uiso   1.00
O176   O     0.16667   0.50000   0.25000   0.00000  Uiso   1.00
O177   O     0.07071   0.52211   0.28213   0.00000  Uiso   1.00
O178   O     0.25491   0.48559   0.27013   0.00000  Uiso   1.00
O179   O     0.13760   0.40277   0.23413   0.00000  Uiso   1.00
O180   O     0.20345   0.58953   0.21360   0.00000  Uiso   1.00
O181   O     0.15451   0.45970   0.15458   0.00000  Uiso   1.00
O182   O     0.12940   0.53724   0.34968   0.00000  Uiso   1.00
O183   O     0.20824   0.51092   0.14606   0.00000  Uiso   1.00
O184   O     0.17451   0.49213   0.34968   0.00000  Uiso   1.00
O185   O     0.17930   0.41352   0.28213   0.00000  Uiso   1.00
O186   O     0.14632   0.59418   0.27013   0.00000  Uiso   1.00
O187   O     0.07412   0.46625   0.23413   0.00000  Uiso   1.00
O188   O     0.26693   0.52605   0.21360   0.00000  Uiso   1.00
C189   C     0.05294   0.49308   0.25964   0.00000  Uiso   1.00
C190   C     0.28070   0.50741   0.24035   0.00000  Uiso   1.00
C191   C     0.15629   0.38932   0.26007   0.00000  Uiso   1.00
C192   C     0.17652   0.61122   0.24025   0.00000  Uiso   1.00
C193   C     0.18537   0.48145   0.12952   0.00000  Uiso   1.00
C194   C     0.14984   0.51935   0.37086   0.00000  Uiso   1.00
C195   C     0.23945   0.45483   0.01064   0.00000  Uiso   1.00
H196   H     0.24628   0.44016   0.07365   0.00000  Uiso   1.00
H197   H     0.26750   0.44034   0.49267   0.00000  Uiso   1.00
C198   C     0.19290   0.47478   0.08144   0.00000  Uiso   1.00
C199   C     0.10207   0.54074   0.44499   0.00000  Uiso   1.00
C200   C     0.08448   0.52966   0.48873   0.00000  Uiso   1.00
C201   C     0.10721   0.50887   0.00960   0.00000  Uiso   1.00
C202   C     0.15074   0.50398   0.48958   0.00000  Uiso   1.00
C203   C     0.16768   0.51191   0.44391   0.00000  Uiso   1.00
C204   C     0.17740   0.48985   0.01296   0.00000  Uiso   1.00
C205   C     0.21665   0.47530   0.48858   0.00000  Uiso   1.00
C206   C     0.23346   0.48385   0.44359   0.00000  Uiso   1.00
C207   C     0.21063   0.50535   0.42316   0.00000  Uiso   1.00
C208   C     0.16817   0.49271   0.06006   0.00000  Uiso   1.00
C209   C     0.22731   0.45432   0.05687   0.00000  Uiso   1.00
C210   C     0.14127   0.52647   0.42040   0.00000  Uiso   1.00
C211   C     0.32628   0.51210   0.23837   0.00000  Uiso   1.00
C212   C     0.00785   0.48960   0.26318   0.00000  Uiso   1.00
C213   C     0.18028   0.65578   0.23684   0.00000  Uiso   1.00
C214   C     0.15172   0.34542   0.26406   0.00000  Uiso   1.00
F215   F     0.31588   0.45895   0.28746   0.00000  Uiso   1.00
F216   F     0.21346   0.34052   0.20545   0.00000  Uiso   1.00
F217   F     0.11778   0.66223   0.29567   0.00000  Uiso   1.00
N218   N     0.27532   0.47428   0.41920   0.00000  Uiso   1.00
O219   O     0.28114   0.45717   0.37856   0.00000  Uiso   1.00
O220   O     0.30845   0.48717   0.43523   0.00000  Uiso   1.00
F221   F     0.13993   0.51810   0.08542   0.00000  Uiso   1.00
N222   N     0.07983   0.56597   0.42587   0.00000  Uiso   1.00
O223   O     0.03837   0.55928   0.43267   0.00000  Uiso   1.00
O224   O     0.10016   0.59975   0.40788   0.00000  Uiso   1.00
F225   F     0.08526   0.49137   0.04792   0.00000  Uiso   1.00
F226   F     0.04459   0.53834   0.01117   0.00000  Uiso   1.00
F227   F     0.23228   0.52297   0.38474   0.00000  Uiso   1.00
F228   F     0.02011   0.53975   0.21115   0.00000  Uiso   1.00
Zn229  Zn    0.52672   0.47327   0.28734   0.00000  Uiso   1.00
Zn230  Zn    0.46713   0.45791   0.21875   0.00000  Uiso   1.00
Zn231  Zn    0.54389   0.53109   0.20657   0.00000  Uiso   1.00
Zn232  Zn    0.46226   0.53773   0.28733   0.00000  Uiso   1.00
O233   O     0.50000   0.50000   0.25000   0.00000  Uiso   1.00
O234   O     0.40405   0.52211   0.28213   0.00000  Uiso   1.00
O235   O     0.58824   0.48559   0.27013   0.00000  Uiso   1.00
O236   O     0.47093   0.40277   0.23413   0.00000  Uiso   1.00
O237   O     0.53678   0.58953   0.21360   0.00000  Uiso   1.00
O238   O     0.48784   0.45970   0.15458   0.00000  Uiso   1.00
O239   O     0.46274   0.53724   0.34968   0.00000  Uiso   1.00
O240   O     0.54157   0.51092   0.14606   0.00000  Uiso   1.00
O241   O     0.50785   0.49213   0.34968   0.00000  Uiso   1.00
O242   O     0.51264   0.41352   0.28213   0.00000  Uiso   1.00
O243   O     0.47965   0.59418   0.27013   0.00000  Uiso   1.00
O244   O     0.40745   0.46625   0.23413   0.00000  Uiso   1.00
O245   O     0.60026   0.52605   0.21360   0.00000  Uiso   1.00
C246   C     0.38628   0.49308   0.25964   0.00000  Uiso   1.00
C247   C     0.61404   0.50741   0.24035   0.00000  Uiso   1.00
C248   C     0.48962   0.38932   0.26007   0.00000  Uiso   1.00
C249   C     0.50985   0.61122   0.24025   0.00000  Uiso   1.00
C250   C     0.51870   0.48145   0.12952   0.00000  Uiso   1.00
C251   C     0.48318   0.51935   0.37086   0.00000  Uiso   1.00
C252   C     0.57278   0.45483   0.01064   0.00000  Uiso   1.00
H253   H     0.57961   0.44016   0.07365   0.00000  Uiso   1.00
H254   H     0.60083   0.44034   0.49267   0.00000  Uiso   1.00
C255   C     0.52623   0.47478   0.08144   0.00000  Uiso   1.00
C256   C     0.43541   0.54074   0.44499   0.00000  Uiso   1.00
C257   C     0.41781   0.52966   0.48873   0.00000  Uiso   1.00
C258   C     0.44054   0.50887   0.00960   0.00000  Uiso   1.00
C259   C     0.48407   0.50398   0.48958   0.00000  Uiso   1.00
C260   C     0.50102   0.51191   0.44391   0.00000  Uiso   1.00
C261   C     0.51073   0.48985   0.01296   0.00000  Uiso   1.00
C262   C     0.54998   0.47530   0.48858   0.00000  Uiso   1.00
C263   C     0.56679   0.48385   0.44359   0.00000  Uiso   1.00
C264   C     0.54396   0.50535   0.42316   0.00000  Uiso   1.00
C265   C     0.50151   0.49271   0.06006   0.00000  Uiso   1.00
C266   C     0.56064   0.45432   0.05687   0.00000  Uiso   1.00
C267   C     0.47460   0.52647   0.42040   0.00000  Uiso   1.00
C268   C     0.65961   0.51210   0.23837   0.00000  Uiso   1.00
C269   C     0.34118   0.48960   0.26318   0.00000  Uiso   1.00
C270   C     0.51362   0.65578   0.23684   0.00000  Uiso   1.00
C271   C     0.48505   0.34542   0.26406   0.00000  Uiso   1.00
F272   F     0.64922   0.45895   0.28746   0.00000  Uiso   1.00
F273   F     0.54679   0.34052   0.20545   0.00000  Uiso   1.00
F274   F     0.45111   0.66223   0.29567   0.00000  Uiso   1.00
N275   N     0.60866   0.47428   0.41920   0.00000  Uiso   1.00
O276   O     0.61448   0.45717   0.37856   0.00000  Uiso   1.00
O277   O     0.64178   0.48717   0.43523   0.00000  Uiso   1.00
F278   F     0.47326   0.51810   0.08542   0.00000  Uiso   1.00
N279   N     0.41317   0.56597   0.42587   0.00000  Uiso   1.00
O280   O     0.37171   0.55928   0.43267   0.00000  Uiso   1.00
O281   O     0.43350   0.59975   0.40788   0.00000  Uiso   1.00
F282   F     0.41859   0.49137   0.04792   0.00000  Uiso   1.00
F283   F     0.37792   0.53834   0.01117   0.00000  Uiso   1.00
F284   F     0.56561   0.52297   0.38474   0.00000  Uiso   1.00
F285   F     0.35344   0.53975   0.21115   0.00000  Uiso   1.00
Zn286  Zn    0.86005   0.47327   0.28734   0.00000  Uiso   1.00
Zn287  Zn    0.80046   0.45791   0.21875   0.00000  Uiso   1.00
Zn288  Zn    0.87723   0.53109   0.20657   0.00000  Uiso   1.00
Zn289  Zn    0.79560   0.53773   0.28733   0.00000  Uiso   1.00
O290   O     0.83333   0.50000   0.25000   0.00000  Uiso   1.00
O291   O     0.73738   0.52211   0.28213   0.00000  Uiso   1.00
O292   O     0.92158   0.48559   0.27013   0.00000  Uiso   1.00
O293   O     0.80426   0.40277   0.23413   0.00000  Uiso   1.00
O294   O     0.87012   0.58953   0.21360   0.00000  Uiso   1.00
O295   O     0.82118   0.45970   0.15458   0.00000  Uiso   1.00
O296   O     0.79607   0.53724   0.34968   0.00000  Uiso   1.00
O297   O     0.87491   0.51092   0.14606   0.00000  Uiso   1.00
O298   O     0.84118   0.49213   0.34968   0.00000  Uiso   1.00
O299   O     0.84597   0.41352   0.28213   0.00000  Uiso   1.00
O300   O     0.81298   0.59418   0.27013   0.00000  Uiso   1.00
O301   O     0.74078   0.46625   0.23413   0.00000  Uiso   1.00
O302   O     0.93360   0.52605   0.21360   0.00000  Uiso   1.00
C303   C     0.71961   0.49308   0.25964   0.00000  Uiso   1.00
C304   C     0.94737   0.50741   0.24035   0.00000  Uiso   1.00
C305   C     0.82296   0.38932   0.26007   0.00000  Uiso   1.00
C306   C     0.84318   0.61122   0.24025   0.00000  Uiso   1.00
C307   C     0.85203   0.48145   0.12952   0.00000  Uiso   1.00
C308   C     0.81651   0.51935   0.37086   0.00000  Uiso   1.00
C309   C     0.90612   0.45483   0.01064   0.00000  Uiso   1.00
H310   H     0.91295   0.44016   0.07365   0.00000  Uiso   1.00
H311   H     0.93417   0.44034   0.49267   0.00000  Uiso   1.00
C312   C     0.85957   0.47478   0.08144   0.00000  Uiso   1.00
C313   C     0.76874   0.54074   0.44499   0.00000  Uiso   1.00
C314   C     0.75114   0.52966   0.48873   0.00000  Uiso   1.00
C315   C     0.77388   0.50887   0.00960   0.00000  Uiso   1.00
C316   C     0.81741   0.50398   0.48958   0.00000  Uiso   1.00
C317   C     0.83435   0.51191   0.44391   0.00000  Uiso   1.00
C318   C     0.84407   0.48985   0.01296   0.00000  Uiso   1.00
C319   C     0.88331   0.47530   0.48858   0.00000  Uiso   1.00
C320   C     0.90012   0.48385   0.44359   0.00000  Uiso   1.00
C321   C     0.87729   0.50535   0.42316   0.00000  Uiso   1.00
C322   C     0.83484   0.49271   0.06006   0.00000  Uiso   1.00
C323   C     0.89398   0.45432   0.05687   0.00000  Uiso   1.00
C324   C     0.80794   0.52647   0.42040   0.00000  Uiso   1.00
C325   C     0.99295   0.51210   0.23837   0.00000  Uiso   1.00
C326   C     0.67452   0.48960   0.26318   0.00000  Uiso   1.00
C327   C     0.84695   0.65578   0.23684   0.00000  Uiso   1.00
C328   C     0.81839   0.34542   0.26406   0.00000  Uiso   1.00
F329   F     0.98255   0.45895   0.28746   0.00000  Uiso   1.00
F330   F     0.88012   0.34052   0.20545   0.00000  Uiso   1.00
F331   F     0.78445   0.66223   0.29567   0.00000  Uiso   1.00
N332   N     0.94199   0.47428   0.41920   0.00000  Uiso   1.00
O333   O     0.94781   0.45717   0.37856   0.00000  Uiso   1.00
O334   O     0.97511   0.48717   0.43523   0.00000  Uiso   1.00
F335   F     0.80660   0.51810   0.08542   0.00000  Uiso   1.00
N336   N     0.74650   0.56597   0.42587   0.00000  Uiso   1.00
O337   O     0.70504   0.55928   0.43267   0.00000  Uiso   1.00
O338   O     0.76683   0.59975   0.40788   0.00000  Uiso   1.00
F339   F     0.75193   0.49137   0.04792   0.00000  Uiso   1.00
F340   F     0.71125   0.53834   0.01117   0.00000  Uiso   1.00
F341   F     0.89894   0.52297   0.38474   0.00000  Uiso   1.00
F342   F     0.68678   0.53975   0.21115   0.00000  Uiso   1.00
Zn343  Zn    0.19338   0.80661   0.28734   0.00000  Uiso   1.00
Zn344  Zn    0.13379   0.79124   0.21875   0.00000  Uiso   1.00
Zn345  Zn    0.21056   0.86442   0.20657   0.00000  Uiso   1.00
Zn346  Zn    0.12893   0.87106   0.28733   0.00000  Uiso   1.00
O347   O     0.16667   0.83333   0.25000   0.00000  Uiso   1.00
O348   O     0.07071   0.85544   0.28213   0.00000  Uiso   1.00
O349   O     0.25491   0.81892   0.27013   0.00000  Uiso   1.00
O350   O     0.13760   0.73610   0.23413   0.00000  Uiso   1.00
O351   O     0.20345   0.92286   0.21360   0.00000  Uiso   1.00
O352   O     0.15451   0.79304   0.15458   0.00000  Uiso   1.00
O353   O     0.12940   0.87058   0.34968   0.00000  Uiso   1.00
O354   O     0.20824   0.84425   0.14606   0.00000  Uiso   1.00
O355   O     0.17451   0.82546   0.34968   0.00000  Uiso   1.00
O356   O     0.17930   0.74686   0.28213   0.00000  Uiso   1.00
O357   O     0.14632   0.92751   0.27013   0.00000  Uiso   1.00
O358   O     0.07412   0.79958   0.23413   0.00000  Uiso   1.00
O359   O     0.26693   0.85939   0.21360   0.00000  Uiso   1.00
C360   C     0.05294   0.82641   0.25964   0.00000  Uiso   1.00
C361   C     0.28070   0.84074   0.24035   0.00000  Uiso   1.00
C362   C     0.15629   0.72265   0.26007   0.00000  Uiso   1.00
C363   C     0.17652   0.94455   0.24025   0.00000  Uiso   1.00
C364   C     0.18537   0.81479   0.12952   0.00000  Uiso   1.00
C365   C     0.14984   0.85269   0.37086   0.00000  Uiso   1.00
C366   C     0.23945   0.78817   0.01064   0.00000  Uiso   1.00
H367   H     0.24628   0.77349   0.07365   0.00000  Uiso   1.00
H368   H     0.26750   0.77367   0.49267   0.00000  Uiso   1.00
C369   C     0.19290   0.80811   0.08144   0.00000  Uiso   1.00
C370   C     0.10207   0.87408   0.44499   0.00000  Uiso   1.00
C371   C     0.08448   0.86300   0.48873   0.00000  Uiso   1.00
C372   C     0.10721   0.84220   0.00960   0.00000  Uiso   1.00
C373   C     0.15074   0.83732   0.48958   0.00000  Uiso   1.00
C374   C     0.16768   0.84525   0.44391   0.00000  Uiso   1.00
C375   C     0.17740   0.82319   0.01296   0.00000  Uiso   1.00
C376   C     0.21665   0.80863   0.48858   0.00000  Uiso   1.00
C377   C     0.23346   0.81719   0.44359   0.00000  Uiso   1.00
C378   C     0.21063   0.83868   0.42316   0.00000  Uiso   1.00
C379   C     0.16817   0.82604   0.06006   0.00000  Uiso   1.00
C380   C     0.22731   0.78765   0.05687   0.00000  Uiso   1.00
C381   C     0.14127   0.85981   0.42040   0.00000  Uiso   1.00
C382   C     0.32628   0.84543   0.23837   0.00000  Uiso   1.00
C383   C     0.00785   0.82294   0.26318   0.00000  Uiso   1.00
C384   C     0.18028   0.98912   0.23684   0.00000  Uiso   1.00
C385   C     0.15172   0.67876   0.26406   0.00000  Uiso   1.00
F386   F     0.31588   0.79228   0.28746   0.00000  Uiso   1.00
F387   F     0.21346   0.67386   0.20545   0.00000  Uiso   1.00
F388   F     0.11778   0.99556   0.29567   0.00000  Uiso   1.00
N389   N     0.27532   0.80762   0.41920   0.00000  Uiso   1.00
O390   O     0.28114   0.79050   0.37856   0.00000  Uiso   1.00
O391   O     0.30845   0.82051   0.43523   0.00000  Uiso   1.00
F392   F     0.13993   0.85144   0.08542   0.00000  Uiso   1.00
N393   N     0.07983   0.89930   0.42587   0.00000  Uiso   1.00
O394   O     0.03837   0.89261   0.43267   0.00000  Uiso   1.00
O395   O     0.10016   0.93308   0.40788   0.00000  Uiso   1.00
F396   F     0.08526   0.82471   0.04792   0.00000  Uiso   1.00
F397   F     0.04459   0.87168   0.01117   0.00000  Uiso   1.00
F398   F     0.23228   0.85630   0.38474   0.00000  Uiso   1.00
F399   F     0.02011   0.87308   0.21115   0.00000  Uiso   1.00
Zn400  Zn    0.52672   0.80661   0.28734   0.00000  Uiso   1.00
Zn401  Zn    0.46713   0.79124   0.21875   0.00000  Uiso   1.00
Zn402  Zn    0.54389   0.86442   0.20657   0.00000  Uiso   1.00
Zn403  Zn    0.46226   0.87106   0.28733   0.00000  Uiso   1.00
O404   O     0.50000   0.83333   0.25000   0.00000  Uiso   1.00
O405   O     0.40405   0.85544   0.28213   0.00000  Uiso   1.00
O406   O     0.58824   0.81892   0.27013   0.00000  Uiso   1.00
O407   O     0.47093   0.73610   0.23413   0.00000  Uiso   1.00
O408   O     0.53678   0.92286   0.21360   0.00000  Uiso   1.00
O409   O     0.48784   0.79304   0.15458   0.00000  Uiso   1.00
O410   O     0.46274   0.87058   0.34968   0.00000  Uiso   1.00
O411   O     0.54157   0.84425   0.14606   0.00000  Uiso   1.00
O412   O     0.50785   0.82546   0.34968   0.00000  Uiso   1.00
O413   O     0.51264   0.74686   0.28213   0.00000  Uiso   1.00
O414   O     0.47965   0.92751   0.27013   0.00000  Uiso   1.00
O415   O     0.40745   0.79958   0.23413   0.00000  Uiso   1.00
O416   O     0.60026   0.85939   0.21360   0.00000  Uiso   1.00
C417   C     0.38628   0.82641   0.25964   0.00000  Uiso   1.00
C418   C     0.61404   0.84074   0.24035   0.00000  Uiso   1.00
C419   C     0.48962   0.72265   0.26007   0.00000  Uiso   1.00
C420   C     0.50985   0.94455   0.24025   0.00000  Uiso   1.00
C421   C     0.51870   0.81479   0.12952   0.00000  Uiso   1.00
C422   C     0.48318   0.85269   0.37086   0.00000  Uiso   1.00
C423   C     0.57278   0.78817   0.01064   0.00000  Uiso   1.00
H424   H     0.57961   0.77349   0.07365   0.00000  Uiso   1.00
H425   H     0.60083   0.77367   0.49267   0.00000  Uiso   1.00
C426   C     0.52623   0.80811   0.08144   0.00000  Uiso   1.00
C427   C     0.43541   0.87408   0.44499   0.00000  Uiso   1.00
C428   C     0.41781   0.86300   0.48873   0.00000  Uiso   1.00
C429   C     0.44054   0.84220   0.00960   0.00000  Uiso   1.00
C430   C     0.48407   0.83732   0.48958   0.00000  Uiso   1.00
C431   C     0.50102   0.84525   0.44391   0.00000  Uiso   1.00
C432   C     0.51073   0.82319   0.01296   0.00000  Uiso   1.00
C433   C     0.54998   0.80863   0.48858   0.00000  Uiso   1.00
C434   C     0.56679   0.81719   0.44359   0.00000  Uiso   1.00
C435   C     0.54396   0.83868   0.42316   0.00000  Uiso   1.00
C436   C     0.50151   0.82604   0.06006   0.00000  Uiso   1.00
C437   C     0.56064   0.78765   0.05687   0.00000  Uiso   1.00
C438   C     0.47460   0.85981   0.42040   0.00000  Uiso   1.00
C439   C     0.65961   0.84543   0.23837   0.00000  Uiso   1.00
C440   C     0.34118   0.82294   0.26318   0.00000  Uiso   1.00
C441   C     0.51362   0.98912   0.23684   0.00000  Uiso   1.00
C442   C     0.48505   0.67876   0.26406   0.00000  Uiso   1.00
F443   F     0.64922   0.79228   0.28746   0.00000  Uiso   1.00
F444   F     0.54679   0.67386   0.20545   0.00000  Uiso   1.00
F445   F     0.45111   0.99556   0.29567   0.00000  Uiso   1.00
N446   N     0.60866   0.80762   0.41920   0.00000  Uiso   1.00
O447   O     0.61448   0.79050   0.37856   0.00000  Uiso   1.00
O448   O     0.64178   0.82051   0.43523   0.00000  Uiso   1.00
F449   F     0.47326   0.85144   0.08542   0.00000  Uiso   1.00
N450   N     0.41317   0.89930   0.42587   0.00000  Uiso   1.00
O451   O     0.37171   0.89261   0.43267   0.00000  Uiso   1.00
O452   O     0.43350   0.93308   0.40788   0.00000  Uiso   1.00
F453   F     0.41859   0.82471   0.04792   0.00000  Uiso   1.00
F454   F     0.37792   0.87168   0.01117   0.00000  Uiso   1.00
F455   F     0.56561   0.85630   0.38474   0.00000  Uiso   1.00
F456   F     0.35344   0.87308   0.21115   0.00000  Uiso   1.00
Zn457  Zn    0.86005   0.80661   0.28734   0.00000  Uiso   1.00
Zn458  Zn    0.80046   0.79124   0.21875   0.00000  Uiso   1.00
Zn459  Zn    0.87723   0.86442   0.20657   0.00000  Uiso   1.00
Zn460  Zn    0.79560   0.87106   0.28733   0.00000  Uiso   1.00
O461   O     0.83333   0.83333   0.25000   0.00000  Uiso   1.00
O462   O     0.73738   0.85544   0.28213   0.00000  Uiso   1.00
O463   O     0.92158   0.81892   0.27013   0.00000  Uiso   1.00
O464   O     0.80426   0.73610   0.23413   0.00000  Uiso   1.00
O465   O     0.87012   0.92286   0.21360   0.00000  Uiso   1.00
O466   O     0.82118   0.79304   0.15458   0.00000  Uiso   1.00
O467   O     0.79607   0.87058   0.34968   0.00000  Uiso   1.00
O468   O     0.87491   0.84425   0.14606   0.00000  Uiso   1.00
O469   O     0.84118   0.82546   0.34968   0.00000  Uiso   1.00
O470   O     0.84597   0.74686   0.28213   0.00000  Uiso   1.00
O471   O     0.81298   0.92751   0.27013   0.00000  Uiso   1.00
O472   O     0.74078   0.79958   0.23413   0.00000  Uiso   1.00
O473   O     0.93360   0.85939   0.21360   0.00000  Uiso   1.00
C474   C     0.71961   0.82641   0.25964   0.00000  Uiso   1.00
C475   C     0.94737   0.84074   0.24035   0.00000  Uiso   1.00
C476   C     0.82296   0.72265   0.26007   0.00000  Uiso   1.00
C477   C     0.84318   0.94455   0.24025   0.00000  Uiso   1.00
C478   C     0.85203   0.81479   0.12952   0.00000  Uiso   1.00
C479   C     0.81651   0.85269   0.37086   0.00000  Uiso   1.00
C480   C     0.90612   0.78817   0.01064   0.00000  Uiso   1.00
H481   H     0.91295   0.77349   0.07365   0.00000  Uiso   1.00
H482   H     0.93417   0.77367   0.49267   0.00000  Uiso   1.00
C483   C     0.85957   0.80811   0.08144   0.00000  Uiso   1.00
C484   C     0.76874   0.87408   0.44499   0.00000  Uiso   1.00
C485   C     0.75114   0.86300   0.48873   0.00000  Uiso   1.00
C486   C     0.77388   0.84220   0.00960   0.00000  Uiso   1.00
C487   C     0.81741   0.83732   0.48958   0.00000  Uiso   1.00
C488   C     0.83435   0.84525   0.44391   0.00000  Uiso   1.00
C489   C     0.84407   0.82319   0.01296   0.00000  Uiso   1.00
C490   C     0.88331   0.80863   0.48858   0.00000  Uiso   1.00
C491   C     0.90012   0.81719   0.44359   0.00000  Uiso   1.00
C492   C     0.87729   0.83868   0.42316   0.00000  Uiso   1.00
C493   C     0.83484   0.82604   0.06006   0.00000  Uiso   1.00
C494   C     0.89398   0.78765   0.05687   0.00000  Uiso   1.00
C495   C     0.80794   0.85981   0.42040   0.00000  Uiso   1.00
C496   C     0.99295   0.84543   0.23837   0.00000  Uiso   1.00
C497   C     0.67452   0.82294   0.26318   0.00000  Uiso   1.00
C498   C     0.84695   0.98912   0.23684   0.00000  Uiso   1.00
C499   C     0.81839   0.67876   0.26406   0.00000  Uiso   1.00
F500   F     0.98255   0.79228   0.28746   0.00000  Uiso   1.00
F501   F     0.88012   0.67386   0.20545   0.00000  Uiso   1.00
F502   F     0.78445   0.99556   0.29567   0.00000  Uiso   1.00
N503   N     0.94199   0.80762   0.41920   0.00000  Uiso   1.00
O504   O     0.94781   0.79050   0.37856   0.00000  Uiso   1.00
O505   O     0.97511   0.82051   0.43523   0.00000  Uiso   1.00
F506   F     0.80660   0.85144   0.08542   0.00000  Uiso   1.00
N507   N     0.74650   0.89930   0.42587   0.00000  Uiso   1.00
O508   O     0.70504   0.89261   0.43267   0.00000  Uiso   1.00
O509   O     0.76683   0.93308   0.40788   0.00000  Uiso   1.00
F510   F     0.75193   0.82471   0.04792   0.00000  Uiso   1.00
F511   F     0.71125   0.87168   0.01117   0.00000  Uiso   1.00
F512   F     0.89894   0.85630   0.38474   0.00000  Uiso   1.00
F513   F     0.68678   0.87308   0.21115   0.00000  Uiso   1.00
Zn514  Zn    0.19338   0.13994   0.78734   0.00000  Uiso   1.00
Zn515  Zn    0.13379   0.12458   0.71875   0.00000  Uiso   1.00
Zn516  Zn    0.21056   0.19775   0.70657   0.00000  Uiso   1.00
Zn517  Zn    0.12893   0.20439   0.78733   0.00000  Uiso   1.00
O518   O     0.16667   0.16667   0.75000   0.00000  Uiso   1.00
O519   O     0.07071   0.18878   0.78213   0.00000  Uiso   1.00
O520   O     0.25491   0.15226   0.77013   0.00000  Uiso   1.00
O521   O     0.13760   0.06944   0.73413   0.00000  Uiso   1.00
O522   O     0.20345   0.25620   0.71360   0.00000  Uiso   1.00
O523   O     0.15451   0.12637   0.65458   0.00000  Uiso   1.00
O524   O     0.12940   0.20391   0.84968   0.00000  Uiso   1.00
O525   O     0.20824   0.17759   0.64606   0.00000  Uiso   1.00
O526   O     0.17451   0.15880   0.84968   0.00000  Uiso   1.00
O527   O     0.17930   0.08019   0.78213   0.00000  Uiso   1.00
O528   O     0.14632   0.26085   0.77013   0.00000  Uiso   1.00
O529   O     0.07412   0.13291   0.73413   0.00000  Uiso   1.00
O530   O     0.26693   0.19272   0.71360   0.00000  Uiso   1.00
C531   C     0.05294   0.15974   0.75964   0.00000  Uiso   1.00
C532   C     0.28070   0.17407   0.74035   0.00000  Uiso   1.00
C533   C     0.15629   0.05598   0.76007   0.00000  Uiso   1.00
C534   C     0.17652   0.27788   0.74025   0.00000  Uiso   1.00
C535   C     0.18537   0.14812   0.62952   0.00000  Uiso   1.00
C536   C     0.14984   0.18602   0.87086   0.00000  Uiso   1.00
C537   C     0.23945   0.12150   0.51064   0.00000  Uiso   1.00
H538   H     0.24628   0.10682   0.57365   0.00000  Uiso   1.00
H539   H     0.26750   0.10700   0.99267   0.00000  Uiso   1.00
C540   C     0.19290   0.14145   0.58144   0.00000  Uiso   1.00
C541   C     0.10207   0.20741   0.94499   0.00000  Uiso   1.00
C542   C     0.08448   0.19633   0.98873   0.00000  Uiso   1.00
C543   C     0.10721   0.17553   0.50960   0.00000  Uiso   1.00
C544   C     0.15074   0.17065   0.98958   0.00000  Uiso   1.00
C545   C     0.16768   0.17858   0.94391   0.00000  Uiso   1.00
C546   C     0.17740   0.15652   0.51296   0.00000  Uiso   1.00
C547   C     0.21665   0.14196   0.98858   0.00000  Uiso   1.00
C548   C     0.23346   0.15052   0.94359   0.00000  Uiso   1.00
C549   C     0.21063   0.17202   0.92316   0.00000  Uiso   1.00
C550   C     0.16817   0.15937   0.56006   0.00000  Uiso   1.00
C551   C     0.22731   0.12098   0.55687   0.00000  Uiso   1.00
C552   C     0.14127   0.19314   0.92040   0.00000  Uiso   1.00
C553   C     0.32628   0.17877   0.73837   0.00000  Uiso   1.00
C554   C     0.00785   0.15627   0.76318   0.00000  Uiso   1.00
C555   C     0.18028   0.32245   0.73684   0.00000  Uiso   1.00
C556   C     0.15172   0.01209   0.76406   0.00000  Uiso   1.00
F557   F     0.31588   0.12562   0.78746   0.00000  Uiso   1.00
F558   F     0.21346   0.00719   0.70545   0.00000  Uiso   1.00
F559   F     0.11778   0.32889   0.79567   0.00000  Uiso   1.00
N560   N     0.27532   0.14095   0.91920   0.00000  Uiso   1.00
O561   O     0.28114   0.12383   0.87856   0.00000  Uiso   1.00
O562   O     0.30845   0.15384   0.93523   0.00000  Uiso   1.00
F563   F     0.13993   0.18477   0.58542   0.00000  Uiso   1.00
N564   N     0.07983   0.23264   0.92587   0.00000  Uiso   1.00
O565   O     0.03837   0.22595   0.93267   0.00000  Uiso   1.00
O566   O     0.10016   0.26642   0.90788   0.00000  Uiso   1.00
F567   F     0.08526   0.15804   0.54792   0.00000  Uiso   1.00
F568   F     0.04459   0.20501   0.51117   0.00000  Uiso   1.00
F569   F     0.23228   0.18964   0.88474   0.00000  Uiso   1.00
F570   F     0.02011   0.20641   0.71115   0.00000  Uiso   1.00
Zn571  Zn    0.52672   0.13994   0.78734   0.00000  Uiso   1.00
Zn572  Zn    0.46713   0.12458   0.71875   0.00000  Uiso   1.00
Zn573  Zn    0.54389   0.19775   0.70657   0.00000  Uiso   1.00
Zn574  Zn    0.46226   0.20439   0.78733   0.00000  Uiso   1.00
O575   O     0.50000   0.16667   0.75000   0.00000  Uiso   1.00
O576   O     0.40405   0.18878   0.78213   0.00000  Uiso   1.00
O577   O     0.58824   0.15226   0.77013   0.00000  Uiso   1.00
O578   O     0.47093   0.06944   0.73413   0.00000  Uiso   1.00
O579   O     0.53678   0.25620   0.71360   0.00000  Uiso   1.00
O580   O     0.48784   0.12637   0.65458   0.00000  Uiso   1.00
O581   O     0.46274   0.20391   0.84968   0.00000  Uiso   1.00
O582   O     0.54157   0.17759   0.64606   0.00000  Uiso   1.00
O583   O     0.50785   0.15880   0.84968   0.00000  Uiso   1.00
O584   O     0.51264   0.08019   0.78213   0.00000  Uiso   1.00
O585   O     0.47965   0.26085   0.77013   0.00000  Uiso   1.00
O586   O     0.40745   0.13291   0.73413   0.00000  Uiso   1.00
O587   O     0.60026   0.19272   0.71360   0.00000  Uiso   1.00
C588   C     0.38628   0.15974   0.75964   0.00000  Uiso   1.00
C589   C     0.61404   0.17407   0.74035   0.00000  Uiso   1.00
C590   C     0.48962   0.05598   0.76007   0.00000  Uiso   1.00
C591   C     0.50985   0.27788   0.74025   0.00000  Uiso   1.00
C592   C     0.51870   0.14812   0.62952   0.00000  Uiso   1.00
C593   C     0.48318   0.18602   0.87086   0.00000  Uiso   1.00
C594   C     0.57278   0.12150   0.51064   0.00000  Uiso   1.00
H595   H     0.57961   0.10682   0.57365   0.00000  Uiso   1.00
H596   H     0.60083   0.10700   0.99267   0.00000  Uiso   1.00
C597   C     0.52623   0.14145   0.58144   0.00000  Uiso   1.00
C598   C     0.43541   0.20741   0.94499   0.00000  Uiso   1.00
C599   C     0.41781   0.19633   0.98873   0.00000  Uiso   1.00
C600   C     0.44054   0.17553   0.50960   0.00000  Uiso   1.00
C601   C     0.48407   0.17065   0.98958   0.00000  Uiso   1.00
C602   C     0.50102   0.17858   0.94391   0.00000  Uiso   1.00
C603   C     0.51073   0.15652   0.51296   0.00000  Uiso   1.00
C604   C     0.54998   0.14196   0.98858   0.00000  Uiso   1.00
C605   C     0.56679   0.15052   0.94359   0.00000  Uiso   1.00
C606   C     0.54396   0.17202   0.92316   0.00000  Uiso   1.00
C607   C     0.50151   0.15937   0.56006   0.00000  Uiso   1.00
C608   C     0.56064   0.12098   0.55687   0.00000  Uiso   1.00
C609   C     0.47460   0.19314   0.92040   0.00000  Uiso   1.00
C610   C     0.65961   0.17877   0.73837   0.00000  Uiso   1.00
C611   C     0.34118   0.15627   0.76318   0.00000  Uiso   1.00
C612   C     0.51362   0.32245   0.73684   0.00000  Uiso   1.00
C613   C     0.48505   0.01209   0.76406   0.00000  Uiso   1.00
F614   F     0.64922   0.12562   0.78746   0.00000  Uiso   1.00
F615   F     0.54679   0.00719   0.70545   0.00000  Uiso   1.00
F616   F     0.45111   0.32889   0.79567   0.00000  Uiso   1.00
N617   N     0.60866   0.14095   0.91920   0.00000  Uiso   1.00
O618   O     0.61448   0.12383   0.87856   0.00000  Uiso   1.00
O619   O     0.64178   0.15384   0.93523   0.00000  Uiso   1.00
F620   F     0.47326   0.18477   0.58542   0.00000  Uiso   1.00
N621   N     0.41317   0.23264   0.92587   0.00000  Uiso   1.00
O622   O     0.37171   0.22595   0.93267   0.00000  Uiso   1.00
O623   O     0.43350   0.26642   0.90788   0.00000  Uiso   1.00
F624   F     0.41859   0.15804   0.54792   0.00000  Uiso   1.00
F625   F     0.37792   0.20501   0.51117   0.00000  Uiso   1.00
F626   F     0.56561   0.18964   0.88474   0.00000  Uiso   1.00
F627   F     0.35344   0.20641   0.71115   0.00000  Uiso   1.00
Zn628  Zn    0.86005   0.13994   0.78734   0.00000  Uiso   1.00
Zn629  Zn    0.80046   0.12458   0.71875   0.00000  Uiso   1.00
Zn630  Zn    0.87723   0.19775   0.70657   0.00000  Uiso   1.00
Zn631  Zn    0.79560   0.20439   0.78733   0.00000  Uiso   1.00
O632   O     0.83333   0.16667   0.75000   0.00000  Uiso   1.00
O633   O     0.73738   0.18878   0.78213   0.00000  Uiso   1.00
O634   O     0.92158   0.15226   0.77013   0.00000  Uiso   1.00
O635   O     0.80426   0.06944   0.73413   0.00000  Uiso   1.00
O636   O     0.87012   0.25620   0.71360   0.00000  Uiso   1.00
O637   O     0.82118   0.12637   0.65458   0.00000  Uiso   1.00
O638   O     0.79607   0.20391   0.84968   0.00000  Uiso   1.00
O639   O     0.87491   0.17759   0.64606   0.00000  Uiso   1.00
O640   O     0.84118   0.15880   0.84968   0.00000  Uiso   1.00
O641   O     0.84597   0.08019   0.78213   0.00000  Uiso   1.00
O642   O     0.81298   0.26085   0.77013   0.00000  Uiso   1.00
O643   O     0.74078   0.13291   0.73413   0.00000  Uiso   1.00
O644   O     0.93360   0.19272   0.71360   0.00000  Uiso   1.00
C645   C     0.71961   0.15974   0.75964   0.00000  Uiso   1.00
C646   C     0.94737   0.17407   0.74035   0.00000  Uiso   1.00
C647   C     0.82296   0.05598   0.76007   0.00000  Uiso   1.00
C648   C     0.84318   0.27788   0.74025   0.00000  Uiso   1.00
C649   C     0.85203   0.14812   0.62952   0.00000  Uiso   1.00
C650   C     0.81651   0.18602   0.87086   0.00000  Uiso   1.00
C651   C     0.90612   0.12150   0.51064   0.00000  Uiso   1.00
H652   H     0.91295   0.10682   0.57365   0.00000  Uiso   1.00
H653   H     0.93417   0.10700   0.99267   0.00000  Uiso   1.00
C654   C     0.85957   0.14145   0.58144   0.00000  Uiso   1.00
C655   C     0.76874   0.20741   0.94499   0.00000  Uiso   1.00
C656   C     0.75114   0.19633   0.98873   0.00000  Uiso   1.00
C657   C     0.77388   0.17553   0.50960   0.00000  Uiso   1.00
C658   C     0.81741   0.17065   0.98958   0.00000  Uiso   1.00
C659   C     0.83435   0.17858   0.94391   0.00000  Uiso   1.00
C660   C     0.84407   0.15652   0.51296   0.00000  Uiso   1.00
C661   C     0.88331   0.14196   0.98858   0.00000  Uiso   1.00
C662   C     0.90012   0.15052   0.94359   0.00000  Uiso   1.00
C663   C     0.87729   0.17202   0.92316   0.00000  Uiso   1.00
C664   C     0.83484   0.15937   0.56006   0.00000  Uiso   1.00
C665   C     0.89398   0.12098   0.55687   0.00000  Uiso   1.00
C666   C     0.80794   0.19314   0.92040   0.00000  Uiso   1.00
C667   C     0.99295   0.17877   0.73837   0.00000  Uiso   1.00
C668   C     0.67452   0.15627   0.76318   0.00000  Uiso   1.00
C669   C     0.84695   0.32245   0.73684   0.00000  Uiso   1.00
C670   C     0.81839   0.01209   0.76406   0.00000  Uiso   1.00
F671   F     0.98255   0.12562   0.78746   0.00000  Uiso   1.00
F672   F     0.88012   0.00719   0.70545   0.00000  Uiso   1.00
F673   F     0.78445   0.32889   0.79567   0.00000  Uiso   1.00
N674   N     0.94199   0.14095   0.91920   0.00000  Uiso   1.00
O675   O     0.94781   0.12383   0.87856   0.00000  Uiso   1.00
O676   O     0.97511   0.15384   0.93523   0.00000  Uiso   1.00
F677   F     0.80660   0.18477   0.58542   0.00000  Uiso   1.00
N678   N     0.74650   0.23264   0.92587   0.00000  Uiso   1.00
O679   O     0.70504   0.22595   0.93267   0.00000  Uiso   1.00
O680   O     0.76683   0.26642   0.90788   0.00000  Uiso   1.00
F681   F     0.75193   0.15804   0.54792   0.00000  Uiso   1.00
F682   F     0.71125   0.20501   0.51117   0.00000  Uiso   1.00
F683   F     0.89894   0.18964   0.88474   0.00000  Uiso   1.00
F684   F     0.68678   0.20641   0.71115   0.00000  Uiso   1.00
Zn685  Zn    0.19338   0.47327   0.78734   0.00000  Uiso   1.00
Zn686  Zn    0.13379   0.45791   0.71875   0.00000  Uiso   1.00
Zn687  Zn    0.21056   0.53109   0.70657   0.00000  Uiso   1.00
Zn688  Zn    0.12893   0.53773   0.78733   0.00000  Uiso   1.00
O689   O     0.16667   0.50000   0.75000   0.00000  Uiso   1.00
O690   O     0.07071   0.52211   0.78213   0.00000  Uiso   1.00
O691   O     0.25491   0.48559   0.77013   0.00000  Uiso   1.00
O692   O     0.13760   0.40277   0.73413   0.00000  Uiso   1.00
O693   O     0.20345   0.58953   0.71360   0.00000  Uiso   1.00
O694   O     0.15451   0.45970   0.65458   0.00000  Uiso   1.00
O695   O     0.12940   0.53724   0.84968   0.00000  Uiso   1.00
O696   O     0.20824   0.51092   0.64606   0.00000  Uiso   1.00
O697   O     0.17451   0.49213   0.84968   0.00000  Uiso   1.00
O698   O     0.17930   0.41352   0.78213   0.00000  Uiso   1.00
O699   O     0.14632   0.59418   0.77013   0.00000  Uiso   1.00
O700   O     0.07412   0.46625   0.73413   0.00000  Uiso   1.00
O701   O     0.26693   0.52605   0.71360   0.00000  Uiso   1.00
C702   C     0.05294   0.49308   0.75964   0.00000  Uiso   1.00
C703   C     0.28070   0.50741   0.74035   0.00000  Uiso   1.00
C704   C     0.15629   0.38932   0.76007   0.00000  Uiso   1.00
C705   C     0.17652   0.61122   0.74025   0.00000  Uiso   1.00
C706   C     0.18537   0.48145   0.62952   0.00000  Uiso   1.00
C707   C     0.14984   0.51935   0.87086   0.00000  Uiso   1.00
C708   C     0.23945   0.45483   0.51064   0.00000  Uiso   1.00
H709   H     0.24628   0.44016   0.57365   0.00000  Uiso   1.00
H710   H     0.26750   0.44034   0.99267   0.00000  Uiso   1.00
C711   C     0.19290   0.47478   0.58144   0.00000  Uiso   1.00
C712   C     0.10207   0.54074   0.94499   0.00000  Uiso   1.00
C713   C     0.08448   0.52966   0.98873   0.00000  Uiso   1.00
C714   C     0.10721   0.50887   0.50960   0.00000  Uiso   1.00
C715   C     0.15074   0.50398   0.98958   0.00000  Uiso   1.00
C716   C     0.16768   0.51191   0.94391   0.00000  Uiso   1.00
C717   C     0.17740   0.48985   0.51296   0.00000  Uiso   1.00
C718   C     0.21665   0.47530   0.98858   0.00000  Uiso   1.00
C719   C     0.23346   0.48385   0.94359   0.00000  Uiso   1.00
C720   C     0.21063   0.50535   0.92316   0.00000  Uiso   1.00
C721   C     0.16817   0.49271   0.56006   0.00000  Uiso   1.00
C722   C     0.22731   0.45432   0.55687   0.00000  Uiso   1.00
C723   C     0.14127   0.52647   0.92040   0.00000  Uiso   1.00
C724   C     0.32628   0.51210   0.73837   0.00000  Uiso   1.00
C725   C     0.00785   0.48960   0.76318   0.00000  Uiso   1.00
C726   C     0.18028   0.65578   0.73684   0.00000  Uiso   1.00
C727   C     0.15172   0.34542   0.76406   0.00000  Uiso   1.00
F728   F     0.31588   0.45895   0.78746   0.00000  Uiso   1.00
F729   F     0.21346   0.34052   0.70545   0.00000  Uiso   1.00
F730   F     0.11778   0.66223   0.79567   0.00000  Uiso   1.00
N731   N     0.27532   0.47428   0.91920   0.00000  Uiso   1.00
O732   O     0.28114   0.45717   0.87856   0.00000  Uiso   1.00
O733   O     0.30845   0.48717   0.93523   0.00000  Uiso   1.00
F734   F     0.13993   0.51810   0.58542   0.00000  Uiso   1.00
N735   N     0.07983   0.56597   0.92587   0.00000  Uiso   1.00
O736   O     0.03837   0.55928   0.93267   0.00000  Uiso   1.00
O737   O     0.10016   0.59975   0.90788   0.00000  Uiso   1.00
F738   F     0.08526   0.49137   0.54792   0.00000  Uiso   1.00
F739   F     0.04459   0.53834   0.51117   0.00000  Uiso   1.00
F740   F     0.23228   0.52297   0.88474   0.00000  Uiso   1.00
F741   F     0.02011   0.53975   0.71115   0.00000  Uiso   1.00
Zn742  Zn    0.52672   0.47327   0.78734   0.00000  Uiso   1.00
Zn743  Zn    0.46713   0.45791   0.71875   0.00000  Uiso   1.00
Zn744  Zn    0.54389   0.53109   0.70657   0.00000  Uiso   1.00
Zn745  Zn    0.46226   0.53773   0.78733   0.00000  Uiso   1.00
O746   O     0.50000   0.50000   0.75000   0.00000  Uiso   1.00
O747   O     0.40405   0.52211   0.78213   0.00000  Uiso   1.00
O748   O     0.58824   0.48559   0.77013   0.00000  Uiso   1.00
O749   O     0.47093   0.40277   0.73413   0.00000  Uiso   1.00
O750   O     0.53678   0.58953   0.71360   0.00000  Uiso   1.00
O751   O     0.48784   0.45970   0.65458   0.00000  Uiso   1.00
O752   O     0.46274   0.53724   0.84968   0.00000  Uiso   1.00
O753   O     0.54157   0.51092   0.64606   0.00000  Uiso   1.00
O754   O     0.50785   0.49213   0.84968   0.00000  Uiso   1.00
O755   O     0.51264   0.41352   0.78213   0.00000  Uiso   1.00
O756   O     0.47965   0.59418   0.77013   0.00000  Uiso   1.00
O757   O     0.40745   0.46625   0.73413   0.00000  Uiso   1.00
O758   O     0.60026   0.52605   0.71360   0.00000  Uiso   1.00
C759   C     0.38628   0.49308   0.75964   0.00000  Uiso   1.00
C760   C     0.61404   0.50741   0.74035   0.00000  Uiso   1.00
C761   C     0.48962   0.38932   0.76007   0.00000  Uiso   1.00
C762   C     0.50985   0.61122   0.74025   0.00000  Uiso   1.00
C763   C     0.51870   0.48145   0.62952   0.00000  Uiso   1.00
C764   C     0.48318   0.51935   0.87086   0.00000  Uiso   1.00
C765   C     0.57278   0.45483   0.51064   0.00000  Uiso   1.00
H766   H     0.57961   0.44016   0.57365   0.00000  Uiso   1.00
H767   H     0.60083   0.44034   0.99267   0.00000  Uiso   1.00
C768   C     0.52623   0.47478   0.58144   0.00000  Uiso   1.00
C769   C     0.43541   0.54074   0.94499   0.00000  Uiso   1.00
C770   C     0.41781   0.52966   0.98873   0.00000  Uiso   1.00
C771   C     0.44054   0.50887   0.50960   0.00000  Uiso   1.00
C772   C     0.48407   0.50398   0.98958   0.00000  Uiso   1.00
C773   C     0.50102   0.51191   0.94391   0.00000  Uiso   1.00
C774   C     0.51073   0.48985   0.51296   0.00000  Uiso   1.00
C775   C     0.54998   0.47530   0.98858   0.00000  Uiso   1.00
C776   C     0.56679   0.48385   0.94359   0.00000  Uiso   1.00
C777   C     0.54396   0.50535   0.92316   0.00000  Uiso   1.00
C778   C     0.50151   0.49271   0.56006   0.00000  Uiso   1.00
C779   C     0.56064   0.45432   0.55687   0.00000  Uiso   1.00
C780   C     0.47460   0.52647   0.92040   0.00000  Uiso   1.00
C781   C     0.65961   0.51210   0.73837   0.00000  Uiso   1.00
C782   C     0.34118   0.48960   0.76318   0.00000  Uiso   1.00
C783   C     0.51362   0.65578   0.73684   0.00000  Uiso   1.00
C784   C     0.48505   0.34542   0.76406   0.00000  Uiso   1.00
F785   F     0.64922   0.45895   0.78746   0.00000  Uiso   1.00
F786   F     0.54679   0.34052   0.70545   0.00000  Uiso   1.00
F787   F     0.45111   0.66223   0.79567   0.00000  Uiso   1.00
N788   N     0.60866   0.47428   0.91920   0.00000  Uiso   1.00
O789   O     0.61448   0.45717   0.87856   0.00000  Uiso   1.00
O790   O     0.64178   0.48717   0.93523   0.00000  Uiso   1.00
F791   F     0.47326   0.51810   0.58542   0.00000  Uiso   1.00
N792   N     0.41317   0.56597   0.92587   0.00000  Uiso   1.00
O793   O     0.37171   0.55928   0.93267   0.00000  Uiso   1.00
O794   O     0.43350   0.59975   0.90788   0.00000  Uiso   1.00
F795   F     0.41859   0.49137   0.54792   0.00000  Uiso   1.00
F796   F     0.37792   0.53834   0.51117   0.00000  Uiso   1.00
F797   F     0.56561   0.52297   0.88474   0.00000  Uiso   1.00
F798   F     0.35344   0.53975   0.71115   0.00000  Uiso   1.00
Zn799  Zn    0.86005   0.47327   0.78734   0.00000  Uiso   1.00
Zn800  Zn    0.80046   0.45791   0.71875   0.00000  Uiso   1.00
Zn801  Zn    0.87723   0.53109   0.70657   0.00000  Uiso   1.00
Zn802  Zn    0.79560   0.53773   0.78733   0.00000  Uiso   1.00
O803   O     0.83333   0.50000   0.75000   0.00000  Uiso   1.00
O804   O     0.73738   0.52211   0.78213   0.00000  Uiso   1.00
O805   O     0.92158   0.48559   0.77013   0.00000  Uiso   1.00
O806   O     0.80426   0.40277   0.73413   0.00000  Uiso   1.00
O807   O     0.87012   0.58953   0.71360   0.00000  Uiso   1.00
O808   O     0.82118   0.45970   0.65458   0.00000  Uiso   1.00
O809   O     0.79607   0.53724   0.84968   0.00000  Uiso   1.00
O810   O     0.87491   0.51092   0.64606   0.00000  Uiso   1.00
O811   O     0.84118   0.49213   0.84968   0.00000  Uiso   1.00
O812   O     0.84597   0.41352   0.78213   0.00000  Uiso   1.00
O813   O     0.81298   0.59418   0.77013   0.00000  Uiso   1.00
O814   O     0.74078   0.46625   0.73413   0.00000  Uiso   1.00
O815   O     0.93360   0.52605   0.71360   0.00000  Uiso   1.00
C816   C     0.71961   0.49308   0.75964   0.00000  Uiso   1.00
C817   C     0.94737   0.50741   0.74035   0.00000  Uiso   1.00
C818   C     0.82296   0.38932   0.76007   0.00000  Uiso   1.00
C819   C     0.84318   0.61122   0.74025   0.00000  Uiso   1.00
C820   C     0.85203   0.48145   0.62952   0.00000  Uiso   1.00
C821   C     0.81651   0.51935   0.87086   0.00000  Uiso   1.00
C822   C     0.90612   0.45483   0.51064   0.00000  Uiso   1.00
H823   H     0.91295   0.44016   0.57365   0.00000  Uiso   1.00
H824   H     0.93417   0.44034   0.99267   0.00000  Uiso   1.00
C825   C     0.85957   0.47478   0.58144   0.00000  Uiso   1.00
C826   C     0.76874   0.54074   0.94499   0.00000  Uiso   1.00
C827   C     0.75114   0.52966   0.98873   0.00000  Uiso   1.00
C828   C     0.77388   0.50887   0.50960   0.00000  Uiso   1.00
C829   C     0.81741   0.50398   0.98958   0.00000  Uiso   1.00
C830   C     0.83435   0.51191   0.94391   0.00000  Uiso   1.00
C831   C     0.84407   0.48985   0.51296   0.00000  Uiso   1.00
C832   C     0.88331   0.47530   0.98858   0.00000  Uiso   1.00
C833   C     0.90012   0.48385   0.94359   0.00000  Uiso   1.00
C834   C     0.87729   0.50535   0.92316   0.00000  Uiso   1.00
C835   C     0.83484   0.49271   0.56006   0.00000  Uiso   1.00
C836   C     0.89398   0.45432   0.55687   0.00000  Uiso   1.00
C837   C     0.80794   0.52647   0.92040   0.00000  Uiso   1.00
C838   C     0.99295   0.51210   0.73837   0.00000  Uiso   1.00
C839   C     0.67452   0.48960   0.76318   0.00000  Uiso   1.00
C840   C     0.84695   0.65578   0.73684   0.00000  Uiso   1.00
C841   C     0.81839   0.34542   0.76406   0.00000  Uiso   1.00
F842   F     0.98255   0.45895   0.78746   0.00000  Uiso   1.00
F843   F     0.88012   0.34052   0.70545   0.00000  Uiso   1.00
F844   F     0.78445   0.66223   0.79567   0.00000  Uiso   1.00
N845   N     0.94199   0.47428   0.91920   0.00000  Uiso   1.00
O846   O     0.94781   0.45717   0.87856   0.00000  Uiso   1.00
O847   O     0.97511   0.48717   0.93523   0.00000  Uiso   1.00
F848   F     0.80660   0.51810   0.58542   0.00000  Uiso   1.00
N849   N     0.74650   0.56597   0.92587   0.00000  Uiso   1.00
O850   O     0.70504   0.55928   0.93267   0.00000  Uiso   1.00
O851   O     0.76683   0.59975   0.90788   0.00000  Uiso   1.00
F852   F     0.75193   0.49137   0.54792   0.00000  Uiso   1.00
F853   F     0.71125   0.53834   0.51117   0.00000  Uiso   1.00
F854   F     0.89894   0.52297   0.88474   0.00000  Uiso   1.00
F855   F     0.68678   0.53975   0.71115   0.00000  Uiso   1.00
Zn856  Zn    0.19338   0.80661   0.78734   0.00000  Uiso   1.00
Zn857  Zn    0.13379   0.79124   0.71875   0.00000  Uiso   1.00
Zn858  Zn    0.21056   0.86442   0.70657   0.00000  Uiso   1.00
Zn859  Zn    0.12893   0.87106   0.78733   0.00000  Uiso   1.00
O860   O     0.16667   0.83333   0.75000   0.00000  Uiso   1.00
O861   O     0.07071   0.85544   0.78213   0.00000  Uiso   1.00
O862   O     0.25491   0.81892   0.77013   0.00000  Uiso   1.00
O863   O     0.13760   0.73610   0.73413   0.00000  Uiso   1.00
O864   O     0.20345   0.92286   0.71360   0.00000  Uiso   1.00
O865   O     0.15451   0.79304   0.65458   0.00000  Uiso   1.00
O866   O     0.12940   0.87058   0.84968   0.00000  Uiso   1.00
O867   O     0.20824   0.84425   0.64606   0.00000  Uiso   1.00
O868   O     0.17451   0.82546   0.84968   0.00000  Uiso   1.00
O869   O     0.17930   0.74686   0.78213   0.00000  Uiso   1.00
O870   O     0.14632   0.92751   0.77013   0.00000  Uiso   1.00
O871   O     0.07412   0.79958   0.73413   0.00000  Uiso   1.00
O872   O     0.26693   0.85939   0.71360   0.00000  Uiso   1.00
C873   C     0.05294   0.82641   0.75964   0.00000  Uiso   1.00
C874   C     0.28070   0.84074   0.74035   0.00000  Uiso   1.00
C875   C     0.15629   0.72265   0.76007   0.00000  Uiso   1.00
C876   C     0.17652   0.94455   0.74025   0.00000  Uiso   1.00
C877   C     0.18537   0.81479   0.62952   0.00000  Uiso   1.00
C878   C     0.14984   0.85269   0.87086   0.00000  Uiso   1.00
C879   C     0.23945   0.78817   0.51064   0.00000  Uiso   1.00
H880   H     0.24628   0.77349   0.57365   0.00000  Uiso   1.00
H881   H     0.26750   0.77367   0.99267   0.00000  Uiso   1.00
C882   C     0.19290   0.80811   0.58144   0.00000  Uiso   1.00
C883   C     0.10207   0.87408   0.94499   0.00000  Uiso   1.00
C884   C     0.08448   0.86300   0.98873   0.00000  Uiso   1.00
C885   C     0.10721   0.84220   0.50960   0.00000  Uiso   1.00
C886   C     0.15074   0.83732   0.98958   0.00000  Uiso   1.00
C887   C     0.16768   0.84525   0.94391   0.00000  Uiso   1.00
C888   C     0.17740   0.82319   0.51296   0.00000  Uiso   1.00
C889   C     0.21665   0.80863   0.98858   0.00000  Uiso   1.00
C890   C     0.23346   0.81719   0.94359   0.00000  Uiso   1.00
C891   C     0.21063   0.83868   0.92316   0.00000  Uiso   1.00
C892   C     0.16817   0.82604   0.56006   0.00000  Uiso   1.00
C893   C     0.22731   0.78765   0.55687   0.00000  Uiso   1.00
C894   C     0.14127   0.85981   0.92040   0.00000  Uiso   1.00
C895   C     0.32628   0.84543   0.73837   0.00000  Uiso   1.00
C896   C     0.00785   0.82294   0.76318   0.00000  Uiso   1.00
C897   C     0.18028   0.98912   0.73684   0.00000  Uiso   1.00
C898   C     0.15172   0.67876   0.76406   0.00000  Uiso   1.00
F899   F     0.31588   0.79228   0.78746   0.00000  Uiso   1.00
F900   F     0.21346   0.67386   0.70545   0.00000  Uiso   1.00
F901   F     0.11778   0.99556   0.79567   0.00000  Uiso   1.00
N902   N     0.27532   0.80762   0.91920   0.00000  Uiso   1.00
O903   O     0.28114   0.79050   0.87856   0.00000  Uiso   1.00
O904   O     0.30845   0.82051   0.93523   0.00000  Uiso   1.00
F905   F     0.13993   0.85144   0.58542   0.00000  Uiso   1.00
N906   N     0.07983   0.89930   0.92587   0.00000  Uiso   1.00
O907   O     0.03837   0.89261   0.93267   0.00000  Uiso   1.00
O908   O     0.10016   0.93308   0.90788   0.00000  Uiso   1.00
F909   F     0.08526   0.82471   0.54792   0.00000  Uiso   1.00
F910   F     0.04459   0.87168   0.51117   0.00000  Uiso   1.00
F911   F     0.23228   0.85630   0.88474   0.00000  Uiso   1.00
F912   F     0.02011   0.87308   0.71115   0.00000  Uiso   1.00
Zn913  Zn    0.52672   0.80661   0.78734   0.00000  Uiso   1.00
Zn914  Zn    0.46713   0.79124   0.71875   0.00000  Uiso   1.00
Zn915  Zn    0.54389   0.86442   0.70657   0.00000  Uiso   1.00
Zn916  Zn    0.46226   0.87106   0.78733   0.00000  Uiso   1.00
O917   O     0.50000   0.83333   0.75000   0.00000  Uiso   1.00
O918   O     0.40405   0.85544   0.78213   0.00000  Uiso   1.00
O919   O     0.58824   0.81892   0.77013   0.00000  Uiso   1.00
O920   O     0.47093   0.73610   0.73413   0.00000  Uiso   1.00
O921   O     0.53678   0.92286   0.71360   0.00000  Uiso   1.00
O922   O     0.48784   0.79304   0.65458   0.00000  Uiso   1.00
O923   O     0.46274   0.87058   0.84968   0.00000  Uiso   1.00
O924   O     0.54157   0.84425   0.64606   0.00000  Uiso   1.00
O925   O     0.50785   0.82546   0.84968   0.00000  Uiso   1.00
O926   O     0.51264   0.74686   0.78213   0.00000  Uiso   1.00
O927   O     0.47965   0.92751   0.77013   0.00000  Uiso   1.00
O928   O     0.40745   0.79958   0.73413   0.00000  Uiso   1.00
O929   O     0.60026   0.85939   0.71360   0.00000  Uiso   1.00
C930   C     0.38628   0.82641   0.75964   0.00000  Uiso   1.00
C931   C     0.61404   0.84074   0.74035   0.00000  Uiso   1.00
C932   C     0.48962   0.72265   0.76007   0.00000  Uiso   1.00
C933   C     0.50985   0.94455   0.74025   0.00000  Uiso   1.00
C934   C     0.51870   0.81479   0.62952   0.00000  Uiso   1.00
C935   C     0.48318   0.85269   0.87086   0.00000  Uiso   1.00
C936   C     0.57278   0.78817   0.51064   0.00000  Uiso   1.00
H937   H     0.57961   0.77349   0.57365   0.00000  Uiso   1.00
H938   H     0.60083   0.77367   0.99267   0.00000  Uiso   1.00
C939   C     0.52623   0.80811   0.58144   0.00000  Uiso   1.00
C940   C     0.43541   0.87408   0.94499   0.00000  Uiso   1.00
C941   C     0.41781   0.86300   0.98873   0.00000  Uiso   1.00
C942   C     0.44054   0.84220   0.50960   0.00000  Uiso   1.00
C943   C     0.48407   0.83732   0.98958   0.00000  Uiso   1.00
C944   C     0.50102   0.84525   0.94391   0.00000  Uiso   1.00
C945   C     0.51073   0.82319   0.51296   0.00000  Uiso   1.00
C946   C     0.54998   0.80863   0.98858   0.00000  Uiso   1.00
C947   C     0.56679   0.81719   0.94359   0.00000  Uiso   1.00
C948   C     0.54396   0.83868   0.92316   0.00000  Uiso   1.00
C949   C     0.50151   0.82604   0.56006   0.00000  Uiso   1.00
C950   C     0.56064   0.78765   0.55687   0.00000  Uiso   1.00
C951   C     0.47460   0.85981   0.92040   0.00000  Uiso   1.00
C952   C     0.65961   0.84543   0.73837   0.00000  Uiso   1.00
C953   C     0.34118   0.82294   0.76318   0.00000  Uiso   1.00
C954   C     0.51362   0.98912   0.73684   0.00000  Uiso   1.00
C955   C     0.48505   0.67876   0.76406   0.00000  Uiso   1.00
F956   F     0.64922   0.79228   0.78746   0.00000  Uiso   1.00
F957   F     0.54679   0.67386   0.70545   0.00000  Uiso   1.00
F958   F     0.45111   0.99556   0.79567   0.00000  Uiso   1.00
N959   N     0.60866   0.80762   0.91920   0.00000  Uiso   1.00
O960   O     0.61448   0.79050   0.87856   0.00000  Uiso   1.00
O961   O     0.64178   0.82051   0.93523   0.00000  Uiso   1.00
F962   F     0.47326   0.85144   0.58542   0.00000  Uiso   1.00
N963   N     0.41317   0.89930   0.92587   0.00000  Uiso   1.00
O964   O     0.37171   0.89261   0.93267   0.00000  Uiso   1.00
O965   O     0.43350   0.93308   0.90788   0.00000  Uiso   1.00
F966   F     0.41859   0.82471   0.54792   0.00000  Uiso   1.00
F967   F     0.37792   0.87168   0.51117   0.00000  Uiso   1.00
F968   F     0.56561   0.85630   0.88474   0.00000  Uiso   1.00
F969   F     0.35344   0.87308   0.71115   0.00000  Uiso   1.00
Zn970  Zn    0.86005   0.80661   0.78734   0.00000  Uiso   1.00
Zn971  Zn    0.80046   0.79124   0.71875   0.00000  Uiso   1.00
Zn972  Zn    0.87723   0.86442   0.70657   0.00000  Uiso   1.00
Zn973  Zn    0.79560   0.87106   0.78733   0.00000  Uiso   1.00
O974   O     0.83333   0.83333   0.75000   0.00000  Uiso   1.00
O975   O     0.73738   0.85544   0.78213   0.00000  Uiso   1.00
O976   O     0.92158   0.81892   0.77013   0.00000  Uiso   1.00
O977   O     0.80426   0.73610   0.73413   0.00000  Uiso   1.00
O978   O     0.87012   0.92286   0.71360   0.00000  Uiso   1.00
O979   O     0.82118   0.79304   0.65458   0.00000  Uiso   1.00
O980   O     0.79607   0.87058   0.84968   0.00000  Uiso   1.00
O981   O     0.87491   0.84425   0.64606   0.00000  Uiso   1.00
O982   O     0.84118   0.82546   0.84968   0.00000  Uiso   1.00
O983   O     0.84597   0.74686   0.78213   0.00000  Uiso   1.00
O984   O     0.81298   0.92751   0.77013   0.00000  Uiso   1.00
O985   O     0.74078   0.79958   0.73413   0.00000  Uiso   1.00
O986   O     0.93360   0.85939   0.71360   0.00000  Uiso   1.00
C987   C     0.71961   0.82641   0.75964   0.00000  Uiso   1.00
C988   C     0.94737   0.84074   0.74035   0.00000  Uiso   1.00
C989   C     0.82296   0.72265   0.76007   0.00000  Uiso   1.00
C990   C     0.84318   0.94455   0.74025   0.00000  Uiso   1.00
C991   C     0.85203   0.81479   0.62952   0.00000  Uiso   1.00
C992   C     0.81651   0.85269   0.87086   0.00000  Uiso   1.00
C993   C     0.90612   0.78817   0.51064   0.00000  Uiso   1.00
H994   H     0.91295   0.77349   0.57365   0.00000  Uiso   1.00
H995   H     0.93417   0.77367   0.99267   0.00000  Uiso   1.00
C996   C     0.85957   0.80811   0.58144   0.00000  Uiso   1.00
C997   C     0.76874   0.87408   0.94499   0.00000  Uiso   1.00
C998   C     0.75114   0.86300   0.98873   0.00000  Uiso   1.00
C999   C     0.77388   0.84220   0.50960   0.00000  Uiso   1.00
C1000  C     0.81741   0.83732   0.98958   0.00000  Uiso   1.00
C1001  C     0.83435   0.84525   0.94391   0.00000  Uiso   1.00
C1002  C     0.84407   0.82319   0.51296   0.00000  Uiso   1.00
C1003  C     0.88331   0.80863   0.98858   0.00000  Uiso   1.00
C1004  C     0.90012   0.81719   0.94359   0.00000  Uiso   1.00
C1005  C     0.87729   0.83868   0.92316   0.00000  Uiso   1.00
C1006  C     0.83484   0.82604   0.56006   0.00000  Uiso   1.00
C1007  C     0.89398   0.78765   0.55687   0.00000  Uiso   1.00
C1008  C     0.80794   0.85981   0.92040   0.00000  Uiso   1.00
C1009  C     0.99295   0.84543   0.73837   0.00000  Uiso   1.00
C1010  C     0.67452   0.82294   0.76318   0.00000  Uiso   1.00
C1011  C     0.84695   0.98912   0.73684   0.00000  Uiso   1.00
C1012  C     0.81839   0.67876   0.76406   0.00000  Uiso   1.00
F1013  F     0.98255   0.79228   0.78746   0.00000  Uiso   1.00
F1014  F     0.88012   0.67386   0.70545   0.00000  Uiso   1.00
F1015  F     0.78445   0.99556   0.79567   0.00000  Uiso   1.00
N1016  N     0.94199   0.80762   0.91920   0.00000  Uiso   1.00
O1017  O     0.94781   0.79050   0.87856   0.00000  Uiso   1.00
O1018  O     0.97511   0.82051   0.93523   0.00000  Uiso   1.00
F1019  F     0.80660   0.85144   0.58542   0.00000  Uiso   1.00
N1020  N     0.74650   0.89930   0.92587   0.00000  Uiso   1.00
O1021  O     0.70504   0.89261   0.93267   0.00000  Uiso   1.00
O1022  O     0.76683   0.93308   0.90788   0.00000  Uiso   1.00
F1023  F     0.75193   0.82471   0.54792   0.00000  Uiso   1.00
F1024  F     0.71125   0.87168   0.51117   0.00000  Uiso   1.00
F1025  F     0.89894   0.85630   0.88474   0.00000  Uiso   1.00
F1026  F     0.68678   0.87308   0.71115   0.00000  Uiso   1.00
loop_
_geom_bond_atom_site_label_1
_geom_bond_atom_site_label_2
_geom_bond_distance
_geom_bond_site_symmetry_2
_ccdc_geom_bond_type
Zn1    O5      1.961   .     S
Zn1    O13     1.931   .     S
Zn1    O14     1.932   .     S
Zn1    O7      1.928   .     S
Zn2    O16     1.929   .     S
Zn2    O5      1.946   .     S
Zn2    O10     1.936   .     S
Zn2    O8      1.939   .     S
Zn3    O9      1.933   .     S
Zn3    O12     1.939   .     S
Zn3    O17     1.938   .     S
Zn3    O5      1.940   .     S
Zn4    O15     1.936   .     S
Zn4    O11     1.944   .     S
Zn4    O6      1.935   .     S
Zn4    O5      1.934   .     S
O6     C18     1.274   .     A
O7     C19     1.278   .     A
O8     C20     1.276   .     A
O9     C21     1.274   .     A
O10    C22     1.275   .     A
O11    C23     1.284   .     A
O12    C22     1.274   .     A
O13    C23     1.291   .     A
O14    C20     1.277   .     A
O15    C21     1.271   .     A
O16    C18     1.266   .     A
O17    C19     1.285   .     A
C18    C41     1.433   .     S
C19    C40     1.456   .     S
C20    C43     1.432   .     S
C21    C42     1.453   .     S
C22    C27     1.446   .     S
C23    C39     1.489   .     S
C24    C38     1.388   .     A
C24    H539    1.081   1_554 S
C24    C547    1.408   1_554 S
H25    C38     1.084   .     S
H26    C537    1.081   .     S
C27    C37     1.392   .     A
C27    C38     1.393   .     A
C28    C29     1.396   .     A
C28    C39     1.419   .     A
C28    N51     1.437   .     S
C29    C543    1.388   .     S
C29    F568    1.358   .     S
C30    F54     1.357   .     S
C30    C542    1.388   1_554 S
C30    C544    1.416   1_554 S
C31    C32     1.420   .     A
C31    C543    1.416   .     S
C31    C546    1.421   .     S
C32    C36     1.415   .     A
C32    C39     1.424   .     A
C33    C37     1.411   .     A
C33    C544    1.421   1_554 S
C33    C547    1.422   1_554 S
C34    C35     1.406   .     A
C34    C537    1.408   .     S
C34    C546    1.422   .     S
C35    C36     1.396   .     A
C35    N47     1.436   .     S
C36    F56     1.359   .     S
C37    F50     1.360   .     S
C40    C98     1.340   .     S
C40    F114    1.362   .     S
C41    C154    1.340   1_455 S
C41    F158    1.360   1_455 S
C42    C214    1.338   .     S
C42    F216    1.363   .     S
C43    C384    1.338   1_545 S
C43    F388    1.361   1_545 S
F44    C98     1.360   .     S
F45    C384    1.363   1_545 S
F46    C214    1.361   .     S
N47    O49     1.301   .     A
N47    O48     1.300   .     A
N51    O52     1.301   .     A
N51    O53     1.301   .     A
F55    C542    1.358   1_554 S
F57    C154    1.362   1_455 S
Zn58   O62     1.961   .     S
Zn58   O70     1.931   .     S
Zn58   O71     1.932   .     S
Zn58   O64     1.928   .     S
Zn59   O73     1.929   .     S
Zn59   O62     1.946   .     S
Zn59   O67     1.936   .     S
Zn59   O65     1.939   .     S
Zn60   O66     1.933   .     S
Zn60   O69     1.939   .     S
Zn60   O74     1.938   .     S
Zn60   O62     1.940   .     S
Zn61   O72     1.936   .     S
Zn61   O68     1.944   .     S
Zn61   O63     1.935   .     S
Zn61   O62     1.934   .     S
O63    C75     1.274   .     A
O64    C76     1.278   .     A
O65    C77     1.276   .     A
O66    C78     1.274   .     A
O67    C79     1.275   .     A
O68    C80     1.284   .     A
O69    C79     1.274   .     A
O70    C80     1.291   .     A
O71    C77     1.277   .     A
O72    C78     1.271   .     A
O73    C75     1.266   .     A
O74    C76     1.285   .     A
C75    C98     1.433   .     S
C76    C97     1.456   .     S
C77    C100    1.432   .     S
C78    C99     1.453   .     S
C79    C84     1.446   .     S
C80    C96     1.489   .     S
C81    C95     1.388   .     A
C81    H596    1.081   1_554 S
C81    C604    1.408   1_554 S
H82    C95     1.084   .     S
H83    C594    1.081   .     S
C84    C94     1.392   .     A
C84    C95     1.393   .     A
C85    C86     1.396   .     A
C85    C96     1.419   .     A
C85    N108    1.437   .     S
C86    C600    1.388   .     S
C86    F625    1.358   .     S
C87    F111    1.357   .     S
C87    C599    1.388   1_554 S
C87    C601    1.416   1_554 S
C88    C89     1.420   .     A
C88    C600    1.416   .     S
C88    C603    1.421   .     S
C89    C93     1.415   .     A
C89    C96     1.424   .     A
C90    C94     1.411   .     A
C90    C601    1.421   1_554 S
C90    C604    1.422   1_554 S
C91    C92     1.406   .     A
C91    C594    1.408   .     S
C91    C603    1.422   .     S
C92    C93     1.396   .     A
C92    N104    1.436   .     S
C93    F113    1.359   .     S
C94    F107    1.360   .     S
C97    C155    1.340   .     S
C97    F171    1.362   .     S
C99    C271    1.338   .     S
C99    F273    1.363   .     S
C100   C441    1.338   1_545 S
C100   F445    1.361   1_545 S
F101   C155    1.360   .     S
F102   C441    1.363   1_545 S
F103   C271    1.361   .     S
N104   O106    1.301   .     A
N104   O105    1.300   .     A
N108   O109    1.301   .     A
N108   O110    1.301   .     A
F112   C599    1.358   1_554 S
Zn115  O119    1.961   .     S
Zn115  O127    1.931   .     S
Zn115  O128    1.932   .     S
Zn115  O121    1.928   .     S
Zn116  O130    1.929   .     S
Zn116  O119    1.946   .     S
Zn116  O124    1.936   .     S
Zn116  O122    1.939   .     S
Zn117  O123    1.933   .     S
Zn117  O126    1.939   .     S
Zn117  O131    1.938   .     S
Zn117  O119    1.940   .     S
Zn118  O129    1.936   .     S
Zn118  O125    1.944   .     S
Zn118  O120    1.935   .     S
Zn118  O119    1.934   .     S
O120   C132    1.274   .     A
O121   C133    1.278   .     A
O122   C134    1.276   .     A
O123   C135    1.274   .     A
O124   C136    1.275   .     A
O125   C137    1.284   .     A
O126   C136    1.274   .     A
O127   C137    1.291   .     A
O128   C134    1.277   .     A
O129   C135    1.271   .     A
O130   C132    1.266   .     A
O131   C133    1.285   .     A
C132   C155    1.433   .     S
C133   C154    1.456   .     S
C134   C157    1.432   .     S
C135   C156    1.453   .     S
C136   C141    1.446   .     S
C137   C153    1.489   .     S
C138   C152    1.388   .     A
C138   H653    1.081   1_554 S
C138   C661    1.408   1_554 S
H139   C152    1.084   .     S
H140   C651    1.081   .     S
C141   C151    1.392   .     A
C141   C152    1.393   .     A
C142   C143    1.396   .     A
C142   C153    1.419   .     A
C142   N165    1.437   .     S
C143   C657    1.388   .     S
C143   F682    1.358   .     S
C144   F168    1.357   .     S
C144   C656    1.388   1_554 S
C144   C658    1.416   1_554 S
C145   C146    1.420   .     A
C145   C657    1.416   .     S
C145   C660    1.421   .     S
C146   C150    1.415   .     A
C146   C153    1.424   .     A
C147   C151    1.411   .     A
C147   C658    1.421   1_554 S
C147   C661    1.422   1_554 S
C148   C149    1.406   .     A
C148   C651    1.408   .     S
C148   C660    1.422   .     S
C149   C150    1.396   .     A
C149   N161    1.436   .     S
C150   F170    1.359   .     S
C151   F164    1.360   .     S
C154   C41     1.340   1_655 S
C154   F57     1.362   1_655 S
C156   C328    1.338   .     S
C156   F330    1.363   .     S
C157   C498    1.338   1_545 S
C157   F502    1.361   1_545 S
F158   C41     1.360   1_655 S
F159   C498    1.363   1_545 S
F160   C328    1.361   .     S
N161   O163    1.301   .     A
N161   O162    1.300   .     A
N165   O166    1.301   .     A
N165   O167    1.301   .     A
F169   C656    1.358   1_554 S
Zn172  O176    1.961   .     S
Zn172  O184    1.931   .     S
Zn172  O185    1.932   .     S
Zn172  O178    1.928   .     S
Zn173  O187    1.929   .     S
Zn173  O176    1.946   .     S
Zn173  O181    1.936   .     S
Zn173  O179    1.939   .     S
Zn174  O180    1.933   .     S
Zn174  O183    1.939   .     S
Zn174  O188    1.938   .     S
Zn174  O176    1.940   .     S
Zn175  O186    1.936   .     S
Zn175  O182    1.944   .     S
Zn175  O177    1.935   .     S
Zn175  O176    1.934   .     S
O177   C189    1.274   .     A
O178   C190    1.278   .     A
O179   C191    1.276   .     A
O180   C192    1.274   .     A
O181   C193    1.275   .     A
O182   C194    1.284   .     A
O183   C193    1.274   .     A
O184   C194    1.291   .     A
O185   C191    1.277   .     A
O186   C192    1.271   .     A
O187   C189    1.266   .     A
O188   C190    1.285   .     A
C189   C212    1.433   .     S
C190   C211    1.456   .     S
C191   C214    1.432   .     S
C192   C213    1.453   .     S
C193   C198    1.446   .     S
C194   C210    1.489   .     S
C195   C209    1.388   .     A
C195   H710    1.081   1_554 S
C195   C718    1.408   1_554 S
H196   C209    1.084   .     S
H197   C708    1.081   .     S
C198   C208    1.392   .     A
C198   C209    1.393   .     A
C199   C200    1.396   .     A
C199   C210    1.419   .     A
C199   N222    1.437   .     S
C200   C714    1.388   .     S
C200   F739    1.358   .     S
C201   F225    1.357   .     S
C201   C713    1.388   1_554 S
C201   C715    1.416   1_554 S
C202   C203    1.420   .     A
C202   C714    1.416   .     S
C202   C717    1.421   .     S
C203   C207    1.415   .     A
C203   C210    1.424   .     A
C204   C208    1.411   .     A
C204   C715    1.421   1_554 S
C204   C718    1.422   1_554 S
C205   C206    1.406   .     A
C205   C708    1.408   .     S
C205   C717    1.422   .     S
C206   C207    1.396   .     A
C206   N218    1.436   .     S
C207   F227    1.359   .     S
C208   F221    1.360   .     S
C211   C269    1.340   .     S
C211   F285    1.362   .     S
C212   C325    1.340   1_455 S
C212   F329    1.360   1_455 S
C213   C385    1.338   .     S
C213   F387    1.363   .     S
F215   C269    1.360   .     S
F217   C385    1.361   .     S
N218   O220    1.301   .     A
N218   O219    1.300   .     A
N222   O223    1.301   .     A
N222   O224    1.301   .     A
F226   C713    1.358   1_554 S
F228   C325    1.362   1_455 S
Zn229  O233    1.961   .     S
Zn229  O241    1.931   .     S
Zn229  O242    1.932   .     S
Zn229  O235    1.928   .     S
Zn230  O244    1.929   .     S
Zn230  O233    1.946   .     S
Zn230  O238    1.936   .     S
Zn230  O236    1.939   .     S
Zn231  O237    1.933   .     S
Zn231  O240    1.939   .     S
Zn231  O245    1.938   .     S
Zn231  O233    1.940   .     S
Zn232  O243    1.936   .     S
Zn232  O239    1.944   .     S
Zn232  O234    1.935   .     S
Zn232  O233    1.934   .     S
O234   C246    1.274   .     A
O235   C247    1.278   .     A
O236   C248    1.276   .     A
O237   C249    1.274   .     A
O238   C250    1.275   .     A
O239   C251    1.284   .     A
O240   C250    1.274   .     A
O241   C251    1.291   .     A
O242   C248    1.277   .     A
O243   C249    1.271   .     A
O244   C246    1.266   .     A
O245   C247    1.285   .     A
C246   C269    1.433   .     S
C247   C268    1.456   .     S
C248   C271    1.432   .     S
C249   C270    1.453   .     S
C250   C255    1.446   .     S
C251   C267    1.489   .     S
C252   C266    1.388   .     A
C252   H767    1.081   1_554 S
C252   C775    1.408   1_554 S
H253   C266    1.084   .     S
H254   C765    1.081   .     S
C255   C265    1.392   .     A
C255   C266    1.393   .     A
C256   C257    1.396   .     A
C256   C267    1.419   .     A
C256   N279    1.437   .     S
C257   C771    1.388   .     S
C257   F796    1.358   .     S
C258   F282    1.357   .     S
C258   C770    1.388   1_554 S
C258   C772    1.416   1_554 S
C259   C260    1.420   .     A
C259   C771    1.416   .     S
C259   C774    1.421   .     S
C260   C264    1.415   .     A
C260   C267    1.424   .     A
C261   C265    1.411   .     A
C261   C772    1.421   1_554 S
C261   C775    1.422   1_554 S
C262   C263    1.406   .     A
C262   C765    1.408   .     S
C262   C774    1.422   .     S
C263   C264    1.396   .     A
C263   N275    1.436   .     S
C264   F284    1.359   .     S
C265   F278    1.360   .     S
C268   C326    1.340   .     S
C268   F342    1.362   .     S
C270   C442    1.338   .     S
C270   F444    1.363   .     S
F272   C326    1.360   .     S
F274   C442    1.361   .     S
N275   O277    1.301   .     A
N275   O276    1.300   .     A
N279   O280    1.301   .     A
N279   O281    1.301   .     A
F283   C770    1.358   1_554 S
Zn286  O290    1.961   .     S
Zn286  O298    1.931   .     S
Zn286  O299    1.932   .     S
Zn286  O292    1.928   .     S
Zn287  O301    1.929   .     S
Zn287  O290    1.946   .     S
Zn287  O295    1.936   .     S
Zn287  O293    1.939   .     S
Zn288  O294    1.933   .     S
Zn288  O297    1.939   .     S
Zn288  O302    1.938   .     S
Zn288  O290    1.940   .     S
Zn289  O300    1.936   .     S
Zn289  O296    1.944   .     S
Zn289  O291    1.935   .     S
Zn289  O290    1.934   .     S
O291   C303    1.274   .     A
O292   C304    1.278   .     A
O293   C305    1.276   .     A
O294   C306    1.274   .     A
O295   C307    1.275   .     A
O296   C308    1.284   .     A
O297   C307    1.274   .     A
O298   C308    1.291   .     A
O299   C305    1.277   .     A
O300   C306    1.271   .     A
O301   C303    1.266   .     A
O302   C304    1.285   .     A
C303   C326    1.433   .     S
C304   C325    1.456   .     S
C305   C328    1.432   .     S
C306   C327    1.453   .     S
C307   C312    1.446   .     S
C308   C324    1.489   .     S
C309   C323    1.388   .     A
C309   H824    1.081   1_554 S
C309   C832    1.408   1_554 S
H310   C323    1.084   .     S
H311   C822    1.081   .     S
C312   C322    1.392   .     A
C312   C323    1.393   .     A
C313   C314    1.396   .     A
C313   C324    1.419   .     A
C313   N336    1.437   .     S
C314   C828    1.388   .     S
C314   F853    1.358   .     S
C315   F339    1.357   .     S
C315   C827    1.388   1_554 S
C315   C829    1.416   1_554 S
C316   C317    1.420   .     A
C316   C828    1.416   .     S
C316   C831    1.421   .     S
C317   C321    1.415   .     A
C317   C324    1.424   .     A
C318   C322    1.411   .     A
C318   C829    1.421   1_554 S
C318   C832    1.422   1_554 S
C319   C320    1.406   .     A
C319   C822    1.408   .     S
C319   C831    1.422   .     S
C320   C321    1.396   .     A
C320   N332    1.436   .     S
C321   F341    1.359   .     S
C322   F335    1.360   .     S
C325   C212    1.340   1_655 S
C325   F228    1.362   1_655 S
C327   C499    1.338   .     S
C327   F501    1.363   .     S
F329   C212    1.360   1_655 S
F331   C499    1.361   .     S
N332   O334    1.301   .     A
N332   O333    1.300   .     A
N336   O337    1.301   .     A
N336   O338    1.301   .     A
F340   C827    1.358   1_554 S
Zn343  O347    1.961   .     S
Zn343  O355    1.931   .     S
Zn343  O356    1.932   .     S
Zn343  O349    1.928   .     S
Zn344  O358    1.929   .     S
Zn344  O347    1.946   .     S
Zn344  O352    1.936   .     S
Zn344  O350    1.939   .     S
Zn345  O351    1.933   .     S
Zn345  O354    1.939   .     S
Zn345  O359    1.938   .     S
Zn345  O347    1.940   .     S
Zn346  O357    1.936   .     S
Zn346  O353    1.944   .     S
Zn346  O348    1.935   .     S
Zn346  O347    1.934   .     S
O348   C360    1.274   .     A
O349   C361    1.278   .     A
O350   C362    1.276   .     A
O351   C363    1.274   .     A
O352   C364    1.275   .     A
O353   C365    1.284   .     A
O354   C364    1.274   .     A
O355   C365    1.291   .     A
O356   C362    1.277   .     A
O357   C363    1.271   .     A
O358   C360    1.266   .     A
O359   C361    1.285   .     A
C360   C383    1.433   .     S
C361   C382    1.456   .     S
C362   C385    1.432   .     S
C363   C384    1.453   .     S
C364   C369    1.446   .     S
C365   C381    1.489   .     S
C366   C380    1.388   .     A
C366   H881    1.081   1_554 S
C366   C889    1.408   1_554 S
H367   C380    1.084   .     S
H368   C879    1.081   .     S
C369   C379    1.392   .     A
C369   C380    1.393   .     A
C370   C371    1.396   .     A
C370   C381    1.419   .     A
C370   N393    1.437   .     S
C371   C885    1.388   .     S
C371   F910    1.358   .     S
C372   F396    1.357   .     S
C372   C884    1.388   1_554 S
C372   C886    1.416   1_554 S
C373   C374    1.420   .     A
C373   C885    1.416   .     S
C373   C888    1.421   .     S
C374   C378    1.415   .     A
C374   C381    1.424   .     A
C375   C379    1.411   .     A
C375   C886    1.421   1_554 S
C375   C889    1.422   1_554 S
C376   C377    1.406   .     A
C376   C879    1.408   .     S
C376   C888    1.422   .     S
C377   C378    1.396   .     A
C377   N389    1.436   .     S
C378   F398    1.359   .     S
C379   F392    1.360   .     S
C382   C440    1.340   .     S
C382   F456    1.362   .     S
C383   C496    1.340   1_455 S
C383   F500    1.360   1_455 S
C384   C43     1.338   1_565 S
C384   F45     1.363   1_565 S
F386   C440    1.360   .     S
F388   C43     1.361   1_565 S
N389   O391    1.301   .     A
N389   O390    1.300   .     A
N393   O394    1.301   .     A
N393   O395    1.301   .     A
F397   C884    1.358   1_554 S
F399   C496    1.362   1_455 S
Zn400  O404    1.961   .     S
Zn400  O412    1.931   .     S
Zn400  O413    1.932   .     S
Zn400  O406    1.928   .     S
Zn401  O415    1.929   .     S
Zn401  O404    1.946   .     S
Zn401  O409    1.936   .     S
Zn401  O407    1.939   .     S
Zn402  O408    1.933   .     S
Zn402  O411    1.939   .     S
Zn402  O416    1.938   .     S
Zn402  O404    1.940   .     S
Zn403  O414    1.936   .     S
Zn403  O410    1.944   .     S
Zn403  O405    1.935   .     S
Zn403  O404    1.934   .     S
O405   C417    1.274   .     A
O406   C418    1.278   .     A
O407   C419    1.276   .     A
O408   C420    1.274   .     A
O409   C421    1.275   .     A
O410   C422    1.284   .     A
O411   C421    1.274   .     A
O412   C422    1.291   .     A
O413   C419    1.277   .     A
O414   C420    1.271   .     A
O415   C417    1.266   .     A
O416   C418    1.285   .     A
C417   C440    1.433   .     S
C418   C439    1.456   .     S
C419   C442    1.432   .     S
C420   C441    1.453   .     S
C421   C426    1.446   .     S
C422   C438    1.489   .     S
C423   C437    1.388   .     A
C423   H938    1.081   1_554 S
C423   C946    1.408   1_554 S
H424   C437    1.084   .     S
H425   C936    1.081   .     S
C426   C436    1.392   .     A
C426   C437    1.393   .     A
C427   C428    1.396   .     A
C427   C438    1.419   .     A
C427   N450    1.437   .     S
C428   C942    1.388   .     S
C428   F967    1.358   .     S
C429   F453    1.357   .     S
C429   C941    1.388   1_554 S
C429   C943    1.416   1_554 S
C430   C431    1.420   .     A
C430   C942    1.416   .     S
C430   C945    1.421   .     S
C431   C435    1.415   .     A
C431   C438    1.424   .     A
C432   C436    1.411   .     A
C432   C943    1.421   1_554 S
C432   C946    1.422   1_554 S
C433   C434    1.406   .     A
C433   C936    1.408   .     S
C433   C945    1.422   .     S
C434   C435    1.396   .     A
C434   N446    1.436   .     S
C435   F455    1.359   .     S
C436   F449    1.360   .     S
C439   C497    1.340   .     S
C439   F513    1.362   .     S
C441   C100    1.338   1_565 S
C441   F102    1.363   1_565 S
F443   C497    1.360   .     S
F445   C100    1.361   1_565 S
N446   O448    1.301   .     A
N446   O447    1.300   .     A
N450   O451    1.301   .     A
N450   O452    1.301   .     A
F454   C941    1.358   1_554 S
Zn457  O461    1.961   .     S
Zn457  O469    1.931   .     S
Zn457  O470    1.932   .     S
Zn457  O463    1.928   .     S
Zn458  O472    1.929   .     S
Zn458  O461    1.946   .     S
Zn458  O466    1.936   .     S
Zn458  O464    1.939   .     S
Zn459  O465    1.933   .     S
Zn459  O468    1.939   .     S
Zn459  O473    1.938   .     S
Zn459  O461    1.940   .     S
Zn460  O471    1.936   .     S
Zn460  O467    1.944   .     S
Zn460  O462    1.935   .     S
Zn460  O461    1.934   .     S
O462   C474    1.274   .     A
O463   C475    1.278   .     A
O464   C476    1.276   .     A
O465   C477    1.274   .     A
O466   C478    1.275   .     A
O467   C479    1.284   .     A
O468   C478    1.274   .     A
O469   C479    1.291   .     A
O470   C476    1.277   .     A
O471   C477    1.271   .     A
O472   C474    1.266   .     A
O473   C475    1.285   .     A
C474   C497    1.433   .     S
C475   C496    1.456   .     S
C476   C499    1.432   .     S
C477   C498    1.453   .     S
C478   C483    1.446   .     S
C479   C495    1.489   .     S
C480   C494    1.388   .     A
C480   H995    1.081   1_554 S
C480   C1003   1.408   1_554 S
H481   C494    1.084   .     S
H482   C993    1.081   .     S
C483   C493    1.392   .     A
C483   C494    1.393   .     A
C484   C485    1.396   .     A
C484   C495    1.419   .     A
C484   N507    1.437   .     S
C485   C999    1.388   .     S
C485   F1024   1.358   .     S
C486   F510    1.357   .     S
C486   C998    1.388   1_554 S
C486   C1000   1.416   1_554 S
C487   C488    1.420   .     A
C487   C999    1.416   .     S
C487   C1002   1.421   .     S
C488   C492    1.415   .     A
C488   C495    1.424   .     A
C489   C493    1.411   .     A
C489   C1000   1.421   1_554 S
C489   C1003   1.422   1_554 S
C490   C491    1.406   .     A
C490   C993    1.408   .     S
C490   C1002   1.422   .     S
C491   C492    1.396   .     A
C491   N503    1.436   .     S
C492   F512    1.359   .     S
C493   F506    1.360   .     S
C496   C383    1.340   1_655 S
C496   F399    1.362   1_655 S
C498   C157    1.338   1_565 S
C498   F159    1.363   1_565 S
F500   C383    1.360   1_655 S
F502   C157    1.361   1_565 S
N503   O505    1.301   .     A
N503   O504    1.300   .     A
N507   O508    1.301   .     A
N507   O509    1.301   .     A
F511   C998    1.358   1_554 S
Zn514  O518    1.961   .     S
Zn514  O526    1.931   .     S
Zn514  O527    1.932   .     S
Zn514  O520    1.928   .     S
Zn515  O529    1.929   .     S
Zn515  O518    1.946   .     S
Zn515  O523    1.936   .     S
Zn515  O521    1.939   .     S
Zn516  O522    1.933   .     S
Zn516  O525    1.939   .     S
Zn516  O530    1.938   .     S
Zn516  O518    1.940   .     S
Zn517  O528    1.936   .     S
Zn517  O524    1.944   .     S
Zn517  O519    1.935   .     S
Zn517  O518    1.934   .     S
O519   C531    1.274   .     A
O520   C532    1.278   .     A
O521   C533    1.276   .     A
O522   C534    1.274   .     A
O523   C535    1.275   .     A
O524   C536    1.284   .     A
O525   C535    1.274   .     A
O526   C536    1.291   .     A
O527   C533    1.277   .     A
O528   C534    1.271   .     A
O529   C531    1.266   .     A
O530   C532    1.285   .     A
C531   C554    1.433   .     S
C532   C553    1.456   .     S
C533   C556    1.432   .     S
C534   C555    1.453   .     S
C535   C540    1.446   .     S
C536   C552    1.489   .     S
C537   C551    1.388   .     A
H538   C551    1.084   .     S
H539   C24     1.081   1_556 S
C540   C550    1.392   .     A
C540   C551    1.393   .     A
C541   C542    1.396   .     A
C541   C552    1.419   .     A
C541   N564    1.437   .     S
C542   C30     1.388   1_556 S
C542   F55     1.358   1_556 S
C543   F567    1.357   .     S
C544   C545    1.420   .     A
C544   C30     1.416   1_556 S
C544   C33     1.421   1_556 S
C545   C549    1.415   .     A
C545   C552    1.424   .     A
C546   C550    1.411   .     A
C547   C548    1.406   .     A
C547   C24     1.408   1_556 S
C547   C33     1.422   1_556 S
C548   C549    1.396   .     A
C548   N560    1.436   .     S
C549   F569    1.359   .     S
C550   F563    1.360   .     S
C553   C611    1.340   .     S
C553   F627    1.362   .     S
C554   C667    1.340   1_455 S
C554   F671    1.360   1_455 S
C555   C727    1.338   .     S
C555   F729    1.363   .     S
C556   C897    1.338   1_545 S
C556   F901    1.361   1_545 S
F557   C611    1.360   .     S
F558   C897    1.363   1_545 S
F559   C727    1.361   .     S
N560   O562    1.301   .     A
N560   O561    1.300   .     A
N564   O565    1.301   .     A
N564   O566    1.301   .     A
F570   C667    1.362   1_455 S
Zn571  O575    1.961   .     S
Zn571  O583    1.931   .     S
Zn571  O584    1.932   .     S
Zn571  O577    1.928   .     S
Zn572  O586    1.929   .     S
Zn572  O575    1.946   .     S
Zn572  O580    1.936   .     S
Zn572  O578    1.939   .     S
Zn573  O579    1.933   .     S
Zn573  O582    1.939   .     S
Zn573  O587    1.938   .     S
Zn573  O575    1.940   .     S
Zn574  O585    1.936   .     S
Zn574  O581    1.944   .     S
Zn574  O576    1.935   .     S
Zn574  O575    1.934   .     S
O576   C588    1.274   .     A
O577   C589    1.278   .     A
O578   C590    1.276   .     A
O579   C591    1.274   .     A
O580   C592    1.275   .     A
O581   C593    1.284   .     A
O582   C592    1.274   .     A
O583   C593    1.291   .     A
O584   C590    1.277   .     A
O585   C591    1.271   .     A
O586   C588    1.266   .     A
O587   C589    1.285   .     A
C588   C611    1.433   .     S
C589   C610    1.456   .     S
C590   C613    1.432   .     S
C591   C612    1.453   .     S
C592   C597    1.446   .     S
C593   C609    1.489   .     S
C594   C608    1.388   .     A
H595   C608    1.084   .     S
H596   C81     1.081   1_556 S
C597   C607    1.392   .     A
C597   C608    1.393   .     A
C598   C599    1.396   .     A
C598   C609    1.419   .     A
C598   N621    1.437   .     S
C599   C87     1.388   1_556 S
C599   F112    1.358   1_556 S
C600   F624    1.357   .     S
C601   C602    1.420   .     A
C601   C87     1.416   1_556 S
C601   C90     1.421   1_556 S
C602   C606    1.415   .     A
C602   C609    1.424   .     A
C603   C607    1.411   .     A
C604   C605    1.406   .     A
C604   C81     1.408   1_556 S
C604   C90     1.422   1_556 S
C605   C606    1.396   .     A
C605   N617    1.436   .     S
C606   F626    1.359   .     S
C607   F620    1.360   .     S
C610   C668    1.340   .     S
C610   F684    1.362   .     S
C612   C784    1.338   .     S
C612   F786    1.363   .     S
C613   C954    1.338   1_545 S
C613   F958    1.361   1_545 S
F614   C668    1.360   .     S
F615   C954    1.363   1_545 S
F616   C784    1.361   .     S
N617   O619    1.301   .     A
N617   O618    1.300   .     A
N621   O622    1.301   .     A
N621   O623    1.301   .     A
Zn628  O632    1.961   .     S
Zn628  O640    1.931   .     S
Zn628  O641    1.932   .     S
Zn628  O634    1.928   .     S
Zn629  O643    1.929   .     S
Zn629  O632    1.946   .     S
Zn629  O637    1.936   .     S
Zn629  O635    1.939   .     S
Zn630  O636    1.933   .     S
Zn630  O639    1.939   .     S
Zn630  O644    1.938   .     S
Zn630  O632    1.940   .     S
Zn631  O642    1.936   .     S
Zn631  O638    1.944   .     S
Zn631  O633    1.935   .     S
Zn631  O632    1.934   .     S
O633   C645    1.274   .     A
O634   C646    1.278   .     A
O635   C647    1.276   .     A
O636   C648    1.274   .     A
O637   C649    1.275   .     A
O638   C650    1.284   .     A
O639   C649    1.274   .     A
O640   C650    1.291   .     A
O641   C647    1.277   .     A
O642   C648    1.271   .     A
O643   C645    1.266   .     A
O644   C646    1.285   .     A
C645   C668    1.433   .     S
C646   C667    1.456   .     S
C647   C670    1.432   .     S
C648   C669    1.453   .     S
C649   C654    1.446   .     S
C650   C666    1.489   .     S
C651   C665    1.388   .     A
H652   C665    1.084   .     S
H653   C138    1.081   1_556 S
C654   C664    1.392   .     A
C654   C665    1.393   .     A
C655   C656    1.396   .     A
C655   C666    1.419   .     A
C655   N678    1.437   .     S
C656   C144    1.388   1_556 S
C656   F169    1.358   1_556 S
C657   F681    1.357   .     S
C658   C659    1.420   .     A
C658   C144    1.416   1_556 S
C658   C147    1.421   1_556 S
C659   C663    1.415   .     A
C659   C666    1.424   .     A
C660   C664    1.411   .     A
C661   C662    1.406   .     A
C661   C138    1.408   1_556 S
C661   C147    1.422   1_556 S
C662   C663    1.396   .     A
C662   N674    1.436   .     S
C663   F683    1.359   .     S
C664   F677    1.360   .     S
C667   C554    1.340   1_655 S
C667   F570    1.362   1_655 S
C669   C841    1.338   .     S
C669   F843    1.363   .     S
C670   C1011   1.338   1_545 S
C670   F1015   1.361   1_545 S
F671   C554    1.360   1_655 S
F672   C1011   1.363   1_545 S
F673   C841    1.361   .     S
N674   O676    1.301   .     A
N674   O675    1.300   .     A
N678   O679    1.301   .     A
N678   O680    1.301   .     A
Zn685  O689    1.961   .     S
Zn685  O697    1.931   .     S
Zn685  O698    1.932   .     S
Zn685  O691    1.928   .     S
Zn686  O700    1.929   .     S
Zn686  O689    1.946   .     S
Zn686  O694    1.936   .     S
Zn686  O692    1.939   .     S
Zn687  O693    1.933   .     S
Zn687  O696    1.939   .     S
Zn687  O701    1.938   .     S
Zn687  O689    1.940   .     S
Zn688  O699    1.936   .     S
Zn688  O695    1.944   .     S
Zn688  O690    1.935   .     S
Zn688  O689    1.934   .     S
O690   C702    1.274   .     A
O691   C703    1.278   .     A
O692   C704    1.276   .     A
O693   C705    1.274   .     A
O694   C706    1.275   .     A
O695   C707    1.284   .     A
O696   C706    1.274   .     A
O697   C707    1.291   .     A
O698   C704    1.277   .     A
O699   C705    1.271   .     A
O700   C702    1.266   .     A
O701   C703    1.285   .     A
C702   C725    1.433   .     S
C703   C724    1.456   .     S
C704   C727    1.432   .     S
C705   C726    1.453   .     S
C706   C711    1.446   .     S
C707   C723    1.489   .     S
C708   C722    1.388   .     A
H709   C722    1.084   .     S
H710   C195    1.081   1_556 S
C711   C721    1.392   .     A
C711   C722    1.393   .     A
C712   C713    1.396   .     A
C712   C723    1.419   .     A
C712   N735    1.437   .     S
C713   C201    1.388   1_556 S
C713   F226    1.358   1_556 S
C714   F738    1.357   .     S
C715   C716    1.420   .     A
C715   C201    1.416   1_556 S
C715   C204    1.421   1_556 S
C716   C720    1.415   .     A
C716   C723    1.424   .     A
C717   C721    1.411   .     A
C718   C719    1.406   .     A
C718   C195    1.408   1_556 S
C718   C204    1.422   1_556 S
C719   C720    1.396   .     A
C719   N731    1.436   .     S
C720   F740    1.359   .     S
C721   F734    1.360   .     S
C724   C782    1.340   .     S
C724   F798    1.362   .     S
C725   C838    1.340   1_455 S
C725   F842    1.360   1_455 S
C726   C898    1.338   .     S
C726   F900    1.363   .     S
F728   C782    1.360   .     S
F730   C898    1.361   .     S
N731   O733    1.301   .     A
N731   O732    1.300   .     A
N735   O736    1.301   .     A
N735   O737    1.301   .     A
F741   C838    1.362   1_455 S
Zn742  O746    1.961   .     S
Zn742  O754    1.931   .     S
Zn742  O755    1.932   .     S
Zn742  O748    1.928   .     S
Zn743  O757    1.929   .     S
Zn743  O746    1.946   .     S
Zn743  O751    1.936   .     S
Zn743  O749    1.939   .     S
Zn744  O750    1.933   .     S
Zn744  O753    1.939   .     S
Zn744  O758    1.938   .     S
Zn744  O746    1.940   .     S
Zn745  O756    1.936   .     S
Zn745  O752    1.944   .     S
Zn745  O747    1.935   .     S
Zn745  O746    1.934   .     S
O747   C759    1.274   .     A
O748   C760    1.278   .     A
O749   C761    1.276   .     A
O750   C762    1.274   .     A
O751   C763    1.275   .     A
O752   C764    1.284   .     A
O753   C763    1.274   .     A
O754   C764    1.291   .     A
O755   C761    1.277   .     A
O756   C762    1.271   .     A
O757   C759    1.266   .     A
O758   C760    1.285   .     A
C759   C782    1.433   .     S
C760   C781    1.456   .     S
C761   C784    1.432   .     S
C762   C783    1.453   .     S
C763   C768    1.446   .     S
C764   C780    1.489   .     S
C765   C779    1.388   .     A
H766   C779    1.084   .     S
H767   C252    1.081   1_556 S
C768   C778    1.392   .     A
C768   C779    1.393   .     A
C769   C770    1.396   .     A
C769   C780    1.419   .     A
C769   N792    1.437   .     S
C770   C258    1.388   1_556 S
C770   F283    1.358   1_556 S
C771   F795    1.357   .     S
C772   C773    1.420   .     A
C772   C258    1.416   1_556 S
C772   C261    1.421   1_556 S
C773   C777    1.415   .     A
C773   C780    1.424   .     A
C774   C778    1.411   .     A
C775   C776    1.406   .     A
C775   C252    1.408   1_556 S
C775   C261    1.422   1_556 S
C776   C777    1.396   .     A
C776   N788    1.436   .     S
C777   F797    1.359   .     S
C778   F791    1.360   .     S
C781   C839    1.340   .     S
C781   F855    1.362   .     S
C783   C955    1.338   .     S
C783   F957    1.363   .     S
F785   C839    1.360   .     S
F787   C955    1.361   .     S
N788   O790    1.301   .     A
N788   O789    1.300   .     A
N792   O793    1.301   .     A
N792   O794    1.301   .     A
Zn799  O803    1.961   .     S
Zn799  O811    1.931   .     S
Zn799  O812    1.932   .     S
Zn799  O805    1.928   .     S
Zn800  O814    1.929   .     S
Zn800  O803    1.946   .     S
Zn800  O808    1.936   .     S
Zn800  O806    1.939   .     S
Zn801  O807    1.933   .     S
Zn801  O810    1.939   .     S
Zn801  O815    1.938   .     S
Zn801  O803    1.940   .     S
Zn802  O813    1.936   .     S
Zn802  O809    1.944   .     S
Zn802  O804    1.935   .     S
Zn802  O803    1.934   .     S
O804   C816    1.274   .     A
O805   C817    1.278   .     A
O806   C818    1.276   .     A
O807   C819    1.274   .     A
O808   C820    1.275   .     A
O809   C821    1.284   .     A
O810   C820    1.274   .     A
O811   C821    1.291   .     A
O812   C818    1.277   .     A
O813   C819    1.271   .     A
O814   C816    1.266   .     A
O815   C817    1.285   .     A
C816   C839    1.433   .     S
C817   C838    1.456   .     S
C818   C841    1.432   .     S
C819   C840    1.453   .     S
C820   C825    1.446   .     S
C821   C837    1.489   .     S
C822   C836    1.388   .     A
H823   C836    1.084   .     S
H824   C309    1.081   1_556 S
C825   C835    1.392   .     A
C825   C836    1.393   .     A
C826   C827    1.396   .     A
C826   C837    1.419   .     A
C826   N849    1.437   .     S
C827   C315    1.388   1_556 S
C827   F340    1.358   1_556 S
C828   F852    1.357   .     S
C829   C830    1.420   .     A
C829   C315    1.416   1_556 S
C829   C318    1.421   1_556 S
C830   C834    1.415   .     A
C830   C837    1.424   .     A
C831   C835    1.411   .     A
C832   C833    1.406   .     A
C832   C309    1.408   1_556 S
C832   C318    1.422   1_556 S
C833   C834    1.396   .     A
C833   N845    1.436   .     S
C834   F854    1.359   .     S
C835   F848    1.360   .     S
C838   C725    1.340   1_655 S
C838   F741    1.362   1_655 S
C840   C1012   1.338   .     S
C840   F1014   1.363   .     S
F842   C725    1.360   1_655 S
F844   C1012   1.361   .     S
N845   O847    1.301   .     A
N845   O846    1.300   .     A
N849   O850    1.301   .     A
N849   O851    1.301   .     A
Zn856  O860    1.961   .     S
Zn856  O868    1.931   .     S
Zn856  O869    1.932   .     S
Zn856  O862    1.928   .     S
Zn857  O871    1.929   .     S
Zn857  O860    1.946   .     S
Zn857  O865    1.936   .     S
Zn857  O863    1.939   .     S
Zn858  O864    1.933   .     S
Zn858  O867    1.939   .     S
Zn858  O872    1.938   .     S
Zn858  O860    1.940   .     S
Zn859  O870    1.936   .     S
Zn859  O866    1.944   .     S
Zn859  O861    1.935   .     S
Zn859  O860    1.934   .     S
O861   C873    1.274   .     A
O862   C874    1.278   .     A
O863   C875    1.276   .     A
O864   C876    1.274   .     A
O865   C877    1.275   .     A
O866   C878    1.284   .     A
O867   C877    1.274   .     A
O868   C878    1.291   .     A
O869   C875    1.277   .     A
O870   C876    1.271   .     A
O871   C873    1.266   .     A
O872   C874    1.285   .     A
C873   C896    1.433   .     S
C874   C895    1.456   .     S
C875   C898    1.432   .     S
C876   C897    1.453   .     S
C877   C882    1.446   .     S
C878   C894    1.489   .     S
C879   C893    1.388   .     A
H880   C893    1.084   .     S
H881   C366    1.081   1_556 S
C882   C892    1.392   .     A
C882   C893    1.393   .     A
C883   C884    1.396   .     A
C883   C894    1.419   .     A
C883   N906    1.437   .     S
C884   C372    1.388   1_556 S
C884   F397    1.358   1_556 S
C885   F909    1.357   .     S
C886   C887    1.420   .     A
C886   C372    1.416   1_556 S
C886   C375    1.421   1_556 S
C887   C891    1.415   .     A
C887   C894    1.424   .     A
C888   C892    1.411   .     A
C889   C890    1.406   .     A
C889   C366    1.408   1_556 S
C889   C375    1.422   1_556 S
C890   C891    1.396   .     A
C890   N902    1.436   .     S
C891   F911    1.359   .     S
C892   F905    1.360   .     S
C895   C953    1.340   .     S
C895   F969    1.362   .     S
C896   C1009   1.340   1_455 S
C896   F1013   1.360   1_455 S
C897   C556    1.338   1_565 S
C897   F558    1.363   1_565 S
F899   C953    1.360   .     S
F901   C556    1.361   1_565 S
N902   O904    1.301   .     A
N902   O903    1.300   .     A
N906   O907    1.301   .     A
N906   O908    1.301   .     A
F912   C1009   1.362   1_455 S
Zn913  O917    1.961   .     S
Zn913  O925    1.931   .     S
Zn913  O926    1.932   .     S
Zn913  O919    1.928   .     S
Zn914  O928    1.929   .     S
Zn914  O917    1.946   .     S
Zn914  O922    1.936   .     S
Zn914  O920    1.939   .     S
Zn915  O921    1.933   .     S
Zn915  O924    1.939   .     S
Zn915  O929    1.938   .     S
Zn915  O917    1.940   .     S
Zn916  O927    1.936   .     S
Zn916  O923    1.944   .     S
Zn916  O918    1.935   .     S
Zn916  O917    1.934   .     S
O918   C930    1.274   .     A
O919   C931    1.278   .     A
O920   C932    1.276   .     A
O921   C933    1.274   .     A
O922   C934    1.275   .     A
O923   C935    1.284   .     A
O924   C934    1.274   .     A
O925   C935    1.291   .     A
O926   C932    1.277   .     A
O927   C933    1.271   .     A
O928   C930    1.266   .     A
O929   C931    1.285   .     A
C930   C953    1.433   .     S
C931   C952    1.456   .     S
C932   C955    1.432   .     S
C933   C954    1.453   .     S
C934   C939    1.446   .     S
C935   C951    1.489   .     S
C936   C950    1.388   .     A
H937   C950    1.084   .     S
H938   C423    1.081   1_556 S
C939   C949    1.392   .     A
C939   C950    1.393   .     A
C940   C941    1.396   .     A
C940   C951    1.419   .     A
C940   N963    1.437   .     S
C941   C429    1.388   1_556 S
C941   F454    1.358   1_556 S
C942   F966    1.357   .     S
C943   C944    1.420   .     A
C943   C429    1.416   1_556 S
C943   C432    1.421   1_556 S
C944   C948    1.415   .     A
C944   C951    1.424   .     A
C945   C949    1.411   .     A
C946   C947    1.406   .     A
C946   C423    1.408   1_556 S
C946   C432    1.422   1_556 S
C947   C948    1.396   .     A
C947   N959    1.436   .     S
C948   F968    1.359   .     S
C949   F962    1.360   .     S
C952   C1010   1.340   .     S
C952   F1026   1.362   .     S
C954   C613    1.338   1_565 S
C954   F615    1.363   1_565 S
F956   C1010   1.360   .     S
F958   C613    1.361   1_565 S
N959   O961    1.301   .     A
N959   O960    1.300   .     A
N963   O964    1.301   .     A
N963   O965    1.301   .     A
Zn970  O974    1.961   .     S
Zn970  O982    1.931   .     S
Zn970  O983    1.932   .     S
Zn970  O976    1.928   .     S
Zn971  O985    1.929   .     S
Zn971  O974    1.946   .     S
Zn971  O979    1.936   .     S
Zn971  O977    1.939   .     S
Zn972  O978    1.933   .     S
Zn972  O981    1.939   .     S
Zn972  O986    1.938   .     S
Zn972  O974    1.940   .     S
Zn973  O984    1.936   .     S
Zn973  O980    1.944   .     S
Zn973  O975    1.935   .     S
Zn973  O974    1.934   .     S
O975   C987    1.274   .     A
O976   C988    1.278   .     A
O977   C989    1.276   .     A
O978   C990    1.274   .     A
O979   C991    1.275   .     A
O980   C992    1.284   .     A
O981   C991    1.274   .     A
O982   C992    1.291   .     A
O983   C989    1.277   .     A
O984   C990    1.271   .     A
O985   C987    1.266   .     A
O986   C988    1.285   .     A
C987   C1010   1.433   .     S
C988   C1009   1.456   .     S
C989   C1012   1.432   .     S
C990   C1011   1.453   .     S
C991   C996    1.446   .     S
C992   C1008   1.489   .     S
C993   C1007   1.388   .     A
H994   C1007   1.084   .     S
H995   C480    1.081   1_556 S
C996   C1006   1.392   .     A
C996   C1007   1.393   .     A
C997   C998    1.396   .     A
C997   C1008   1.419   .     A
C997   N1020   1.437   .     S
C998   C486    1.388   1_556 S
C998   F511    1.358   1_556 S
C999   F1023   1.357   .     S
C1000  C1001   1.420   .     A
C1000  C486    1.416   1_556 S
C1000  C489    1.421   1_556 S
C1001  C1005   1.415   .     A
C1001  C1008   1.424   .     A
C1002  C1006   1.411   .     A
C1003  C1004   1.406   .     A
C1003  C480    1.408   1_556 S
C1003  C489    1.422   1_556 S
C1004  C1005   1.396   .     A
C1004  N1016   1.436   .     S
C1005  F1025   1.359   .     S
C1006  F1019   1.360   .     S
C1009  C896    1.340   1_655 S
C1009  F912    1.362   1_655 S
C1011  C670    1.338   1_565 S
C1011  F672    1.363   1_565 S
F1013  C896    1.360   1_655 S
F1015  C670    1.361   1_565 S
N1016  O1018   1.301   .     A
N1016  O1017   1.300   .     A
N1020  O1021   1.301   .     A
N1020  O1022   1.301   .     A
