data_str_m1_o10_o18_pcu_sym.24
_audit_creation_date              2020-01-03
_audit_creation_method            'Materials Studio'
_symmetry_space_group_name_H-M    'P1'
_symmetry_Int_Tables_number       1
_symmetry_cell_setting            triclinic
loop_
_symmetry_equiv_pos_as_xyz
  x,y,z
_cell_length_a                    32.5289
_cell_length_b                    32.6944
_cell_length_c                    35.7178
_cell_angle_alpha                 98.3385
_cell_angle_beta                  72.9242
_cell_angle_gamma                 98.5982
loop_
_atom_site_label
_atom_site_type_symbol
_atom_site_fract_x
_atom_site_fract_y
_atom_site_fract_z
_atom_site_U_iso_or_equiv
_atom_site_adp_type
_atom_site_occupancy
C1     C     0.05250   0.15998   0.25871   0.00000  Uiso   1.00
C2     C     0.19910   0.13127   0.45924   0.00000  Uiso   1.00
C3     C     0.22328   0.11474   0.47838   0.00000  Uiso   1.00
C4     C     0.28104   0.17359   0.24120   0.00000  Uiso   1.00
C5     C     0.21453   0.12218   0.01952   0.00000  Uiso   1.00
C6     C     0.17861   0.14381   0.04163   0.00000  Uiso   1.00
C7     C     0.24068   0.10813   0.03912   0.00000  Uiso   1.00
C8     C     0.23209   0.11568   0.07985   0.00000  Uiso   1.00
C9     C     0.17062   0.15078   0.08290   0.00000  Uiso   1.00
C10    C     0.32707   0.17630   0.23763   0.00000  Uiso   1.00
C11    C     0.00709   0.15766   0.26213   0.00000  Uiso   1.00
C12    C     0.09147   0.20299   0.42034   0.00000  Uiso   1.00
C13    C     0.18093   0.32230   0.23923   0.00000  Uiso   1.00
C14    C     0.15066   0.01282   0.26222   0.00000  Uiso   1.00
C15    C     0.15609   0.05634   0.25867   0.00000  Uiso   1.00
C16    C     0.17672   0.27769   0.24151   0.00000  Uiso   1.00
C17    C     0.18820   0.14531   0.14407   0.00000  Uiso   1.00
C18    C     0.14561   0.18790   0.35611   0.00000  Uiso   1.00
C19    C     0.13298   0.19279   0.39942   0.00000  Uiso   1.00
C20    C     0.19707   0.13685   0.10158   0.00000  Uiso   1.00
C21    C     0.07726   0.20271   0.46102   0.00000  Uiso   1.00
C22    C     0.16069   0.18320   0.41980   0.00000  Uiso   1.00
C23    C     0.14388   0.17587   0.45992   0.00000  Uiso   1.00
C24    C     0.10293   0.18892   0.48094   0.00000  Uiso   1.00
C25    C     0.16625   0.15633   0.47994   0.00000  Uiso   1.00
C26    C     0.15270   0.15869   0.02171   0.00000  Uiso   1.00
C27    C     0.11298   0.17449   0.04191   0.00000  Uiso   1.00
C28    C     0.08797   0.18802   0.02162   0.00000  Uiso   1.00
Cl29   Cl    0.10129   0.32843   0.29562   0.00000  Uiso   1.00
Cl30   Cl    0.26456   0.08495   0.44911   0.00000  Uiso   1.00
Cl31   Cl    0.21736   0.19123   0.39734   0.00000  Uiso   1.00
H32    H     0.05689   0.19833   0.03799   0.00000  Uiso   1.00
H33    H     0.20520   0.12261   0.42791   0.00000  Uiso   1.00
H34    H     0.26816   0.09163   0.02324   0.00000  Uiso   1.00
H35    H     0.01686   0.19347   0.21499   0.00000  Uiso   1.00
H36    H     0.31797   0.14044   0.28504   0.00000  Uiso   1.00
H37    H     0.14520   0.16845   0.10129   0.00000  Uiso   1.00
H38    H     0.25272   0.10496   0.09445   0.00000  Uiso   1.00
H39    H     0.04549   0.21183   0.47676   0.00000  Uiso   1.00
H40    H     0.06987   0.21098   0.40519   0.00000  Uiso   1.00
H41    H     0.09907   0.17463   0.07327   0.00000  Uiso   1.00
I42    I     0.23750   0.01503   0.19803   0.00000  Uiso   1.00
O43    O     0.16667   0.16667   0.25000   0.00000  Uiso   1.00
O44    O     0.15693   0.12393   0.16625   0.00000  Uiso   1.00
O45    O     0.12687   0.20646   0.33749   0.00000  Uiso   1.00
O46    O     0.21088   0.17493   0.15877   0.00000  Uiso   1.00
O47    O     0.17198   0.16135   0.33749   0.00000  Uiso   1.00
O48    O     0.17849   0.08101   0.27821   0.00000  Uiso   1.00
O49    O     0.14581   0.26136   0.26767   0.00000  Uiso   1.00
O50    O     0.07452   0.13251   0.23607   0.00000  Uiso   1.00
O51    O     0.26785   0.19179   0.21806   0.00000  Uiso   1.00
O52    O     0.06990   0.18960   0.27820   0.00000  Uiso   1.00
O53    O     0.25440   0.15277   0.26768   0.00000  Uiso   1.00
O54    O     0.13800   0.06903   0.23607   0.00000  Uiso   1.00
O55    O     0.20437   0.25527   0.21805   0.00000  Uiso   1.00
Zn56   Zn    0.19244   0.14090   0.28278   0.00000  Uiso   1.00
Zn57   Zn    0.13459   0.12378   0.22258   0.00000  Uiso   1.00
Zn58   Zn    0.21166   0.19664   0.21188   0.00000  Uiso   1.00
Zn59   Zn    0.12798   0.20535   0.28277   0.00000  Uiso   1.00
C60    C     0.38584   0.15998   0.25871   0.00000  Uiso   1.00
C61    C     0.53243   0.13127   0.45924   0.00000  Uiso   1.00
C62    C     0.55662   0.11474   0.47838   0.00000  Uiso   1.00
C63    C     0.61438   0.17359   0.24120   0.00000  Uiso   1.00
C64    C     0.54786   0.12218   0.01952   0.00000  Uiso   1.00
C65    C     0.51195   0.14381   0.04163   0.00000  Uiso   1.00
C66    C     0.57401   0.10813   0.03912   0.00000  Uiso   1.00
C67    C     0.56542   0.11568   0.07985   0.00000  Uiso   1.00
C68    C     0.50396   0.15078   0.08290   0.00000  Uiso   1.00
C69    C     0.66041   0.17630   0.23763   0.00000  Uiso   1.00
C70    C     0.34042   0.15766   0.26213   0.00000  Uiso   1.00
C71    C     0.42480   0.20299   0.42034   0.00000  Uiso   1.00
C72    C     0.51426   0.32230   0.23923   0.00000  Uiso   1.00
C73    C     0.48399   0.01282   0.26222   0.00000  Uiso   1.00
C74    C     0.48942   0.05634   0.25867   0.00000  Uiso   1.00
C75    C     0.51006   0.27769   0.24151   0.00000  Uiso   1.00
C76    C     0.52153   0.14531   0.14407   0.00000  Uiso   1.00
C77    C     0.47895   0.18790   0.35611   0.00000  Uiso   1.00
C78    C     0.46631   0.19279   0.39942   0.00000  Uiso   1.00
C79    C     0.53041   0.13685   0.10158   0.00000  Uiso   1.00
C80    C     0.41059   0.20271   0.46102   0.00000  Uiso   1.00
C81    C     0.49403   0.18320   0.41980   0.00000  Uiso   1.00
C82    C     0.47721   0.17587   0.45992   0.00000  Uiso   1.00
C83    C     0.43626   0.18892   0.48094   0.00000  Uiso   1.00
C84    C     0.49958   0.15633   0.47994   0.00000  Uiso   1.00
C85    C     0.48603   0.15869   0.02171   0.00000  Uiso   1.00
C86    C     0.44632   0.17449   0.04191   0.00000  Uiso   1.00
C87    C     0.42131   0.18802   0.02162   0.00000  Uiso   1.00
Cl88   Cl    0.43462   0.32843   0.29562   0.00000  Uiso   1.00
Cl89   Cl    0.59789   0.08495   0.44911   0.00000  Uiso   1.00
Cl90   Cl    0.55070   0.19123   0.39734   0.00000  Uiso   1.00
H91    H     0.39022   0.19833   0.03799   0.00000  Uiso   1.00
H92    H     0.53853   0.12261   0.42791   0.00000  Uiso   1.00
H93    H     0.60150   0.09163   0.02324   0.00000  Uiso   1.00
H94    H     0.35019   0.19347   0.21499   0.00000  Uiso   1.00
H95    H     0.65130   0.14044   0.28504   0.00000  Uiso   1.00
H96    H     0.47853   0.16845   0.10129   0.00000  Uiso   1.00
H97    H     0.58605   0.10496   0.09445   0.00000  Uiso   1.00
H98    H     0.37882   0.21183   0.47676   0.00000  Uiso   1.00
H99    H     0.40320   0.21098   0.40519   0.00000  Uiso   1.00
H100   H     0.43240   0.17463   0.07327   0.00000  Uiso   1.00
I101   I     0.57083   0.01503   0.19803   0.00000  Uiso   1.00
O102   O     0.50000   0.16667   0.25000   0.00000  Uiso   1.00
O103   O     0.49027   0.12393   0.16625   0.00000  Uiso   1.00
O104   O     0.46020   0.20646   0.33749   0.00000  Uiso   1.00
O105   O     0.54421   0.17493   0.15877   0.00000  Uiso   1.00
O106   O     0.50532   0.16135   0.33749   0.00000  Uiso   1.00
O107   O     0.51182   0.08101   0.27821   0.00000  Uiso   1.00
O108   O     0.47914   0.26136   0.26767   0.00000  Uiso   1.00
O109   O     0.40785   0.13251   0.23607   0.00000  Uiso   1.00
O110   O     0.60119   0.19179   0.21806   0.00000  Uiso   1.00
O111   O     0.40323   0.18960   0.27820   0.00000  Uiso   1.00
O112   O     0.58773   0.15277   0.26768   0.00000  Uiso   1.00
O113   O     0.47133   0.06903   0.23607   0.00000  Uiso   1.00
O114   O     0.53771   0.25527   0.21805   0.00000  Uiso   1.00
Zn115  Zn    0.52577   0.14090   0.28278   0.00000  Uiso   1.00
Zn116  Zn    0.46792   0.12378   0.22258   0.00000  Uiso   1.00
Zn117  Zn    0.54500   0.19664   0.21188   0.00000  Uiso   1.00
Zn118  Zn    0.46131   0.20535   0.28277   0.00000  Uiso   1.00
C119   C     0.71917   0.15998   0.25871   0.00000  Uiso   1.00
C120   C     0.86577   0.13127   0.45924   0.00000  Uiso   1.00
C121   C     0.88995   0.11474   0.47838   0.00000  Uiso   1.00
C122   C     0.94771   0.17359   0.24120   0.00000  Uiso   1.00
C123   C     0.88120   0.12218   0.01952   0.00000  Uiso   1.00
C124   C     0.84528   0.14381   0.04163   0.00000  Uiso   1.00
C125   C     0.90734   0.10813   0.03912   0.00000  Uiso   1.00
C126   C     0.89875   0.11568   0.07985   0.00000  Uiso   1.00
C127   C     0.83729   0.15078   0.08290   0.00000  Uiso   1.00
C128   C     0.99374   0.17630   0.23763   0.00000  Uiso   1.00
C129   C     0.67376   0.15766   0.26213   0.00000  Uiso   1.00
C130   C     0.75813   0.20299   0.42034   0.00000  Uiso   1.00
C131   C     0.84760   0.32230   0.23923   0.00000  Uiso   1.00
C132   C     0.81733   0.01282   0.26222   0.00000  Uiso   1.00
C133   C     0.82275   0.05634   0.25867   0.00000  Uiso   1.00
C134   C     0.84339   0.27769   0.24151   0.00000  Uiso   1.00
C135   C     0.85487   0.14531   0.14407   0.00000  Uiso   1.00
C136   C     0.81228   0.18790   0.35611   0.00000  Uiso   1.00
C137   C     0.79965   0.19279   0.39942   0.00000  Uiso   1.00
C138   C     0.86374   0.13685   0.10158   0.00000  Uiso   1.00
C139   C     0.74392   0.20271   0.46102   0.00000  Uiso   1.00
C140   C     0.82736   0.18320   0.41980   0.00000  Uiso   1.00
C141   C     0.81054   0.17587   0.45992   0.00000  Uiso   1.00
C142   C     0.76959   0.18892   0.48094   0.00000  Uiso   1.00
C143   C     0.83291   0.15633   0.47994   0.00000  Uiso   1.00
C144   C     0.81937   0.15869   0.02171   0.00000  Uiso   1.00
C145   C     0.77965   0.17449   0.04191   0.00000  Uiso   1.00
C146   C     0.75464   0.18802   0.02162   0.00000  Uiso   1.00
Cl147  Cl    0.76796   0.32843   0.29562   0.00000  Uiso   1.00
Cl148  Cl    0.93122   0.08495   0.44911   0.00000  Uiso   1.00
Cl149  Cl    0.88403   0.19123   0.39734   0.00000  Uiso   1.00
H150   H     0.72355   0.19833   0.03799   0.00000  Uiso   1.00
H151   H     0.87186   0.12261   0.42791   0.00000  Uiso   1.00
H152   H     0.93483   0.09163   0.02324   0.00000  Uiso   1.00
H153   H     0.68352   0.19347   0.21499   0.00000  Uiso   1.00
H154   H     0.98463   0.14044   0.28504   0.00000  Uiso   1.00
H155   H     0.81187   0.16845   0.10129   0.00000  Uiso   1.00
H156   H     0.91939   0.10496   0.09445   0.00000  Uiso   1.00
H157   H     0.71216   0.21183   0.47676   0.00000  Uiso   1.00
H158   H     0.73654   0.21098   0.40519   0.00000  Uiso   1.00
H159   H     0.76573   0.17463   0.07327   0.00000  Uiso   1.00
I160   I     0.90417   0.01503   0.19803   0.00000  Uiso   1.00
O161   O     0.83333   0.16667   0.25000   0.00000  Uiso   1.00
O162   O     0.82360   0.12393   0.16625   0.00000  Uiso   1.00
O163   O     0.79354   0.20646   0.33749   0.00000  Uiso   1.00
O164   O     0.87755   0.17493   0.15877   0.00000  Uiso   1.00
O165   O     0.83865   0.16135   0.33749   0.00000  Uiso   1.00
O166   O     0.84515   0.08101   0.27821   0.00000  Uiso   1.00
O167   O     0.81247   0.26136   0.26767   0.00000  Uiso   1.00
O168   O     0.74119   0.13251   0.23607   0.00000  Uiso   1.00
O169   O     0.93452   0.19179   0.21806   0.00000  Uiso   1.00
O170   O     0.73656   0.18960   0.27820   0.00000  Uiso   1.00
O171   O     0.92106   0.15277   0.26768   0.00000  Uiso   1.00
O172   O     0.80467   0.06903   0.23607   0.00000  Uiso   1.00
O173   O     0.87104   0.25527   0.21805   0.00000  Uiso   1.00
Zn174  Zn    0.85910   0.14090   0.28278   0.00000  Uiso   1.00
Zn175  Zn    0.80125   0.12378   0.22258   0.00000  Uiso   1.00
Zn176  Zn    0.87833   0.19664   0.21188   0.00000  Uiso   1.00
Zn177  Zn    0.79465   0.20535   0.28277   0.00000  Uiso   1.00
C178   C     0.05250   0.49331   0.25871   0.00000  Uiso   1.00
C179   C     0.19910   0.46460   0.45924   0.00000  Uiso   1.00
C180   C     0.22328   0.44808   0.47838   0.00000  Uiso   1.00
C181   C     0.28104   0.50693   0.24120   0.00000  Uiso   1.00
C182   C     0.21453   0.45551   0.01952   0.00000  Uiso   1.00
C183   C     0.17861   0.47714   0.04163   0.00000  Uiso   1.00
C184   C     0.24068   0.44146   0.03912   0.00000  Uiso   1.00
C185   C     0.23209   0.44901   0.07985   0.00000  Uiso   1.00
C186   C     0.17062   0.48411   0.08290   0.00000  Uiso   1.00
C187   C     0.32707   0.50964   0.23763   0.00000  Uiso   1.00
C188   C     0.00709   0.49100   0.26213   0.00000  Uiso   1.00
C189   C     0.09147   0.53632   0.42034   0.00000  Uiso   1.00
C190   C     0.18093   0.65564   0.23923   0.00000  Uiso   1.00
C191   C     0.15066   0.34615   0.26222   0.00000  Uiso   1.00
C192   C     0.15609   0.38967   0.25867   0.00000  Uiso   1.00
C193   C     0.17672   0.61103   0.24151   0.00000  Uiso   1.00
C194   C     0.18820   0.47865   0.14407   0.00000  Uiso   1.00
C195   C     0.14561   0.52123   0.35611   0.00000  Uiso   1.00
C196   C     0.13298   0.52612   0.39942   0.00000  Uiso   1.00
C197   C     0.19707   0.47018   0.10158   0.00000  Uiso   1.00
C198   C     0.07726   0.53605   0.46102   0.00000  Uiso   1.00
C199   C     0.16069   0.51653   0.41980   0.00000  Uiso   1.00
C200   C     0.14388   0.50920   0.45992   0.00000  Uiso   1.00
C201   C     0.10293   0.52225   0.48094   0.00000  Uiso   1.00
C202   C     0.16625   0.48966   0.47994   0.00000  Uiso   1.00
C203   C     0.15270   0.49203   0.02171   0.00000  Uiso   1.00
C204   C     0.11298   0.50783   0.04191   0.00000  Uiso   1.00
C205   C     0.08797   0.52136   0.02162   0.00000  Uiso   1.00
Cl206  Cl    0.10129   0.66176   0.29562   0.00000  Uiso   1.00
Cl207  Cl    0.26456   0.41829   0.44911   0.00000  Uiso   1.00
Cl208  Cl    0.21736   0.52456   0.39734   0.00000  Uiso   1.00
H209   H     0.05689   0.53167   0.03799   0.00000  Uiso   1.00
H210   H     0.20520   0.45595   0.42791   0.00000  Uiso   1.00
H211   H     0.26816   0.42496   0.02324   0.00000  Uiso   1.00
H212   H     0.01686   0.52680   0.21499   0.00000  Uiso   1.00
H213   H     0.31797   0.47377   0.28504   0.00000  Uiso   1.00
H214   H     0.14520   0.50178   0.10129   0.00000  Uiso   1.00
H215   H     0.25272   0.43829   0.09445   0.00000  Uiso   1.00
H216   H     0.04549   0.54517   0.47676   0.00000  Uiso   1.00
H217   H     0.06987   0.54431   0.40519   0.00000  Uiso   1.00
H218   H     0.09907   0.50796   0.07327   0.00000  Uiso   1.00
I219   I     0.23750   0.34837   0.19803   0.00000  Uiso   1.00
O220   O     0.16667   0.50000   0.25000   0.00000  Uiso   1.00
O221   O     0.15693   0.45726   0.16625   0.00000  Uiso   1.00
O222   O     0.12687   0.53979   0.33749   0.00000  Uiso   1.00
O223   O     0.21088   0.50826   0.15877   0.00000  Uiso   1.00
O224   O     0.17198   0.49468   0.33749   0.00000  Uiso   1.00
O225   O     0.17849   0.41434   0.27821   0.00000  Uiso   1.00
O226   O     0.14581   0.59469   0.26767   0.00000  Uiso   1.00
O227   O     0.07452   0.46584   0.23607   0.00000  Uiso   1.00
O228   O     0.26785   0.52512   0.21806   0.00000  Uiso   1.00
O229   O     0.06990   0.52293   0.27820   0.00000  Uiso   1.00
O230   O     0.25440   0.48610   0.26768   0.00000  Uiso   1.00
O231   O     0.13800   0.40236   0.23607   0.00000  Uiso   1.00
O232   O     0.20437   0.58860   0.21805   0.00000  Uiso   1.00
Zn233  Zn    0.19244   0.47423   0.28278   0.00000  Uiso   1.00
Zn234  Zn    0.13459   0.45711   0.22258   0.00000  Uiso   1.00
Zn235  Zn    0.21166   0.52997   0.21188   0.00000  Uiso   1.00
Zn236  Zn    0.12798   0.53868   0.28277   0.00000  Uiso   1.00
C237   C     0.38584   0.49331   0.25871   0.00000  Uiso   1.00
C238   C     0.53243   0.46460   0.45924   0.00000  Uiso   1.00
C239   C     0.55662   0.44808   0.47838   0.00000  Uiso   1.00
C240   C     0.61438   0.50693   0.24120   0.00000  Uiso   1.00
C241   C     0.54786   0.45551   0.01952   0.00000  Uiso   1.00
C242   C     0.51195   0.47714   0.04163   0.00000  Uiso   1.00
C243   C     0.57401   0.44146   0.03912   0.00000  Uiso   1.00
C244   C     0.56542   0.44901   0.07985   0.00000  Uiso   1.00
C245   C     0.50396   0.48411   0.08290   0.00000  Uiso   1.00
C246   C     0.66041   0.50964   0.23763   0.00000  Uiso   1.00
C247   C     0.34042   0.49100   0.26213   0.00000  Uiso   1.00
C248   C     0.42480   0.53632   0.42034   0.00000  Uiso   1.00
C249   C     0.51426   0.65564   0.23923   0.00000  Uiso   1.00
C250   C     0.48399   0.34615   0.26222   0.00000  Uiso   1.00
C251   C     0.48942   0.38967   0.25867   0.00000  Uiso   1.00
C252   C     0.51006   0.61103   0.24151   0.00000  Uiso   1.00
C253   C     0.52153   0.47865   0.14407   0.00000  Uiso   1.00
C254   C     0.47895   0.52123   0.35611   0.00000  Uiso   1.00
C255   C     0.46631   0.52612   0.39942   0.00000  Uiso   1.00
C256   C     0.53041   0.47018   0.10158   0.00000  Uiso   1.00
C257   C     0.41059   0.53605   0.46102   0.00000  Uiso   1.00
C258   C     0.49403   0.51653   0.41980   0.00000  Uiso   1.00
C259   C     0.47721   0.50920   0.45992   0.00000  Uiso   1.00
C260   C     0.43626   0.52225   0.48094   0.00000  Uiso   1.00
C261   C     0.49958   0.48966   0.47994   0.00000  Uiso   1.00
C262   C     0.48603   0.49203   0.02171   0.00000  Uiso   1.00
C263   C     0.44632   0.50783   0.04191   0.00000  Uiso   1.00
C264   C     0.42131   0.52136   0.02162   0.00000  Uiso   1.00
Cl265  Cl    0.43462   0.66176   0.29562   0.00000  Uiso   1.00
Cl266  Cl    0.59789   0.41829   0.44911   0.00000  Uiso   1.00
Cl267  Cl    0.55070   0.52456   0.39734   0.00000  Uiso   1.00
H268   H     0.39022   0.53167   0.03799   0.00000  Uiso   1.00
H269   H     0.53853   0.45595   0.42791   0.00000  Uiso   1.00
H270   H     0.60150   0.42496   0.02324   0.00000  Uiso   1.00
H271   H     0.35019   0.52680   0.21499   0.00000  Uiso   1.00
H272   H     0.65130   0.47377   0.28504   0.00000  Uiso   1.00
H273   H     0.47853   0.50178   0.10129   0.00000  Uiso   1.00
H274   H     0.58605   0.43829   0.09445   0.00000  Uiso   1.00
H275   H     0.37882   0.54517   0.47676   0.00000  Uiso   1.00
H276   H     0.40320   0.54431   0.40519   0.00000  Uiso   1.00
H277   H     0.43240   0.50796   0.07327   0.00000  Uiso   1.00
I278   I     0.57083   0.34837   0.19803   0.00000  Uiso   1.00
O279   O     0.50000   0.50000   0.25000   0.00000  Uiso   1.00
O280   O     0.49027   0.45726   0.16625   0.00000  Uiso   1.00
O281   O     0.46020   0.53979   0.33749   0.00000  Uiso   1.00
O282   O     0.54421   0.50826   0.15877   0.00000  Uiso   1.00
O283   O     0.50532   0.49468   0.33749   0.00000  Uiso   1.00
O284   O     0.51182   0.41434   0.27821   0.00000  Uiso   1.00
O285   O     0.47914   0.59469   0.26767   0.00000  Uiso   1.00
O286   O     0.40785   0.46584   0.23607   0.00000  Uiso   1.00
O287   O     0.60119   0.52512   0.21806   0.00000  Uiso   1.00
O288   O     0.40323   0.52293   0.27820   0.00000  Uiso   1.00
O289   O     0.58773   0.48610   0.26768   0.00000  Uiso   1.00
O290   O     0.47133   0.40236   0.23607   0.00000  Uiso   1.00
O291   O     0.53771   0.58860   0.21805   0.00000  Uiso   1.00
Zn292  Zn    0.52577   0.47423   0.28278   0.00000  Uiso   1.00
Zn293  Zn    0.46792   0.45711   0.22258   0.00000  Uiso   1.00
Zn294  Zn    0.54500   0.52997   0.21188   0.00000  Uiso   1.00
Zn295  Zn    0.46131   0.53868   0.28277   0.00000  Uiso   1.00
C296   C     0.71917   0.49331   0.25871   0.00000  Uiso   1.00
C297   C     0.86577   0.46460   0.45924   0.00000  Uiso   1.00
C298   C     0.88995   0.44808   0.47838   0.00000  Uiso   1.00
C299   C     0.94771   0.50693   0.24120   0.00000  Uiso   1.00
C300   C     0.88120   0.45551   0.01952   0.00000  Uiso   1.00
C301   C     0.84528   0.47714   0.04163   0.00000  Uiso   1.00
C302   C     0.90734   0.44146   0.03912   0.00000  Uiso   1.00
C303   C     0.89875   0.44901   0.07985   0.00000  Uiso   1.00
C304   C     0.83729   0.48411   0.08290   0.00000  Uiso   1.00
C305   C     0.99374   0.50964   0.23763   0.00000  Uiso   1.00
C306   C     0.67376   0.49100   0.26213   0.00000  Uiso   1.00
C307   C     0.75813   0.53632   0.42034   0.00000  Uiso   1.00
C308   C     0.84760   0.65564   0.23923   0.00000  Uiso   1.00
C309   C     0.81733   0.34615   0.26222   0.00000  Uiso   1.00
C310   C     0.82275   0.38967   0.25867   0.00000  Uiso   1.00
C311   C     0.84339   0.61103   0.24151   0.00000  Uiso   1.00
C312   C     0.85487   0.47865   0.14407   0.00000  Uiso   1.00
C313   C     0.81228   0.52123   0.35611   0.00000  Uiso   1.00
C314   C     0.79965   0.52612   0.39942   0.00000  Uiso   1.00
C315   C     0.86374   0.47018   0.10158   0.00000  Uiso   1.00
C316   C     0.74392   0.53605   0.46102   0.00000  Uiso   1.00
C317   C     0.82736   0.51653   0.41980   0.00000  Uiso   1.00
C318   C     0.81054   0.50920   0.45992   0.00000  Uiso   1.00
C319   C     0.76959   0.52225   0.48094   0.00000  Uiso   1.00
C320   C     0.83291   0.48966   0.47994   0.00000  Uiso   1.00
C321   C     0.81937   0.49203   0.02171   0.00000  Uiso   1.00
C322   C     0.77965   0.50783   0.04191   0.00000  Uiso   1.00
C323   C     0.75464   0.52136   0.02162   0.00000  Uiso   1.00
Cl324  Cl    0.76796   0.66176   0.29562   0.00000  Uiso   1.00
Cl325  Cl    0.93122   0.41829   0.44911   0.00000  Uiso   1.00
Cl326  Cl    0.88403   0.52456   0.39734   0.00000  Uiso   1.00
H327   H     0.72355   0.53167   0.03799   0.00000  Uiso   1.00
H328   H     0.87186   0.45595   0.42791   0.00000  Uiso   1.00
H329   H     0.93483   0.42496   0.02324   0.00000  Uiso   1.00
H330   H     0.68352   0.52680   0.21499   0.00000  Uiso   1.00
H331   H     0.98463   0.47377   0.28504   0.00000  Uiso   1.00
H332   H     0.81187   0.50178   0.10129   0.00000  Uiso   1.00
H333   H     0.91939   0.43829   0.09445   0.00000  Uiso   1.00
H334   H     0.71216   0.54517   0.47676   0.00000  Uiso   1.00
H335   H     0.73654   0.54431   0.40519   0.00000  Uiso   1.00
H336   H     0.76573   0.50796   0.07327   0.00000  Uiso   1.00
I337   I     0.90417   0.34837   0.19803   0.00000  Uiso   1.00
O338   O     0.83333   0.50000   0.25000   0.00000  Uiso   1.00
O339   O     0.82360   0.45726   0.16625   0.00000  Uiso   1.00
O340   O     0.79354   0.53979   0.33749   0.00000  Uiso   1.00
O341   O     0.87755   0.50826   0.15877   0.00000  Uiso   1.00
O342   O     0.83865   0.49468   0.33749   0.00000  Uiso   1.00
O343   O     0.84515   0.41434   0.27821   0.00000  Uiso   1.00
O344   O     0.81247   0.59469   0.26767   0.00000  Uiso   1.00
O345   O     0.74119   0.46584   0.23607   0.00000  Uiso   1.00
O346   O     0.93452   0.52512   0.21806   0.00000  Uiso   1.00
O347   O     0.73656   0.52293   0.27820   0.00000  Uiso   1.00
O348   O     0.92106   0.48610   0.26768   0.00000  Uiso   1.00
O349   O     0.80467   0.40236   0.23607   0.00000  Uiso   1.00
O350   O     0.87104   0.58860   0.21805   0.00000  Uiso   1.00
Zn351  Zn    0.85910   0.47423   0.28278   0.00000  Uiso   1.00
Zn352  Zn    0.80125   0.45711   0.22258   0.00000  Uiso   1.00
Zn353  Zn    0.87833   0.52997   0.21188   0.00000  Uiso   1.00
Zn354  Zn    0.79465   0.53868   0.28277   0.00000  Uiso   1.00
C355   C     0.05250   0.82664   0.25871   0.00000  Uiso   1.00
C356   C     0.19910   0.79794   0.45924   0.00000  Uiso   1.00
C357   C     0.22328   0.78141   0.47838   0.00000  Uiso   1.00
C358   C     0.28104   0.84026   0.24120   0.00000  Uiso   1.00
C359   C     0.21453   0.78884   0.01952   0.00000  Uiso   1.00
C360   C     0.17861   0.81048   0.04163   0.00000  Uiso   1.00
C361   C     0.24068   0.77480   0.03912   0.00000  Uiso   1.00
C362   C     0.23209   0.78234   0.07985   0.00000  Uiso   1.00
C363   C     0.17062   0.81745   0.08290   0.00000  Uiso   1.00
C364   C     0.32707   0.84297   0.23763   0.00000  Uiso   1.00
C365   C     0.00709   0.82433   0.26213   0.00000  Uiso   1.00
C366   C     0.09147   0.86966   0.42034   0.00000  Uiso   1.00
C367   C     0.18093   0.98897   0.23923   0.00000  Uiso   1.00
C368   C     0.15066   0.67949   0.26222   0.00000  Uiso   1.00
C369   C     0.15609   0.72301   0.25867   0.00000  Uiso   1.00
C370   C     0.17672   0.94436   0.24151   0.00000  Uiso   1.00
C371   C     0.18820   0.81198   0.14407   0.00000  Uiso   1.00
C372   C     0.14561   0.85456   0.35611   0.00000  Uiso   1.00
C373   C     0.13298   0.85945   0.39942   0.00000  Uiso   1.00
C374   C     0.19707   0.80351   0.10158   0.00000  Uiso   1.00
C375   C     0.07726   0.86938   0.46102   0.00000  Uiso   1.00
C376   C     0.16069   0.84987   0.41980   0.00000  Uiso   1.00
C377   C     0.14388   0.84253   0.45992   0.00000  Uiso   1.00
C378   C     0.10293   0.85558   0.48094   0.00000  Uiso   1.00
C379   C     0.16625   0.82299   0.47994   0.00000  Uiso   1.00
C380   C     0.15270   0.82536   0.02171   0.00000  Uiso   1.00
C381   C     0.11298   0.84116   0.04191   0.00000  Uiso   1.00
C382   C     0.08797   0.85469   0.02162   0.00000  Uiso   1.00
Cl383  Cl    0.10129   0.99510   0.29562   0.00000  Uiso   1.00
Cl384  Cl    0.26456   0.75162   0.44911   0.00000  Uiso   1.00
Cl385  Cl    0.21736   0.85789   0.39734   0.00000  Uiso   1.00
H386   H     0.05689   0.86500   0.03799   0.00000  Uiso   1.00
H387   H     0.20520   0.78928   0.42791   0.00000  Uiso   1.00
H388   H     0.26816   0.75829   0.02324   0.00000  Uiso   1.00
H389   H     0.01686   0.86013   0.21499   0.00000  Uiso   1.00
H390   H     0.31797   0.80711   0.28504   0.00000  Uiso   1.00
H391   H     0.14520   0.83512   0.10129   0.00000  Uiso   1.00
H392   H     0.25272   0.77163   0.09445   0.00000  Uiso   1.00
H393   H     0.04549   0.87850   0.47676   0.00000  Uiso   1.00
H394   H     0.06987   0.87764   0.40519   0.00000  Uiso   1.00
H395   H     0.09907   0.84130   0.07327   0.00000  Uiso   1.00
I396   I     0.23750   0.68170   0.19803   0.00000  Uiso   1.00
O397   O     0.16667   0.83333   0.25000   0.00000  Uiso   1.00
O398   O     0.15693   0.79060   0.16625   0.00000  Uiso   1.00
O399   O     0.12687   0.87313   0.33749   0.00000  Uiso   1.00
O400   O     0.21088   0.84159   0.15877   0.00000  Uiso   1.00
O401   O     0.17198   0.82802   0.33749   0.00000  Uiso   1.00
O402   O     0.17849   0.74768   0.27821   0.00000  Uiso   1.00
O403   O     0.14581   0.92803   0.26767   0.00000  Uiso   1.00
O404   O     0.07452   0.79917   0.23607   0.00000  Uiso   1.00
O405   O     0.26785   0.85845   0.21806   0.00000  Uiso   1.00
O406   O     0.06990   0.85627   0.27820   0.00000  Uiso   1.00
O407   O     0.25440   0.81944   0.26768   0.00000  Uiso   1.00
O408   O     0.13800   0.73570   0.23607   0.00000  Uiso   1.00
O409   O     0.20437   0.92193   0.21805   0.00000  Uiso   1.00
Zn410  Zn    0.19244   0.80756   0.28278   0.00000  Uiso   1.00
Zn411  Zn    0.13459   0.79044   0.22258   0.00000  Uiso   1.00
Zn412  Zn    0.21166   0.86331   0.21188   0.00000  Uiso   1.00
Zn413  Zn    0.12798   0.87202   0.28277   0.00000  Uiso   1.00
C414   C     0.38584   0.82664   0.25871   0.00000  Uiso   1.00
C415   C     0.53243   0.79794   0.45924   0.00000  Uiso   1.00
C416   C     0.55662   0.78141   0.47838   0.00000  Uiso   1.00
C417   C     0.61438   0.84026   0.24120   0.00000  Uiso   1.00
C418   C     0.54786   0.78884   0.01952   0.00000  Uiso   1.00
C419   C     0.51195   0.81048   0.04163   0.00000  Uiso   1.00
C420   C     0.57401   0.77480   0.03912   0.00000  Uiso   1.00
C421   C     0.56542   0.78234   0.07985   0.00000  Uiso   1.00
C422   C     0.50396   0.81745   0.08290   0.00000  Uiso   1.00
C423   C     0.66041   0.84297   0.23763   0.00000  Uiso   1.00
C424   C     0.34042   0.82433   0.26213   0.00000  Uiso   1.00
C425   C     0.42480   0.86966   0.42034   0.00000  Uiso   1.00
C426   C     0.51426   0.98897   0.23923   0.00000  Uiso   1.00
C427   C     0.48399   0.67949   0.26222   0.00000  Uiso   1.00
C428   C     0.48942   0.72301   0.25867   0.00000  Uiso   1.00
C429   C     0.51006   0.94436   0.24151   0.00000  Uiso   1.00
C430   C     0.52153   0.81198   0.14407   0.00000  Uiso   1.00
C431   C     0.47895   0.85456   0.35611   0.00000  Uiso   1.00
C432   C     0.46631   0.85945   0.39942   0.00000  Uiso   1.00
C433   C     0.53041   0.80351   0.10158   0.00000  Uiso   1.00
C434   C     0.41059   0.86938   0.46102   0.00000  Uiso   1.00
C435   C     0.49403   0.84987   0.41980   0.00000  Uiso   1.00
C436   C     0.47721   0.84253   0.45992   0.00000  Uiso   1.00
C437   C     0.43626   0.85558   0.48094   0.00000  Uiso   1.00
C438   C     0.49958   0.82299   0.47994   0.00000  Uiso   1.00
C439   C     0.48603   0.82536   0.02171   0.00000  Uiso   1.00
C440   C     0.44632   0.84116   0.04191   0.00000  Uiso   1.00
C441   C     0.42131   0.85469   0.02162   0.00000  Uiso   1.00
Cl442  Cl    0.43462   0.99510   0.29562   0.00000  Uiso   1.00
Cl443  Cl    0.59789   0.75162   0.44911   0.00000  Uiso   1.00
Cl444  Cl    0.55070   0.85789   0.39734   0.00000  Uiso   1.00
H445   H     0.39022   0.86500   0.03799   0.00000  Uiso   1.00
H446   H     0.53853   0.78928   0.42791   0.00000  Uiso   1.00
H447   H     0.60150   0.75829   0.02324   0.00000  Uiso   1.00
H448   H     0.35019   0.86013   0.21499   0.00000  Uiso   1.00
H449   H     0.65130   0.80711   0.28504   0.00000  Uiso   1.00
H450   H     0.47853   0.83512   0.10129   0.00000  Uiso   1.00
H451   H     0.58605   0.77163   0.09445   0.00000  Uiso   1.00
H452   H     0.37882   0.87850   0.47676   0.00000  Uiso   1.00
H453   H     0.40320   0.87764   0.40519   0.00000  Uiso   1.00
H454   H     0.43240   0.84130   0.07327   0.00000  Uiso   1.00
I455   I     0.57083   0.68170   0.19803   0.00000  Uiso   1.00
O456   O     0.50000   0.83333   0.25000   0.00000  Uiso   1.00
O457   O     0.49027   0.79060   0.16625   0.00000  Uiso   1.00
O458   O     0.46020   0.87313   0.33749   0.00000  Uiso   1.00
O459   O     0.54421   0.84159   0.15877   0.00000  Uiso   1.00
O460   O     0.50532   0.82802   0.33749   0.00000  Uiso   1.00
O461   O     0.51182   0.74768   0.27821   0.00000  Uiso   1.00
O462   O     0.47914   0.92803   0.26767   0.00000  Uiso   1.00
O463   O     0.40785   0.79917   0.23607   0.00000  Uiso   1.00
O464   O     0.60119   0.85845   0.21806   0.00000  Uiso   1.00
O465   O     0.40323   0.85627   0.27820   0.00000  Uiso   1.00
O466   O     0.58773   0.81944   0.26768   0.00000  Uiso   1.00
O467   O     0.47133   0.73570   0.23607   0.00000  Uiso   1.00
O468   O     0.53771   0.92193   0.21805   0.00000  Uiso   1.00
Zn469  Zn    0.52577   0.80756   0.28278   0.00000  Uiso   1.00
Zn470  Zn    0.46792   0.79044   0.22258   0.00000  Uiso   1.00
Zn471  Zn    0.54500   0.86331   0.21188   0.00000  Uiso   1.00
Zn472  Zn    0.46131   0.87202   0.28277   0.00000  Uiso   1.00
C473   C     0.71917   0.82664   0.25871   0.00000  Uiso   1.00
C474   C     0.86577   0.79794   0.45924   0.00000  Uiso   1.00
C475   C     0.88995   0.78141   0.47838   0.00000  Uiso   1.00
C476   C     0.94771   0.84026   0.24120   0.00000  Uiso   1.00
C477   C     0.88120   0.78884   0.01952   0.00000  Uiso   1.00
C478   C     0.84528   0.81048   0.04163   0.00000  Uiso   1.00
C479   C     0.90734   0.77480   0.03912   0.00000  Uiso   1.00
C480   C     0.89875   0.78234   0.07985   0.00000  Uiso   1.00
C481   C     0.83729   0.81745   0.08290   0.00000  Uiso   1.00
C482   C     0.99374   0.84297   0.23763   0.00000  Uiso   1.00
C483   C     0.67376   0.82433   0.26213   0.00000  Uiso   1.00
C484   C     0.75813   0.86966   0.42034   0.00000  Uiso   1.00
C485   C     0.84760   0.98897   0.23923   0.00000  Uiso   1.00
C486   C     0.81733   0.67949   0.26222   0.00000  Uiso   1.00
C487   C     0.82275   0.72301   0.25867   0.00000  Uiso   1.00
C488   C     0.84339   0.94436   0.24151   0.00000  Uiso   1.00
C489   C     0.85487   0.81198   0.14407   0.00000  Uiso   1.00
C490   C     0.81228   0.85456   0.35611   0.00000  Uiso   1.00
C491   C     0.79965   0.85945   0.39942   0.00000  Uiso   1.00
C492   C     0.86374   0.80351   0.10158   0.00000  Uiso   1.00
C493   C     0.74392   0.86938   0.46102   0.00000  Uiso   1.00
C494   C     0.82736   0.84987   0.41980   0.00000  Uiso   1.00
C495   C     0.81054   0.84253   0.45992   0.00000  Uiso   1.00
C496   C     0.76959   0.85558   0.48094   0.00000  Uiso   1.00
C497   C     0.83291   0.82299   0.47994   0.00000  Uiso   1.00
C498   C     0.81937   0.82536   0.02171   0.00000  Uiso   1.00
C499   C     0.77965   0.84116   0.04191   0.00000  Uiso   1.00
C500   C     0.75464   0.85469   0.02162   0.00000  Uiso   1.00
Cl501  Cl    0.76796   0.99510   0.29562   0.00000  Uiso   1.00
Cl502  Cl    0.93122   0.75162   0.44911   0.00000  Uiso   1.00
Cl503  Cl    0.88403   0.85789   0.39734   0.00000  Uiso   1.00
H504   H     0.72355   0.86500   0.03799   0.00000  Uiso   1.00
H505   H     0.87186   0.78928   0.42791   0.00000  Uiso   1.00
H506   H     0.93483   0.75829   0.02324   0.00000  Uiso   1.00
H507   H     0.68352   0.86013   0.21499   0.00000  Uiso   1.00
H508   H     0.98463   0.80711   0.28504   0.00000  Uiso   1.00
H509   H     0.81187   0.83512   0.10129   0.00000  Uiso   1.00
H510   H     0.91939   0.77163   0.09445   0.00000  Uiso   1.00
H511   H     0.71216   0.87850   0.47676   0.00000  Uiso   1.00
H512   H     0.73654   0.87764   0.40519   0.00000  Uiso   1.00
H513   H     0.76573   0.84130   0.07327   0.00000  Uiso   1.00
I514   I     0.90417   0.68170   0.19803   0.00000  Uiso   1.00
O515   O     0.83333   0.83333   0.25000   0.00000  Uiso   1.00
O516   O     0.82360   0.79060   0.16625   0.00000  Uiso   1.00
O517   O     0.79354   0.87313   0.33749   0.00000  Uiso   1.00
O518   O     0.87755   0.84159   0.15877   0.00000  Uiso   1.00
O519   O     0.83865   0.82802   0.33749   0.00000  Uiso   1.00
O520   O     0.84515   0.74768   0.27821   0.00000  Uiso   1.00
O521   O     0.81247   0.92803   0.26767   0.00000  Uiso   1.00
O522   O     0.74119   0.79917   0.23607   0.00000  Uiso   1.00
O523   O     0.93452   0.85845   0.21806   0.00000  Uiso   1.00
O524   O     0.73656   0.85627   0.27820   0.00000  Uiso   1.00
O525   O     0.92106   0.81944   0.26768   0.00000  Uiso   1.00
O526   O     0.80467   0.73570   0.23607   0.00000  Uiso   1.00
O527   O     0.87104   0.92193   0.21805   0.00000  Uiso   1.00
Zn528  Zn    0.85910   0.80756   0.28278   0.00000  Uiso   1.00
Zn529  Zn    0.80125   0.79044   0.22258   0.00000  Uiso   1.00
Zn530  Zn    0.87833   0.86331   0.21188   0.00000  Uiso   1.00
Zn531  Zn    0.79465   0.87202   0.28277   0.00000  Uiso   1.00
C532   C     0.05250   0.15998   0.75871   0.00000  Uiso   1.00
C533   C     0.19910   0.13127   0.95924   0.00000  Uiso   1.00
C534   C     0.22328   0.11474   0.97838   0.00000  Uiso   1.00
C535   C     0.28104   0.17359   0.74120   0.00000  Uiso   1.00
C536   C     0.21453   0.12218   0.51952   0.00000  Uiso   1.00
C537   C     0.17861   0.14381   0.54163   0.00000  Uiso   1.00
C538   C     0.24068   0.10813   0.53912   0.00000  Uiso   1.00
C539   C     0.23209   0.11568   0.57985   0.00000  Uiso   1.00
C540   C     0.17062   0.15078   0.58290   0.00000  Uiso   1.00
C541   C     0.32707   0.17630   0.73763   0.00000  Uiso   1.00
C542   C     0.00709   0.15766   0.76213   0.00000  Uiso   1.00
C543   C     0.09147   0.20299   0.92034   0.00000  Uiso   1.00
C544   C     0.18093   0.32230   0.73923   0.00000  Uiso   1.00
C545   C     0.15066   0.01282   0.76222   0.00000  Uiso   1.00
C546   C     0.15609   0.05634   0.75867   0.00000  Uiso   1.00
C547   C     0.17672   0.27769   0.74151   0.00000  Uiso   1.00
C548   C     0.18820   0.14531   0.64407   0.00000  Uiso   1.00
C549   C     0.14561   0.18790   0.85611   0.00000  Uiso   1.00
C550   C     0.13298   0.19279   0.89942   0.00000  Uiso   1.00
C551   C     0.19707   0.13685   0.60158   0.00000  Uiso   1.00
C552   C     0.07726   0.20271   0.96102   0.00000  Uiso   1.00
C553   C     0.16069   0.18320   0.91980   0.00000  Uiso   1.00
C554   C     0.14388   0.17587   0.95992   0.00000  Uiso   1.00
C555   C     0.10293   0.18892   0.98094   0.00000  Uiso   1.00
C556   C     0.16625   0.15633   0.97994   0.00000  Uiso   1.00
C557   C     0.15270   0.15869   0.52171   0.00000  Uiso   1.00
C558   C     0.11298   0.17449   0.54191   0.00000  Uiso   1.00
C559   C     0.08797   0.18802   0.52162   0.00000  Uiso   1.00
Cl560  Cl    0.10129   0.32843   0.79562   0.00000  Uiso   1.00
Cl561  Cl    0.26456   0.08495   0.94911   0.00000  Uiso   1.00
Cl562  Cl    0.21736   0.19123   0.89734   0.00000  Uiso   1.00
H563   H     0.05689   0.19833   0.53799   0.00000  Uiso   1.00
H564   H     0.20520   0.12261   0.92791   0.00000  Uiso   1.00
H565   H     0.26816   0.09163   0.52324   0.00000  Uiso   1.00
H566   H     0.01686   0.19347   0.71499   0.00000  Uiso   1.00
H567   H     0.31797   0.14044   0.78504   0.00000  Uiso   1.00
H568   H     0.14520   0.16845   0.60129   0.00000  Uiso   1.00
H569   H     0.25272   0.10496   0.59445   0.00000  Uiso   1.00
H570   H     0.04549   0.21183   0.97676   0.00000  Uiso   1.00
H571   H     0.06987   0.21098   0.90519   0.00000  Uiso   1.00
H572   H     0.09907   0.17463   0.57327   0.00000  Uiso   1.00
I573   I     0.23750   0.01503   0.69803   0.00000  Uiso   1.00
O574   O     0.16667   0.16667   0.75000   0.00000  Uiso   1.00
O575   O     0.15693   0.12393   0.66625   0.00000  Uiso   1.00
O576   O     0.12687   0.20646   0.83749   0.00000  Uiso   1.00
O577   O     0.21088   0.17493   0.65877   0.00000  Uiso   1.00
O578   O     0.17198   0.16135   0.83749   0.00000  Uiso   1.00
O579   O     0.17849   0.08101   0.77821   0.00000  Uiso   1.00
O580   O     0.14581   0.26136   0.76767   0.00000  Uiso   1.00
O581   O     0.07452   0.13251   0.73607   0.00000  Uiso   1.00
O582   O     0.26785   0.19179   0.71806   0.00000  Uiso   1.00
O583   O     0.06990   0.18960   0.77820   0.00000  Uiso   1.00
O584   O     0.25440   0.15277   0.76768   0.00000  Uiso   1.00
O585   O     0.13800   0.06903   0.73607   0.00000  Uiso   1.00
O586   O     0.20437   0.25527   0.71805   0.00000  Uiso   1.00
Zn587  Zn    0.19244   0.14090   0.78278   0.00000  Uiso   1.00
Zn588  Zn    0.13459   0.12378   0.72258   0.00000  Uiso   1.00
Zn589  Zn    0.21166   0.19664   0.71188   0.00000  Uiso   1.00
Zn590  Zn    0.12798   0.20535   0.78277   0.00000  Uiso   1.00
C591   C     0.38584   0.15998   0.75871   0.00000  Uiso   1.00
C592   C     0.53243   0.13127   0.95924   0.00000  Uiso   1.00
C593   C     0.55662   0.11474   0.97838   0.00000  Uiso   1.00
C594   C     0.61438   0.17359   0.74120   0.00000  Uiso   1.00
C595   C     0.54786   0.12218   0.51952   0.00000  Uiso   1.00
C596   C     0.51195   0.14381   0.54163   0.00000  Uiso   1.00
C597   C     0.57401   0.10813   0.53912   0.00000  Uiso   1.00
C598   C     0.56542   0.11568   0.57985   0.00000  Uiso   1.00
C599   C     0.50396   0.15078   0.58290   0.00000  Uiso   1.00
C600   C     0.66041   0.17630   0.73763   0.00000  Uiso   1.00
C601   C     0.34042   0.15766   0.76213   0.00000  Uiso   1.00
C602   C     0.42480   0.20299   0.92034   0.00000  Uiso   1.00
C603   C     0.51426   0.32230   0.73923   0.00000  Uiso   1.00
C604   C     0.48399   0.01282   0.76222   0.00000  Uiso   1.00
C605   C     0.48942   0.05634   0.75867   0.00000  Uiso   1.00
C606   C     0.51006   0.27769   0.74151   0.00000  Uiso   1.00
C607   C     0.52153   0.14531   0.64407   0.00000  Uiso   1.00
C608   C     0.47895   0.18790   0.85611   0.00000  Uiso   1.00
C609   C     0.46631   0.19279   0.89942   0.00000  Uiso   1.00
C610   C     0.53041   0.13685   0.60158   0.00000  Uiso   1.00
C611   C     0.41059   0.20271   0.96102   0.00000  Uiso   1.00
C612   C     0.49403   0.18320   0.91980   0.00000  Uiso   1.00
C613   C     0.47721   0.17587   0.95992   0.00000  Uiso   1.00
C614   C     0.43626   0.18892   0.98094   0.00000  Uiso   1.00
C615   C     0.49958   0.15633   0.97994   0.00000  Uiso   1.00
C616   C     0.48603   0.15869   0.52171   0.00000  Uiso   1.00
C617   C     0.44632   0.17449   0.54191   0.00000  Uiso   1.00
C618   C     0.42131   0.18802   0.52162   0.00000  Uiso   1.00
Cl619  Cl    0.43462   0.32843   0.79562   0.00000  Uiso   1.00
Cl620  Cl    0.59789   0.08495   0.94911   0.00000  Uiso   1.00
Cl621  Cl    0.55070   0.19123   0.89734   0.00000  Uiso   1.00
H622   H     0.39022   0.19833   0.53799   0.00000  Uiso   1.00
H623   H     0.53853   0.12261   0.92791   0.00000  Uiso   1.00
H624   H     0.60150   0.09163   0.52324   0.00000  Uiso   1.00
H625   H     0.35019   0.19347   0.71499   0.00000  Uiso   1.00
H626   H     0.65130   0.14044   0.78504   0.00000  Uiso   1.00
H627   H     0.47853   0.16845   0.60129   0.00000  Uiso   1.00
H628   H     0.58605   0.10496   0.59445   0.00000  Uiso   1.00
H629   H     0.37882   0.21183   0.97676   0.00000  Uiso   1.00
H630   H     0.40320   0.21098   0.90519   0.00000  Uiso   1.00
H631   H     0.43240   0.17463   0.57327   0.00000  Uiso   1.00
I632   I     0.57083   0.01503   0.69803   0.00000  Uiso   1.00
O633   O     0.50000   0.16667   0.75000   0.00000  Uiso   1.00
O634   O     0.49027   0.12393   0.66625   0.00000  Uiso   1.00
O635   O     0.46020   0.20646   0.83749   0.00000  Uiso   1.00
O636   O     0.54421   0.17493   0.65877   0.00000  Uiso   1.00
O637   O     0.50532   0.16135   0.83749   0.00000  Uiso   1.00
O638   O     0.51182   0.08101   0.77821   0.00000  Uiso   1.00
O639   O     0.47914   0.26136   0.76767   0.00000  Uiso   1.00
O640   O     0.40785   0.13251   0.73607   0.00000  Uiso   1.00
O641   O     0.60119   0.19179   0.71806   0.00000  Uiso   1.00
O642   O     0.40323   0.18960   0.77820   0.00000  Uiso   1.00
O643   O     0.58773   0.15277   0.76768   0.00000  Uiso   1.00
O644   O     0.47133   0.06903   0.73607   0.00000  Uiso   1.00
O645   O     0.53771   0.25527   0.71805   0.00000  Uiso   1.00
Zn646  Zn    0.52577   0.14090   0.78278   0.00000  Uiso   1.00
Zn647  Zn    0.46792   0.12378   0.72258   0.00000  Uiso   1.00
Zn648  Zn    0.54500   0.19664   0.71188   0.00000  Uiso   1.00
Zn649  Zn    0.46131   0.20535   0.78277   0.00000  Uiso   1.00
C650   C     0.71917   0.15998   0.75871   0.00000  Uiso   1.00
C651   C     0.86577   0.13127   0.95924   0.00000  Uiso   1.00
C652   C     0.88995   0.11474   0.97838   0.00000  Uiso   1.00
C653   C     0.94771   0.17359   0.74120   0.00000  Uiso   1.00
C654   C     0.88120   0.12218   0.51952   0.00000  Uiso   1.00
C655   C     0.84528   0.14381   0.54163   0.00000  Uiso   1.00
C656   C     0.90734   0.10813   0.53912   0.00000  Uiso   1.00
C657   C     0.89875   0.11568   0.57985   0.00000  Uiso   1.00
C658   C     0.83729   0.15078   0.58290   0.00000  Uiso   1.00
C659   C     0.99374   0.17630   0.73763   0.00000  Uiso   1.00
C660   C     0.67376   0.15766   0.76213   0.00000  Uiso   1.00
C661   C     0.75813   0.20299   0.92034   0.00000  Uiso   1.00
C662   C     0.84760   0.32230   0.73923   0.00000  Uiso   1.00
C663   C     0.81733   0.01282   0.76222   0.00000  Uiso   1.00
C664   C     0.82275   0.05634   0.75867   0.00000  Uiso   1.00
C665   C     0.84339   0.27769   0.74151   0.00000  Uiso   1.00
C666   C     0.85487   0.14531   0.64407   0.00000  Uiso   1.00
C667   C     0.81228   0.18790   0.85611   0.00000  Uiso   1.00
C668   C     0.79965   0.19279   0.89942   0.00000  Uiso   1.00
C669   C     0.86374   0.13685   0.60158   0.00000  Uiso   1.00
C670   C     0.74392   0.20271   0.96102   0.00000  Uiso   1.00
C671   C     0.82736   0.18320   0.91980   0.00000  Uiso   1.00
C672   C     0.81054   0.17587   0.95992   0.00000  Uiso   1.00
C673   C     0.76959   0.18892   0.98094   0.00000  Uiso   1.00
C674   C     0.83291   0.15633   0.97994   0.00000  Uiso   1.00
C675   C     0.81937   0.15869   0.52171   0.00000  Uiso   1.00
C676   C     0.77965   0.17449   0.54191   0.00000  Uiso   1.00
C677   C     0.75464   0.18802   0.52162   0.00000  Uiso   1.00
Cl678  Cl    0.76796   0.32843   0.79562   0.00000  Uiso   1.00
Cl679  Cl    0.93122   0.08495   0.94911   0.00000  Uiso   1.00
Cl680  Cl    0.88403   0.19123   0.89734   0.00000  Uiso   1.00
H681   H     0.72355   0.19833   0.53799   0.00000  Uiso   1.00
H682   H     0.87186   0.12261   0.92791   0.00000  Uiso   1.00
H683   H     0.93483   0.09163   0.52324   0.00000  Uiso   1.00
H684   H     0.68352   0.19347   0.71499   0.00000  Uiso   1.00
H685   H     0.98463   0.14044   0.78504   0.00000  Uiso   1.00
H686   H     0.81187   0.16845   0.60129   0.00000  Uiso   1.00
H687   H     0.91939   0.10496   0.59445   0.00000  Uiso   1.00
H688   H     0.71216   0.21183   0.97676   0.00000  Uiso   1.00
H689   H     0.73654   0.21098   0.90519   0.00000  Uiso   1.00
H690   H     0.76573   0.17463   0.57327   0.00000  Uiso   1.00
I691   I     0.90417   0.01503   0.69803   0.00000  Uiso   1.00
O692   O     0.83333   0.16667   0.75000   0.00000  Uiso   1.00
O693   O     0.82360   0.12393   0.66625   0.00000  Uiso   1.00
O694   O     0.79354   0.20646   0.83749   0.00000  Uiso   1.00
O695   O     0.87755   0.17493   0.65877   0.00000  Uiso   1.00
O696   O     0.83865   0.16135   0.83749   0.00000  Uiso   1.00
O697   O     0.84515   0.08101   0.77821   0.00000  Uiso   1.00
O698   O     0.81247   0.26136   0.76767   0.00000  Uiso   1.00
O699   O     0.74119   0.13251   0.73607   0.00000  Uiso   1.00
O700   O     0.93452   0.19179   0.71806   0.00000  Uiso   1.00
O701   O     0.73656   0.18960   0.77820   0.00000  Uiso   1.00
O702   O     0.92106   0.15277   0.76768   0.00000  Uiso   1.00
O703   O     0.80467   0.06903   0.73607   0.00000  Uiso   1.00
O704   O     0.87104   0.25527   0.71805   0.00000  Uiso   1.00
Zn705  Zn    0.85910   0.14090   0.78278   0.00000  Uiso   1.00
Zn706  Zn    0.80125   0.12378   0.72258   0.00000  Uiso   1.00
Zn707  Zn    0.87833   0.19664   0.71188   0.00000  Uiso   1.00
Zn708  Zn    0.79465   0.20535   0.78277   0.00000  Uiso   1.00
C709   C     0.05250   0.49331   0.75871   0.00000  Uiso   1.00
C710   C     0.19910   0.46460   0.95924   0.00000  Uiso   1.00
C711   C     0.22328   0.44808   0.97838   0.00000  Uiso   1.00
C712   C     0.28104   0.50693   0.74120   0.00000  Uiso   1.00
C713   C     0.21453   0.45551   0.51952   0.00000  Uiso   1.00
C714   C     0.17861   0.47714   0.54163   0.00000  Uiso   1.00
C715   C     0.24068   0.44146   0.53912   0.00000  Uiso   1.00
C716   C     0.23209   0.44901   0.57985   0.00000  Uiso   1.00
C717   C     0.17062   0.48411   0.58290   0.00000  Uiso   1.00
C718   C     0.32707   0.50964   0.73763   0.00000  Uiso   1.00
C719   C     0.00709   0.49100   0.76213   0.00000  Uiso   1.00
C720   C     0.09147   0.53632   0.92034   0.00000  Uiso   1.00
C721   C     0.18093   0.65564   0.73923   0.00000  Uiso   1.00
C722   C     0.15066   0.34615   0.76222   0.00000  Uiso   1.00
C723   C     0.15609   0.38967   0.75867   0.00000  Uiso   1.00
C724   C     0.17672   0.61103   0.74151   0.00000  Uiso   1.00
C725   C     0.18820   0.47865   0.64407   0.00000  Uiso   1.00
C726   C     0.14561   0.52123   0.85611   0.00000  Uiso   1.00
C727   C     0.13298   0.52612   0.89942   0.00000  Uiso   1.00
C728   C     0.19707   0.47018   0.60158   0.00000  Uiso   1.00
C729   C     0.07726   0.53605   0.96102   0.00000  Uiso   1.00
C730   C     0.16069   0.51653   0.91980   0.00000  Uiso   1.00
C731   C     0.14388   0.50920   0.95992   0.00000  Uiso   1.00
C732   C     0.10293   0.52225   0.98094   0.00000  Uiso   1.00
C733   C     0.16625   0.48966   0.97994   0.00000  Uiso   1.00
C734   C     0.15270   0.49203   0.52171   0.00000  Uiso   1.00
C735   C     0.11298   0.50783   0.54191   0.00000  Uiso   1.00
C736   C     0.08797   0.52136   0.52162   0.00000  Uiso   1.00
Cl737  Cl    0.10129   0.66176   0.79562   0.00000  Uiso   1.00
Cl738  Cl    0.26456   0.41829   0.94911   0.00000  Uiso   1.00
Cl739  Cl    0.21736   0.52456   0.89734   0.00000  Uiso   1.00
H740   H     0.05689   0.53167   0.53799   0.00000  Uiso   1.00
H741   H     0.20520   0.45595   0.92791   0.00000  Uiso   1.00
H742   H     0.26816   0.42496   0.52324   0.00000  Uiso   1.00
H743   H     0.01686   0.52680   0.71499   0.00000  Uiso   1.00
H744   H     0.31797   0.47377   0.78504   0.00000  Uiso   1.00
H745   H     0.14520   0.50178   0.60129   0.00000  Uiso   1.00
H746   H     0.25272   0.43829   0.59445   0.00000  Uiso   1.00
H747   H     0.04549   0.54517   0.97676   0.00000  Uiso   1.00
H748   H     0.06987   0.54431   0.90519   0.00000  Uiso   1.00
H749   H     0.09907   0.50796   0.57327   0.00000  Uiso   1.00
I750   I     0.23750   0.34837   0.69803   0.00000  Uiso   1.00
O751   O     0.16667   0.50000   0.75000   0.00000  Uiso   1.00
O752   O     0.15693   0.45726   0.66625   0.00000  Uiso   1.00
O753   O     0.12687   0.53979   0.83749   0.00000  Uiso   1.00
O754   O     0.21088   0.50826   0.65877   0.00000  Uiso   1.00
O755   O     0.17198   0.49468   0.83749   0.00000  Uiso   1.00
O756   O     0.17849   0.41434   0.77821   0.00000  Uiso   1.00
O757   O     0.14581   0.59469   0.76767   0.00000  Uiso   1.00
O758   O     0.07452   0.46584   0.73607   0.00000  Uiso   1.00
O759   O     0.26785   0.52512   0.71806   0.00000  Uiso   1.00
O760   O     0.06990   0.52293   0.77820   0.00000  Uiso   1.00
O761   O     0.25440   0.48610   0.76768   0.00000  Uiso   1.00
O762   O     0.13800   0.40236   0.73607   0.00000  Uiso   1.00
O763   O     0.20437   0.58860   0.71805   0.00000  Uiso   1.00
Zn764  Zn    0.19244   0.47423   0.78278   0.00000  Uiso   1.00
Zn765  Zn    0.13459   0.45711   0.72258   0.00000  Uiso   1.00
Zn766  Zn    0.21166   0.52997   0.71188   0.00000  Uiso   1.00
Zn767  Zn    0.12798   0.53868   0.78277   0.00000  Uiso   1.00
C768   C     0.38584   0.49331   0.75871   0.00000  Uiso   1.00
C769   C     0.53243   0.46460   0.95924   0.00000  Uiso   1.00
C770   C     0.55662   0.44808   0.97838   0.00000  Uiso   1.00
C771   C     0.61438   0.50693   0.74120   0.00000  Uiso   1.00
C772   C     0.54786   0.45551   0.51952   0.00000  Uiso   1.00
C773   C     0.51195   0.47714   0.54163   0.00000  Uiso   1.00
C774   C     0.57401   0.44146   0.53912   0.00000  Uiso   1.00
C775   C     0.56542   0.44901   0.57985   0.00000  Uiso   1.00
C776   C     0.50396   0.48411   0.58290   0.00000  Uiso   1.00
C777   C     0.66041   0.50964   0.73763   0.00000  Uiso   1.00
C778   C     0.34042   0.49100   0.76213   0.00000  Uiso   1.00
C779   C     0.42480   0.53632   0.92034   0.00000  Uiso   1.00
C780   C     0.51426   0.65564   0.73923   0.00000  Uiso   1.00
C781   C     0.48399   0.34615   0.76222   0.00000  Uiso   1.00
C782   C     0.48942   0.38967   0.75867   0.00000  Uiso   1.00
C783   C     0.51006   0.61103   0.74151   0.00000  Uiso   1.00
C784   C     0.52153   0.47865   0.64407   0.00000  Uiso   1.00
C785   C     0.47895   0.52123   0.85611   0.00000  Uiso   1.00
C786   C     0.46631   0.52612   0.89942   0.00000  Uiso   1.00
C787   C     0.53041   0.47018   0.60158   0.00000  Uiso   1.00
C788   C     0.41059   0.53605   0.96102   0.00000  Uiso   1.00
C789   C     0.49403   0.51653   0.91980   0.00000  Uiso   1.00
C790   C     0.47721   0.50920   0.95992   0.00000  Uiso   1.00
C791   C     0.43626   0.52225   0.98094   0.00000  Uiso   1.00
C792   C     0.49958   0.48966   0.97994   0.00000  Uiso   1.00
C793   C     0.48603   0.49203   0.52171   0.00000  Uiso   1.00
C794   C     0.44632   0.50783   0.54191   0.00000  Uiso   1.00
C795   C     0.42131   0.52136   0.52162   0.00000  Uiso   1.00
Cl796  Cl    0.43462   0.66176   0.79562   0.00000  Uiso   1.00
Cl797  Cl    0.59789   0.41829   0.94911   0.00000  Uiso   1.00
Cl798  Cl    0.55070   0.52456   0.89734   0.00000  Uiso   1.00
H799   H     0.39022   0.53167   0.53799   0.00000  Uiso   1.00
H800   H     0.53853   0.45595   0.92791   0.00000  Uiso   1.00
H801   H     0.60150   0.42496   0.52324   0.00000  Uiso   1.00
H802   H     0.35019   0.52680   0.71499   0.00000  Uiso   1.00
H803   H     0.65130   0.47377   0.78504   0.00000  Uiso   1.00
H804   H     0.47853   0.50178   0.60129   0.00000  Uiso   1.00
H805   H     0.58605   0.43829   0.59445   0.00000  Uiso   1.00
H806   H     0.37882   0.54517   0.97676   0.00000  Uiso   1.00
H807   H     0.40320   0.54431   0.90519   0.00000  Uiso   1.00
H808   H     0.43240   0.50796   0.57327   0.00000  Uiso   1.00
I809   I     0.57083   0.34837   0.69803   0.00000  Uiso   1.00
O810   O     0.50000   0.50000   0.75000   0.00000  Uiso   1.00
O811   O     0.49027   0.45726   0.66625   0.00000  Uiso   1.00
O812   O     0.46020   0.53979   0.83749   0.00000  Uiso   1.00
O813   O     0.54421   0.50826   0.65877   0.00000  Uiso   1.00
O814   O     0.50532   0.49468   0.83749   0.00000  Uiso   1.00
O815   O     0.51182   0.41434   0.77821   0.00000  Uiso   1.00
O816   O     0.47914   0.59469   0.76767   0.00000  Uiso   1.00
O817   O     0.40785   0.46584   0.73607   0.00000  Uiso   1.00
O818   O     0.60119   0.52512   0.71806   0.00000  Uiso   1.00
O819   O     0.40323   0.52293   0.77820   0.00000  Uiso   1.00
O820   O     0.58773   0.48610   0.76768   0.00000  Uiso   1.00
O821   O     0.47133   0.40236   0.73607   0.00000  Uiso   1.00
O822   O     0.53771   0.58860   0.71805   0.00000  Uiso   1.00
Zn823  Zn    0.52577   0.47423   0.78278   0.00000  Uiso   1.00
Zn824  Zn    0.46792   0.45711   0.72258   0.00000  Uiso   1.00
Zn825  Zn    0.54500   0.52997   0.71188   0.00000  Uiso   1.00
Zn826  Zn    0.46131   0.53868   0.78277   0.00000  Uiso   1.00
C827   C     0.71917   0.49331   0.75871   0.00000  Uiso   1.00
C828   C     0.86577   0.46460   0.95924   0.00000  Uiso   1.00
C829   C     0.88995   0.44808   0.97838   0.00000  Uiso   1.00
C830   C     0.94771   0.50693   0.74120   0.00000  Uiso   1.00
C831   C     0.88120   0.45551   0.51952   0.00000  Uiso   1.00
C832   C     0.84528   0.47714   0.54163   0.00000  Uiso   1.00
C833   C     0.90734   0.44146   0.53912   0.00000  Uiso   1.00
C834   C     0.89875   0.44901   0.57985   0.00000  Uiso   1.00
C835   C     0.83729   0.48411   0.58290   0.00000  Uiso   1.00
C836   C     0.99374   0.50964   0.73763   0.00000  Uiso   1.00
C837   C     0.67376   0.49100   0.76213   0.00000  Uiso   1.00
C838   C     0.75813   0.53632   0.92034   0.00000  Uiso   1.00
C839   C     0.84760   0.65564   0.73923   0.00000  Uiso   1.00
C840   C     0.81733   0.34615   0.76222   0.00000  Uiso   1.00
C841   C     0.82275   0.38967   0.75867   0.00000  Uiso   1.00
C842   C     0.84339   0.61103   0.74151   0.00000  Uiso   1.00
C843   C     0.85487   0.47865   0.64407   0.00000  Uiso   1.00
C844   C     0.81228   0.52123   0.85611   0.00000  Uiso   1.00
C845   C     0.79965   0.52612   0.89942   0.00000  Uiso   1.00
C846   C     0.86374   0.47018   0.60158   0.00000  Uiso   1.00
C847   C     0.74392   0.53605   0.96102   0.00000  Uiso   1.00
C848   C     0.82736   0.51653   0.91980   0.00000  Uiso   1.00
C849   C     0.81054   0.50920   0.95992   0.00000  Uiso   1.00
C850   C     0.76959   0.52225   0.98094   0.00000  Uiso   1.00
C851   C     0.83291   0.48966   0.97994   0.00000  Uiso   1.00
C852   C     0.81937   0.49203   0.52171   0.00000  Uiso   1.00
C853   C     0.77965   0.50783   0.54191   0.00000  Uiso   1.00
C854   C     0.75464   0.52136   0.52162   0.00000  Uiso   1.00
Cl855  Cl    0.76796   0.66176   0.79562   0.00000  Uiso   1.00
Cl856  Cl    0.93122   0.41829   0.94911   0.00000  Uiso   1.00
Cl857  Cl    0.88403   0.52456   0.89734   0.00000  Uiso   1.00
H858   H     0.72355   0.53167   0.53799   0.00000  Uiso   1.00
H859   H     0.87186   0.45595   0.92791   0.00000  Uiso   1.00
H860   H     0.93483   0.42496   0.52324   0.00000  Uiso   1.00
H861   H     0.68352   0.52680   0.71499   0.00000  Uiso   1.00
H862   H     0.98463   0.47377   0.78504   0.00000  Uiso   1.00
H863   H     0.81187   0.50178   0.60129   0.00000  Uiso   1.00
H864   H     0.91939   0.43829   0.59445   0.00000  Uiso   1.00
H865   H     0.71216   0.54517   0.97676   0.00000  Uiso   1.00
H866   H     0.73654   0.54431   0.90519   0.00000  Uiso   1.00
H867   H     0.76573   0.50796   0.57327   0.00000  Uiso   1.00
I868   I     0.90417   0.34837   0.69803   0.00000  Uiso   1.00
O869   O     0.83333   0.50000   0.75000   0.00000  Uiso   1.00
O870   O     0.82360   0.45726   0.66625   0.00000  Uiso   1.00
O871   O     0.79354   0.53979   0.83749   0.00000  Uiso   1.00
O872   O     0.87755   0.50826   0.65877   0.00000  Uiso   1.00
O873   O     0.83865   0.49468   0.83749   0.00000  Uiso   1.00
O874   O     0.84515   0.41434   0.77821   0.00000  Uiso   1.00
O875   O     0.81247   0.59469   0.76767   0.00000  Uiso   1.00
O876   O     0.74119   0.46584   0.73607   0.00000  Uiso   1.00
O877   O     0.93452   0.52512   0.71806   0.00000  Uiso   1.00
O878   O     0.73656   0.52293   0.77820   0.00000  Uiso   1.00
O879   O     0.92106   0.48610   0.76768   0.00000  Uiso   1.00
O880   O     0.80467   0.40236   0.73607   0.00000  Uiso   1.00
O881   O     0.87104   0.58860   0.71805   0.00000  Uiso   1.00
Zn882  Zn    0.85910   0.47423   0.78278   0.00000  Uiso   1.00
Zn883  Zn    0.80125   0.45711   0.72258   0.00000  Uiso   1.00
Zn884  Zn    0.87833   0.52997   0.71188   0.00000  Uiso   1.00
Zn885  Zn    0.79465   0.53868   0.78277   0.00000  Uiso   1.00
C886   C     0.05250   0.82664   0.75871   0.00000  Uiso   1.00
C887   C     0.19910   0.79794   0.95924   0.00000  Uiso   1.00
C888   C     0.22328   0.78141   0.97838   0.00000  Uiso   1.00
C889   C     0.28104   0.84026   0.74120   0.00000  Uiso   1.00
C890   C     0.21453   0.78884   0.51952   0.00000  Uiso   1.00
C891   C     0.17861   0.81048   0.54163   0.00000  Uiso   1.00
C892   C     0.24068   0.77480   0.53912   0.00000  Uiso   1.00
C893   C     0.23209   0.78234   0.57985   0.00000  Uiso   1.00
C894   C     0.17062   0.81745   0.58290   0.00000  Uiso   1.00
C895   C     0.32707   0.84297   0.73763   0.00000  Uiso   1.00
C896   C     0.00709   0.82433   0.76213   0.00000  Uiso   1.00
C897   C     0.09147   0.86966   0.92034   0.00000  Uiso   1.00
C898   C     0.18093   0.98897   0.73923   0.00000  Uiso   1.00
C899   C     0.15066   0.67949   0.76222   0.00000  Uiso   1.00
C900   C     0.15609   0.72301   0.75867   0.00000  Uiso   1.00
C901   C     0.17672   0.94436   0.74151   0.00000  Uiso   1.00
C902   C     0.18820   0.81198   0.64407   0.00000  Uiso   1.00
C903   C     0.14561   0.85456   0.85611   0.00000  Uiso   1.00
C904   C     0.13298   0.85945   0.89942   0.00000  Uiso   1.00
C905   C     0.19707   0.80351   0.60158   0.00000  Uiso   1.00
C906   C     0.07726   0.86938   0.96102   0.00000  Uiso   1.00
C907   C     0.16069   0.84987   0.91980   0.00000  Uiso   1.00
C908   C     0.14388   0.84253   0.95992   0.00000  Uiso   1.00
C909   C     0.10293   0.85558   0.98094   0.00000  Uiso   1.00
C910   C     0.16625   0.82299   0.97994   0.00000  Uiso   1.00
C911   C     0.15270   0.82536   0.52171   0.00000  Uiso   1.00
C912   C     0.11298   0.84116   0.54191   0.00000  Uiso   1.00
C913   C     0.08797   0.85469   0.52162   0.00000  Uiso   1.00
Cl914  Cl    0.10129   0.99510   0.79562   0.00000  Uiso   1.00
Cl915  Cl    0.26456   0.75162   0.94911   0.00000  Uiso   1.00
Cl916  Cl    0.21736   0.85789   0.89734   0.00000  Uiso   1.00
H917   H     0.05689   0.86500   0.53799   0.00000  Uiso   1.00
H918   H     0.20520   0.78928   0.92791   0.00000  Uiso   1.00
H919   H     0.26816   0.75829   0.52324   0.00000  Uiso   1.00
H920   H     0.01686   0.86013   0.71499   0.00000  Uiso   1.00
H921   H     0.31797   0.80711   0.78504   0.00000  Uiso   1.00
H922   H     0.14520   0.83512   0.60129   0.00000  Uiso   1.00
H923   H     0.25272   0.77163   0.59445   0.00000  Uiso   1.00
H924   H     0.04549   0.87850   0.97676   0.00000  Uiso   1.00
H925   H     0.06987   0.87764   0.90519   0.00000  Uiso   1.00
H926   H     0.09907   0.84130   0.57327   0.00000  Uiso   1.00
I927   I     0.23750   0.68170   0.69803   0.00000  Uiso   1.00
O928   O     0.16667   0.83333   0.75000   0.00000  Uiso   1.00
O929   O     0.15693   0.79060   0.66625   0.00000  Uiso   1.00
O930   O     0.12687   0.87313   0.83749   0.00000  Uiso   1.00
O931   O     0.21088   0.84159   0.65877   0.00000  Uiso   1.00
O932   O     0.17198   0.82802   0.83749   0.00000  Uiso   1.00
O933   O     0.17849   0.74768   0.77821   0.00000  Uiso   1.00
O934   O     0.14581   0.92803   0.76767   0.00000  Uiso   1.00
O935   O     0.07452   0.79917   0.73607   0.00000  Uiso   1.00
O936   O     0.26785   0.85845   0.71806   0.00000  Uiso   1.00
O937   O     0.06990   0.85627   0.77820   0.00000  Uiso   1.00
O938   O     0.25440   0.81944   0.76768   0.00000  Uiso   1.00
O939   O     0.13800   0.73570   0.73607   0.00000  Uiso   1.00
O940   O     0.20437   0.92193   0.71805   0.00000  Uiso   1.00
Zn941  Zn    0.19244   0.80756   0.78278   0.00000  Uiso   1.00
Zn942  Zn    0.13459   0.79044   0.72258   0.00000  Uiso   1.00
Zn943  Zn    0.21166   0.86331   0.71188   0.00000  Uiso   1.00
Zn944  Zn    0.12798   0.87202   0.78277   0.00000  Uiso   1.00
C945   C     0.38584   0.82664   0.75871   0.00000  Uiso   1.00
C946   C     0.53243   0.79794   0.95924   0.00000  Uiso   1.00
C947   C     0.55662   0.78141   0.97838   0.00000  Uiso   1.00
C948   C     0.61438   0.84026   0.74120   0.00000  Uiso   1.00
C949   C     0.54786   0.78884   0.51952   0.00000  Uiso   1.00
C950   C     0.51195   0.81048   0.54163   0.00000  Uiso   1.00
C951   C     0.57401   0.77480   0.53912   0.00000  Uiso   1.00
C952   C     0.56542   0.78234   0.57985   0.00000  Uiso   1.00
C953   C     0.50396   0.81745   0.58290   0.00000  Uiso   1.00
C954   C     0.66041   0.84297   0.73763   0.00000  Uiso   1.00
C955   C     0.34042   0.82433   0.76213   0.00000  Uiso   1.00
C956   C     0.42480   0.86966   0.92034   0.00000  Uiso   1.00
C957   C     0.51426   0.98897   0.73923   0.00000  Uiso   1.00
C958   C     0.48399   0.67949   0.76222   0.00000  Uiso   1.00
C959   C     0.48942   0.72301   0.75867   0.00000  Uiso   1.00
C960   C     0.51006   0.94436   0.74151   0.00000  Uiso   1.00
C961   C     0.52153   0.81198   0.64407   0.00000  Uiso   1.00
C962   C     0.47895   0.85456   0.85611   0.00000  Uiso   1.00
C963   C     0.46631   0.85945   0.89942   0.00000  Uiso   1.00
C964   C     0.53041   0.80351   0.60158   0.00000  Uiso   1.00
C965   C     0.41059   0.86938   0.96102   0.00000  Uiso   1.00
C966   C     0.49403   0.84987   0.91980   0.00000  Uiso   1.00
C967   C     0.47721   0.84253   0.95992   0.00000  Uiso   1.00
C968   C     0.43626   0.85558   0.98094   0.00000  Uiso   1.00
C969   C     0.49958   0.82299   0.97994   0.00000  Uiso   1.00
C970   C     0.48603   0.82536   0.52171   0.00000  Uiso   1.00
C971   C     0.44632   0.84116   0.54191   0.00000  Uiso   1.00
C972   C     0.42131   0.85469   0.52162   0.00000  Uiso   1.00
Cl973  Cl    0.43462   0.99510   0.79562   0.00000  Uiso   1.00
Cl974  Cl    0.59789   0.75162   0.94911   0.00000  Uiso   1.00
Cl975  Cl    0.55070   0.85789   0.89734   0.00000  Uiso   1.00
H976   H     0.39022   0.86500   0.53799   0.00000  Uiso   1.00
H977   H     0.53853   0.78928   0.92791   0.00000  Uiso   1.00
H978   H     0.60150   0.75829   0.52324   0.00000  Uiso   1.00
H979   H     0.35019   0.86013   0.71499   0.00000  Uiso   1.00
H980   H     0.65130   0.80711   0.78504   0.00000  Uiso   1.00
H981   H     0.47853   0.83512   0.60129   0.00000  Uiso   1.00
H982   H     0.58605   0.77163   0.59445   0.00000  Uiso   1.00
H983   H     0.37882   0.87850   0.97676   0.00000  Uiso   1.00
H984   H     0.40320   0.87764   0.90519   0.00000  Uiso   1.00
H985   H     0.43240   0.84130   0.57327   0.00000  Uiso   1.00
I986   I     0.57083   0.68170   0.69803   0.00000  Uiso   1.00
O987   O     0.50000   0.83333   0.75000   0.00000  Uiso   1.00
O988   O     0.49027   0.79060   0.66625   0.00000  Uiso   1.00
O989   O     0.46020   0.87313   0.83749   0.00000  Uiso   1.00
O990   O     0.54421   0.84159   0.65877   0.00000  Uiso   1.00
O991   O     0.50532   0.82802   0.83749   0.00000  Uiso   1.00
O992   O     0.51182   0.74768   0.77821   0.00000  Uiso   1.00
O993   O     0.47914   0.92803   0.76767   0.00000  Uiso   1.00
O994   O     0.40785   0.79917   0.73607   0.00000  Uiso   1.00
O995   O     0.60119   0.85845   0.71806   0.00000  Uiso   1.00
O996   O     0.40323   0.85627   0.77820   0.00000  Uiso   1.00
O997   O     0.58773   0.81944   0.76768   0.00000  Uiso   1.00
O998   O     0.47133   0.73570   0.73607   0.00000  Uiso   1.00
O999   O     0.53771   0.92193   0.71805   0.00000  Uiso   1.00
Zn1000 Zn    0.52577   0.80756   0.78278   0.00000  Uiso   1.00
Zn1001 Zn    0.46792   0.79044   0.72258   0.00000  Uiso   1.00
Zn1002 Zn    0.54500   0.86331   0.71188   0.00000  Uiso   1.00
Zn1003 Zn    0.46131   0.87202   0.78277   0.00000  Uiso   1.00
C1004  C     0.71917   0.82664   0.75871   0.00000  Uiso   1.00
C1005  C     0.86577   0.79794   0.95924   0.00000  Uiso   1.00
C1006  C     0.88995   0.78141   0.97838   0.00000  Uiso   1.00
C1007  C     0.94771   0.84026   0.74120   0.00000  Uiso   1.00
C1008  C     0.88120   0.78884   0.51952   0.00000  Uiso   1.00
C1009  C     0.84528   0.81048   0.54163   0.00000  Uiso   1.00
C1010  C     0.90734   0.77480   0.53912   0.00000  Uiso   1.00
C1011  C     0.89875   0.78234   0.57985   0.00000  Uiso   1.00
C1012  C     0.83729   0.81745   0.58290   0.00000  Uiso   1.00
C1013  C     0.99374   0.84297   0.73763   0.00000  Uiso   1.00
C1014  C     0.67376   0.82433   0.76213   0.00000  Uiso   1.00
C1015  C     0.75813   0.86966   0.92034   0.00000  Uiso   1.00
C1016  C     0.84760   0.98897   0.73923   0.00000  Uiso   1.00
C1017  C     0.81733   0.67949   0.76222   0.00000  Uiso   1.00
C1018  C     0.82275   0.72301   0.75867   0.00000  Uiso   1.00
C1019  C     0.84339   0.94436   0.74151   0.00000  Uiso   1.00
C1020  C     0.85487   0.81198   0.64407   0.00000  Uiso   1.00
C1021  C     0.81228   0.85456   0.85611   0.00000  Uiso   1.00
C1022  C     0.79965   0.85945   0.89942   0.00000  Uiso   1.00
C1023  C     0.86374   0.80351   0.60158   0.00000  Uiso   1.00
C1024  C     0.74392   0.86938   0.96102   0.00000  Uiso   1.00
C1025  C     0.82736   0.84987   0.91980   0.00000  Uiso   1.00
C1026  C     0.81054   0.84253   0.95992   0.00000  Uiso   1.00
C1027  C     0.76959   0.85558   0.98094   0.00000  Uiso   1.00
C1028  C     0.83291   0.82299   0.97994   0.00000  Uiso   1.00
C1029  C     0.81937   0.82536   0.52171   0.00000  Uiso   1.00
C1030  C     0.77965   0.84116   0.54191   0.00000  Uiso   1.00
C1031  C     0.75464   0.85469   0.52162   0.00000  Uiso   1.00
Cl1032 Cl    0.76796   0.99510   0.79562   0.00000  Uiso   1.00
Cl1033 Cl    0.93122   0.75162   0.94911   0.00000  Uiso   1.00
Cl1034 Cl    0.88403   0.85789   0.89734   0.00000  Uiso   1.00
H1035  H     0.72355   0.86500   0.53799   0.00000  Uiso   1.00
H1036  H     0.87186   0.78928   0.92791   0.00000  Uiso   1.00
H1037  H     0.93483   0.75829   0.52324   0.00000  Uiso   1.00
H1038  H     0.68352   0.86013   0.71499   0.00000  Uiso   1.00
H1039  H     0.98463   0.80711   0.78504   0.00000  Uiso   1.00
H1040  H     0.81187   0.83512   0.60129   0.00000  Uiso   1.00
H1041  H     0.91939   0.77163   0.59445   0.00000  Uiso   1.00
H1042  H     0.71216   0.87850   0.97676   0.00000  Uiso   1.00
H1043  H     0.73654   0.87764   0.90519   0.00000  Uiso   1.00
H1044  H     0.76573   0.84130   0.57327   0.00000  Uiso   1.00
I1045  I     0.90417   0.68170   0.69803   0.00000  Uiso   1.00
O1046  O     0.83333   0.83333   0.75000   0.00000  Uiso   1.00
O1047  O     0.82360   0.79060   0.66625   0.00000  Uiso   1.00
O1048  O     0.79354   0.87313   0.83749   0.00000  Uiso   1.00
O1049  O     0.87755   0.84159   0.65877   0.00000  Uiso   1.00
O1050  O     0.83865   0.82802   0.83749   0.00000  Uiso   1.00
O1051  O     0.84515   0.74768   0.77821   0.00000  Uiso   1.00
O1052  O     0.81247   0.92803   0.76767   0.00000  Uiso   1.00
O1053  O     0.74119   0.79917   0.73607   0.00000  Uiso   1.00
O1054  O     0.93452   0.85845   0.71806   0.00000  Uiso   1.00
O1055  O     0.73656   0.85627   0.77820   0.00000  Uiso   1.00
O1056  O     0.92106   0.81944   0.76768   0.00000  Uiso   1.00
O1057  O     0.80467   0.73570   0.73607   0.00000  Uiso   1.00
O1058  O     0.87104   0.92193   0.71805   0.00000  Uiso   1.00
Zn1059 Zn    0.85910   0.80756   0.78278   0.00000  Uiso   1.00
Zn1060 Zn    0.80125   0.79044   0.72258   0.00000  Uiso   1.00
Zn1061 Zn    0.87833   0.86331   0.71188   0.00000  Uiso   1.00
Zn1062 Zn    0.79465   0.87202   0.78277   0.00000  Uiso   1.00
loop_
_geom_bond_atom_site_label_1
_geom_bond_atom_site_label_2
_geom_bond_distance
_geom_bond_site_symmetry_2
_ccdc_geom_bond_type
C1     O50     1.271   .     A
C1     O52     1.271   .     A
C1     C11     1.437   .     S
C2     C3      1.389   .     A
C2     C25     1.408   .     A
C2     H33     1.080   .     S
C3     Cl30    1.765   .     S
C3     C536    1.404   .     S
C4     O53     1.280   .     A
C4     O51     1.284   .     A
C4     C10     1.455   .     S
C5     C6      1.426   .     A
C5     C7      1.409   .     A
C5     C534    1.404   1_554 S
C6     C9      1.410   .     A
C6     C26     1.424   .     A
C7     C8      1.390   .     A
C7     H34     1.082   .     S
C8     C20     1.393   .     A
C8     H38     1.084   .     S
C9     C20     1.391   .     A
C9     H37     1.078   .     S
C10    C70     1.335   .     S
C10    H94     1.088   .     S
C11    C128    1.335   1_455 S
C11    H154    1.086   1_455 S
C12    H40     1.083   .     S
C12    C19     1.401   .     A
C12    C21     1.391   .     A
C13    C16     1.456   .     S
C13    C191    1.349   .     S
C13    I219    2.141   .     S
C14    C15     1.427   .     S
C14    C367    1.349   1_545 S
C14    Cl383   1.771   1_545 S
C15    O54     1.272   .     A
C15    O48     1.276   .     A
C16    O55     1.275   .     A
C16    O49     1.266   .     A
C17    O44     1.275   .     A
C17    O46     1.274   .     A
C17    C20     1.452   .     S
C18    O47     1.285   .     A
C18    O45     1.284   .     A
C18    C19     1.470   .     S
C19    C22     1.406   .     A
C21    C24     1.400   .     A
C21    H39     1.084   .     S
C22    Cl31    1.777   .     S
C22    C23     1.418   .     A
C23    C24     1.418   .     A
C23    C25     1.423   .     A
C24    C559    1.394   .     S
C25    C557    1.420   .     S
C26    C27     1.414   .     A
C26    C556    1.420   1_554 S
C27    H41     1.077   .     S
C27    C28     1.389   .     A
C28    H32     1.084   .     S
C28    C555    1.394   1_554 S
Cl29   C191    1.771   .     S
H35    C128    1.088   1_455 S
H36    C70     1.086   .     S
I42    C367    2.141   1_545 S
O43    Zn59    1.933   .     S
O43    Zn56    1.964   .     S
O43    Zn57    1.944   .     S
O43    Zn58    1.935   .     S
O44    Zn57    1.928   .     S
O45    Zn59    1.939   .     S
O46    Zn58    1.933   .     S
O47    Zn56    1.923   .     S
O48    Zn56    1.937   .     S
O49    Zn59    1.941   .     S
O50    Zn57    1.925   .     S
O51    Zn58    1.936   .     S
O52    Zn59    1.931   .     S
O53    Zn56    1.922   .     S
O54    Zn57    1.947   .     S
O55    Zn58    1.939   .     S
C60    O109    1.271   .     A
C60    O111    1.271   .     A
C60    C70     1.437   .     S
C61    C62     1.389   .     A
C61    C84     1.408   .     A
C61    H92     1.080   .     S
C62    Cl89    1.765   .     S
C62    C595    1.404   .     S
C63    O112    1.280   .     A
C63    O110    1.284   .     A
C63    C69     1.455   .     S
C64    C65     1.426   .     A
C64    C66     1.409   .     A
C64    C593    1.404   1_554 S
C65    C68     1.410   .     A
C65    C85     1.424   .     A
C66    C67     1.390   .     A
C66    H93     1.082   .     S
C67    C79     1.393   .     A
C67    H97     1.084   .     S
C68    C79     1.391   .     A
C68    H96     1.078   .     S
C69    C129    1.335   .     S
C69    H153    1.088   .     S
C71    H99     1.083   .     S
C71    C78     1.401   .     A
C71    C80     1.391   .     A
C72    C75     1.456   .     S
C72    C250    1.349   .     S
C72    I278    2.141   .     S
C73    C74     1.427   .     S
C73    C426    1.349   1_545 S
C73    Cl442   1.771   1_545 S
C74    O113    1.272   .     A
C74    O107    1.276   .     A
C75    O114    1.275   .     A
C75    O108    1.266   .     A
C76    O103    1.275   .     A
C76    O105    1.274   .     A
C76    C79     1.452   .     S
C77    O106    1.285   .     A
C77    O104    1.284   .     A
C77    C78     1.470   .     S
C78    C81     1.406   .     A
C80    C83     1.400   .     A
C80    H98     1.084   .     S
C81    Cl90    1.777   .     S
C81    C82     1.418   .     A
C82    C83     1.418   .     A
C82    C84     1.423   .     A
C83    C618    1.394   .     S
C84    C616    1.420   .     S
C85    C86     1.414   .     A
C85    C615    1.420   1_554 S
C86    H100    1.077   .     S
C86    C87     1.389   .     A
C87    H91     1.084   .     S
C87    C614    1.394   1_554 S
Cl88   C250    1.771   .     S
H95    C129    1.086   .     S
I101   C426    2.141   1_545 S
O102   Zn118   1.933   .     S
O102   Zn115   1.964   .     S
O102   Zn116   1.944   .     S
O102   Zn117   1.935   .     S
O103   Zn116   1.928   .     S
O104   Zn118   1.939   .     S
O105   Zn117   1.933   .     S
O106   Zn115   1.923   .     S
O107   Zn115   1.937   .     S
O108   Zn118   1.941   .     S
O109   Zn116   1.925   .     S
O110   Zn117   1.936   .     S
O111   Zn118   1.931   .     S
O112   Zn115   1.922   .     S
O113   Zn116   1.947   .     S
O114   Zn117   1.939   .     S
C119   O168    1.271   .     A
C119   O170    1.271   .     A
C119   C129    1.437   .     S
C120   C121    1.389   .     A
C120   C143    1.408   .     A
C120   H151    1.080   .     S
C121   Cl148   1.765   .     S
C121   C654    1.404   .     S
C122   O171    1.280   .     A
C122   O169    1.284   .     A
C122   C128    1.455   .     S
C123   C124    1.426   .     A
C123   C125    1.409   .     A
C123   C652    1.404   1_554 S
C124   C127    1.410   .     A
C124   C144    1.424   .     A
C125   C126    1.390   .     A
C125   H152    1.082   .     S
C126   C138    1.393   .     A
C126   H156    1.084   .     S
C127   C138    1.391   .     A
C127   H155    1.078   .     S
C128   C11     1.335   1_655 S
C128   H35     1.088   1_655 S
C130   H158    1.083   .     S
C130   C137    1.401   .     A
C130   C139    1.391   .     A
C131   C134    1.456   .     S
C131   C309    1.349   .     S
C131   I337    2.141   .     S
C132   C133    1.427   .     S
C132   C485    1.349   1_545 S
C132   Cl501   1.771   1_545 S
C133   O172    1.272   .     A
C133   O166    1.276   .     A
C134   O173    1.275   .     A
C134   O167    1.266   .     A
C135   O162    1.275   .     A
C135   O164    1.274   .     A
C135   C138    1.452   .     S
C136   O165    1.285   .     A
C136   O163    1.284   .     A
C136   C137    1.470   .     S
C137   C140    1.406   .     A
C139   C142    1.400   .     A
C139   H157    1.084   .     S
C140   Cl149   1.777   .     S
C140   C141    1.418   .     A
C141   C142    1.418   .     A
C141   C143    1.423   .     A
C142   C677    1.394   .     S
C143   C675    1.420   .     S
C144   C145    1.414   .     A
C144   C674    1.420   1_554 S
C145   H159    1.077   .     S
C145   C146    1.389   .     A
C146   H150    1.084   .     S
C146   C673    1.394   1_554 S
Cl147  C309    1.771   .     S
H154   C11     1.086   1_655 S
I160   C485    2.141   1_545 S
O161   Zn177   1.933   .     S
O161   Zn174   1.964   .     S
O161   Zn175   1.944   .     S
O161   Zn176   1.935   .     S
O162   Zn175   1.928   .     S
O163   Zn177   1.939   .     S
O164   Zn176   1.933   .     S
O165   Zn174   1.923   .     S
O166   Zn174   1.937   .     S
O167   Zn177   1.941   .     S
O168   Zn175   1.925   .     S
O169   Zn176   1.936   .     S
O170   Zn177   1.931   .     S
O171   Zn174   1.922   .     S
O172   Zn175   1.947   .     S
O173   Zn176   1.939   .     S
C178   O227    1.271   .     A
C178   O229    1.271   .     A
C178   C188    1.437   .     S
C179   C180    1.389   .     A
C179   C202    1.408   .     A
C179   H210    1.080   .     S
C180   Cl207   1.765   .     S
C180   C713    1.404   .     S
C181   O230    1.280   .     A
C181   O228    1.284   .     A
C181   C187    1.455   .     S
C182   C183    1.426   .     A
C182   C184    1.409   .     A
C182   C711    1.404   1_554 S
C183   C186    1.410   .     A
C183   C203    1.424   .     A
C184   C185    1.390   .     A
C184   H211    1.082   .     S
C185   C197    1.393   .     A
C185   H215    1.084   .     S
C186   C197    1.391   .     A
C186   H214    1.078   .     S
C187   C247    1.335   .     S
C187   H271    1.088   .     S
C188   C305    1.335   1_455 S
C188   H331    1.086   1_455 S
C189   H217    1.083   .     S
C189   C196    1.401   .     A
C189   C198    1.391   .     A
C190   C193    1.456   .     S
C190   C368    1.349   .     S
C190   I396    2.141   .     S
C191   C192    1.427   .     S
C192   O231    1.272   .     A
C192   O225    1.276   .     A
C193   O232    1.275   .     A
C193   O226    1.266   .     A
C194   O221    1.275   .     A
C194   O223    1.274   .     A
C194   C197    1.452   .     S
C195   O224    1.285   .     A
C195   O222    1.284   .     A
C195   C196    1.470   .     S
C196   C199    1.406   .     A
C198   C201    1.400   .     A
C198   H216    1.084   .     S
C199   Cl208   1.777   .     S
C199   C200    1.418   .     A
C200   C201    1.418   .     A
C200   C202    1.423   .     A
C201   C736    1.394   .     S
C202   C734    1.420   .     S
C203   C204    1.414   .     A
C203   C733    1.420   1_554 S
C204   H218    1.077   .     S
C204   C205    1.389   .     A
C205   H209    1.084   .     S
C205   C732    1.394   1_554 S
Cl206  C368    1.771   .     S
H212   C305    1.088   1_455 S
H213   C247    1.086   .     S
O220   Zn236   1.933   .     S
O220   Zn233   1.964   .     S
O220   Zn234   1.944   .     S
O220   Zn235   1.935   .     S
O221   Zn234   1.928   .     S
O222   Zn236   1.939   .     S
O223   Zn235   1.933   .     S
O224   Zn233   1.923   .     S
O225   Zn233   1.937   .     S
O226   Zn236   1.941   .     S
O227   Zn234   1.925   .     S
O228   Zn235   1.936   .     S
O229   Zn236   1.931   .     S
O230   Zn233   1.922   .     S
O231   Zn234   1.947   .     S
O232   Zn235   1.939   .     S
C237   O286    1.271   .     A
C237   O288    1.271   .     A
C237   C247    1.437   .     S
C238   C239    1.389   .     A
C238   C261    1.408   .     A
C238   H269    1.080   .     S
C239   Cl266   1.765   .     S
C239   C772    1.404   .     S
C240   O289    1.280   .     A
C240   O287    1.284   .     A
C240   C246    1.455   .     S
C241   C242    1.426   .     A
C241   C243    1.409   .     A
C241   C770    1.404   1_554 S
C242   C245    1.410   .     A
C242   C262    1.424   .     A
C243   C244    1.390   .     A
C243   H270    1.082   .     S
C244   C256    1.393   .     A
C244   H274    1.084   .     S
C245   C256    1.391   .     A
C245   H273    1.078   .     S
C246   C306    1.335   .     S
C246   H330    1.088   .     S
C248   H276    1.083   .     S
C248   C255    1.401   .     A
C248   C257    1.391   .     A
C249   C252    1.456   .     S
C249   C427    1.349   .     S
C249   I455    2.141   .     S
C250   C251    1.427   .     S
C251   O290    1.272   .     A
C251   O284    1.276   .     A
C252   O291    1.275   .     A
C252   O285    1.266   .     A
C253   O280    1.275   .     A
C253   O282    1.274   .     A
C253   C256    1.452   .     S
C254   O283    1.285   .     A
C254   O281    1.284   .     A
C254   C255    1.470   .     S
C255   C258    1.406   .     A
C257   C260    1.400   .     A
C257   H275    1.084   .     S
C258   Cl267   1.777   .     S
C258   C259    1.418   .     A
C259   C260    1.418   .     A
C259   C261    1.423   .     A
C260   C795    1.394   .     S
C261   C793    1.420   .     S
C262   C263    1.414   .     A
C262   C792    1.420   1_554 S
C263   H277    1.077   .     S
C263   C264    1.389   .     A
C264   H268    1.084   .     S
C264   C791    1.394   1_554 S
Cl265  C427    1.771   .     S
H272   C306    1.086   .     S
O279   Zn295   1.933   .     S
O279   Zn292   1.964   .     S
O279   Zn293   1.944   .     S
O279   Zn294   1.935   .     S
O280   Zn293   1.928   .     S
O281   Zn295   1.939   .     S
O282   Zn294   1.933   .     S
O283   Zn292   1.923   .     S
O284   Zn292   1.937   .     S
O285   Zn295   1.941   .     S
O286   Zn293   1.925   .     S
O287   Zn294   1.936   .     S
O288   Zn295   1.931   .     S
O289   Zn292   1.922   .     S
O290   Zn293   1.947   .     S
O291   Zn294   1.939   .     S
C296   O345    1.271   .     A
C296   O347    1.271   .     A
C296   C306    1.437   .     S
C297   C298    1.389   .     A
C297   C320    1.408   .     A
C297   H328    1.080   .     S
C298   Cl325   1.765   .     S
C298   C831    1.404   .     S
C299   O348    1.280   .     A
C299   O346    1.284   .     A
C299   C305    1.455   .     S
C300   C301    1.426   .     A
C300   C302    1.409   .     A
C300   C829    1.404   1_554 S
C301   C304    1.410   .     A
C301   C321    1.424   .     A
C302   C303    1.390   .     A
C302   H329    1.082   .     S
C303   C315    1.393   .     A
C303   H333    1.084   .     S
C304   C315    1.391   .     A
C304   H332    1.078   .     S
C305   C188    1.335   1_655 S
C305   H212    1.088   1_655 S
C307   H335    1.083   .     S
C307   C314    1.401   .     A
C307   C316    1.391   .     A
C308   C311    1.456   .     S
C308   C486    1.349   .     S
C308   I514    2.141   .     S
C309   C310    1.427   .     S
C310   O349    1.272   .     A
C310   O343    1.276   .     A
C311   O350    1.275   .     A
C311   O344    1.266   .     A
C312   O339    1.275   .     A
C312   O341    1.274   .     A
C312   C315    1.452   .     S
C313   O342    1.285   .     A
C313   O340    1.284   .     A
C313   C314    1.470   .     S
C314   C317    1.406   .     A
C316   C319    1.400   .     A
C316   H334    1.084   .     S
C317   Cl326   1.777   .     S
C317   C318    1.418   .     A
C318   C319    1.418   .     A
C318   C320    1.423   .     A
C319   C854    1.394   .     S
C320   C852    1.420   .     S
C321   C322    1.414   .     A
C321   C851    1.420   1_554 S
C322   H336    1.077   .     S
C322   C323    1.389   .     A
C323   H327    1.084   .     S
C323   C850    1.394   1_554 S
Cl324  C486    1.771   .     S
H331   C188    1.086   1_655 S
O338   Zn354   1.933   .     S
O338   Zn351   1.964   .     S
O338   Zn352   1.944   .     S
O338   Zn353   1.935   .     S
O339   Zn352   1.928   .     S
O340   Zn354   1.939   .     S
O341   Zn353   1.933   .     S
O342   Zn351   1.923   .     S
O343   Zn351   1.937   .     S
O344   Zn354   1.941   .     S
O345   Zn352   1.925   .     S
O346   Zn353   1.936   .     S
O347   Zn354   1.931   .     S
O348   Zn351   1.922   .     S
O349   Zn352   1.947   .     S
O350   Zn353   1.939   .     S
C355   O404    1.271   .     A
C355   O406    1.271   .     A
C355   C365    1.437   .     S
C356   C357    1.389   .     A
C356   C379    1.408   .     A
C356   H387    1.080   .     S
C357   Cl384   1.765   .     S
C357   C890    1.404   .     S
C358   O407    1.280   .     A
C358   O405    1.284   .     A
C358   C364    1.455   .     S
C359   C360    1.426   .     A
C359   C361    1.409   .     A
C359   C888    1.404   1_554 S
C360   C363    1.410   .     A
C360   C380    1.424   .     A
C361   C362    1.390   .     A
C361   H388    1.082   .     S
C362   C374    1.393   .     A
C362   H392    1.084   .     S
C363   C374    1.391   .     A
C363   H391    1.078   .     S
C364   C424    1.335   .     S
C364   H448    1.088   .     S
C365   C482    1.335   1_455 S
C365   H508    1.086   1_455 S
C366   H394    1.083   .     S
C366   C373    1.401   .     A
C366   C375    1.391   .     A
C367   C370    1.456   .     S
C367   C14     1.349   1_565 S
C367   I42     2.141   1_565 S
C368   C369    1.427   .     S
C369   O408    1.272   .     A
C369   O402    1.276   .     A
C370   O409    1.275   .     A
C370   O403    1.266   .     A
C371   O398    1.275   .     A
C371   O400    1.274   .     A
C371   C374    1.452   .     S
C372   O401    1.285   .     A
C372   O399    1.284   .     A
C372   C373    1.470   .     S
C373   C376    1.406   .     A
C375   C378    1.400   .     A
C375   H393    1.084   .     S
C376   Cl385   1.777   .     S
C376   C377    1.418   .     A
C377   C378    1.418   .     A
C377   C379    1.423   .     A
C378   C913    1.394   .     S
C379   C911    1.420   .     S
C380   C381    1.414   .     A
C380   C910    1.420   1_554 S
C381   H395    1.077   .     S
C381   C382    1.389   .     A
C382   H386    1.084   .     S
C382   C909    1.394   1_554 S
Cl383  C14     1.771   1_565 S
H389   C482    1.088   1_455 S
H390   C424    1.086   .     S
O397   Zn413   1.933   .     S
O397   Zn410   1.964   .     S
O397   Zn411   1.944   .     S
O397   Zn412   1.935   .     S
O398   Zn411   1.928   .     S
O399   Zn413   1.939   .     S
O400   Zn412   1.933   .     S
O401   Zn410   1.923   .     S
O402   Zn410   1.937   .     S
O403   Zn413   1.941   .     S
O404   Zn411   1.925   .     S
O405   Zn412   1.936   .     S
O406   Zn413   1.931   .     S
O407   Zn410   1.922   .     S
O408   Zn411   1.947   .     S
O409   Zn412   1.939   .     S
C414   O463    1.271   .     A
C414   O465    1.271   .     A
C414   C424    1.437   .     S
C415   C416    1.389   .     A
C415   C438    1.408   .     A
C415   H446    1.080   .     S
C416   Cl443   1.765   .     S
C416   C949    1.404   .     S
C417   O466    1.280   .     A
C417   O464    1.284   .     A
C417   C423    1.455   .     S
C418   C419    1.426   .     A
C418   C420    1.409   .     A
C418   C947    1.404   1_554 S
C419   C422    1.410   .     A
C419   C439    1.424   .     A
C420   C421    1.390   .     A
C420   H447    1.082   .     S
C421   C433    1.393   .     A
C421   H451    1.084   .     S
C422   C433    1.391   .     A
C422   H450    1.078   .     S
C423   C483    1.335   .     S
C423   H507    1.088   .     S
C425   H453    1.083   .     S
C425   C432    1.401   .     A
C425   C434    1.391   .     A
C426   C429    1.456   .     S
C426   C73     1.349   1_565 S
C426   I101    2.141   1_565 S
C427   C428    1.427   .     S
C428   O467    1.272   .     A
C428   O461    1.276   .     A
C429   O468    1.275   .     A
C429   O462    1.266   .     A
C430   O457    1.275   .     A
C430   O459    1.274   .     A
C430   C433    1.452   .     S
C431   O460    1.285   .     A
C431   O458    1.284   .     A
C431   C432    1.470   .     S
C432   C435    1.406   .     A
C434   C437    1.400   .     A
C434   H452    1.084   .     S
C435   Cl444   1.777   .     S
C435   C436    1.418   .     A
C436   C437    1.418   .     A
C436   C438    1.423   .     A
C437   C972    1.394   .     S
C438   C970    1.420   .     S
C439   C440    1.414   .     A
C439   C969    1.420   1_554 S
C440   H454    1.077   .     S
C440   C441    1.389   .     A
C441   H445    1.084   .     S
C441   C968    1.394   1_554 S
Cl442  C73     1.771   1_565 S
H449   C483    1.086   .     S
O456   Zn472   1.933   .     S
O456   Zn469   1.964   .     S
O456   Zn470   1.944   .     S
O456   Zn471   1.935   .     S
O457   Zn470   1.928   .     S
O458   Zn472   1.939   .     S
O459   Zn471   1.933   .     S
O460   Zn469   1.923   .     S
O461   Zn469   1.937   .     S
O462   Zn472   1.941   .     S
O463   Zn470   1.925   .     S
O464   Zn471   1.936   .     S
O465   Zn472   1.931   .     S
O466   Zn469   1.922   .     S
O467   Zn470   1.947   .     S
O468   Zn471   1.939   .     S
C473   O522    1.271   .     A
C473   O524    1.271   .     A
C473   C483    1.437   .     S
C474   C475    1.389   .     A
C474   C497    1.408   .     A
C474   H505    1.080   .     S
C475   Cl502   1.765   .     S
C475   C1008   1.404   .     S
C476   O525    1.280   .     A
C476   O523    1.284   .     A
C476   C482    1.455   .     S
C477   C478    1.426   .     A
C477   C479    1.409   .     A
C477   C1006   1.404   1_554 S
C478   C481    1.410   .     A
C478   C498    1.424   .     A
C479   C480    1.390   .     A
C479   H506    1.082   .     S
C480   C492    1.393   .     A
C480   H510    1.084   .     S
C481   C492    1.391   .     A
C481   H509    1.078   .     S
C482   C365    1.335   1_655 S
C482   H389    1.088   1_655 S
C484   H512    1.083   .     S
C484   C491    1.401   .     A
C484   C493    1.391   .     A
C485   C488    1.456   .     S
C485   C132    1.349   1_565 S
C485   I160    2.141   1_565 S
C486   C487    1.427   .     S
C487   O526    1.272   .     A
C487   O520    1.276   .     A
C488   O527    1.275   .     A
C488   O521    1.266   .     A
C489   O516    1.275   .     A
C489   O518    1.274   .     A
C489   C492    1.452   .     S
C490   O519    1.285   .     A
C490   O517    1.284   .     A
C490   C491    1.470   .     S
C491   C494    1.406   .     A
C493   C496    1.400   .     A
C493   H511    1.084   .     S
C494   Cl503   1.777   .     S
C494   C495    1.418   .     A
C495   C496    1.418   .     A
C495   C497    1.423   .     A
C496   C1031   1.394   .     S
C497   C1029   1.420   .     S
C498   C499    1.414   .     A
C498   C1028   1.420   1_554 S
C499   H513    1.077   .     S
C499   C500    1.389   .     A
C500   H504    1.084   .     S
C500   C1027   1.394   1_554 S
Cl501  C132    1.771   1_565 S
H508   C365    1.086   1_655 S
O515   Zn531   1.933   .     S
O515   Zn528   1.964   .     S
O515   Zn529   1.944   .     S
O515   Zn530   1.935   .     S
O516   Zn529   1.928   .     S
O517   Zn531   1.939   .     S
O518   Zn530   1.933   .     S
O519   Zn528   1.923   .     S
O520   Zn528   1.937   .     S
O521   Zn531   1.941   .     S
O522   Zn529   1.925   .     S
O523   Zn530   1.936   .     S
O524   Zn531   1.931   .     S
O525   Zn528   1.922   .     S
O526   Zn529   1.947   .     S
O527   Zn530   1.939   .     S
C532   O581    1.271   .     A
C532   O583    1.271   .     A
C532   C542    1.437   .     S
C533   C534    1.389   .     A
C533   C556    1.408   .     A
C533   H564    1.080   .     S
C534   Cl561   1.765   .     S
C534   C5      1.404   1_556 S
C535   O584    1.280   .     A
C535   O582    1.284   .     A
C535   C541    1.455   .     S
C536   C537    1.426   .     A
C536   C538    1.409   .     A
C537   C540    1.410   .     A
C537   C557    1.424   .     A
C538   C539    1.390   .     A
C538   H565    1.082   .     S
C539   C551    1.393   .     A
C539   H569    1.084   .     S
C540   C551    1.391   .     A
C540   H568    1.078   .     S
C541   C601    1.335   .     S
C541   H625    1.088   .     S
C542   C659    1.335   1_455 S
C542   H685    1.086   1_455 S
C543   H571    1.083   .     S
C543   C550    1.401   .     A
C543   C552    1.391   .     A
C544   C547    1.456   .     S
C544   C722    1.349   .     S
C544   I750    2.141   .     S
C545   C546    1.427   .     S
C545   C898    1.349   1_545 S
C545   Cl914   1.771   1_545 S
C546   O585    1.272   .     A
C546   O579    1.276   .     A
C547   O586    1.275   .     A
C547   O580    1.266   .     A
C548   O575    1.275   .     A
C548   O577    1.274   .     A
C548   C551    1.452   .     S
C549   O578    1.285   .     A
C549   O576    1.284   .     A
C549   C550    1.470   .     S
C550   C553    1.406   .     A
C552   C555    1.400   .     A
C552   H570    1.084   .     S
C553   Cl562   1.777   .     S
C553   C554    1.418   .     A
C554   C555    1.418   .     A
C554   C556    1.423   .     A
C555   C28     1.394   1_556 S
C556   C26     1.420   1_556 S
C557   C558    1.414   .     A
C558   H572    1.077   .     S
C558   C559    1.389   .     A
C559   H563    1.084   .     S
Cl560  C722    1.771   .     S
H566   C659    1.088   1_455 S
H567   C601    1.086   .     S
I573   C898    2.141   1_545 S
O574   Zn590   1.933   .     S
O574   Zn587   1.964   .     S
O574   Zn588   1.944   .     S
O574   Zn589   1.935   .     S
O575   Zn588   1.928   .     S
O576   Zn590   1.939   .     S
O577   Zn589   1.933   .     S
O578   Zn587   1.923   .     S
O579   Zn587   1.937   .     S
O580   Zn590   1.941   .     S
O581   Zn588   1.925   .     S
O582   Zn589   1.936   .     S
O583   Zn590   1.931   .     S
O584   Zn587   1.922   .     S
O585   Zn588   1.947   .     S
O586   Zn589   1.939   .     S
C591   O640    1.271   .     A
C591   O642    1.271   .     A
C591   C601    1.437   .     S
C592   C593    1.389   .     A
C592   C615    1.408   .     A
C592   H623    1.080   .     S
C593   Cl620   1.765   .     S
C593   C64     1.404   1_556 S
C594   O643    1.280   .     A
C594   O641    1.284   .     A
C594   C600    1.455   .     S
C595   C596    1.426   .     A
C595   C597    1.409   .     A
C596   C599    1.410   .     A
C596   C616    1.424   .     A
C597   C598    1.390   .     A
C597   H624    1.082   .     S
C598   C610    1.393   .     A
C598   H628    1.084   .     S
C599   C610    1.391   .     A
C599   H627    1.078   .     S
C600   C660    1.335   .     S
C600   H684    1.088   .     S
C602   H630    1.083   .     S
C602   C609    1.401   .     A
C602   C611    1.391   .     A
C603   C606    1.456   .     S
C603   C781    1.349   .     S
C603   I809    2.141   .     S
C604   C605    1.427   .     S
C604   C957    1.349   1_545 S
C604   Cl973   1.771   1_545 S
C605   O644    1.272   .     A
C605   O638    1.276   .     A
C606   O645    1.275   .     A
C606   O639    1.266   .     A
C607   O634    1.275   .     A
C607   O636    1.274   .     A
C607   C610    1.452   .     S
C608   O637    1.285   .     A
C608   O635    1.284   .     A
C608   C609    1.470   .     S
C609   C612    1.406   .     A
C611   C614    1.400   .     A
C611   H629    1.084   .     S
C612   Cl621   1.777   .     S
C612   C613    1.418   .     A
C613   C614    1.418   .     A
C613   C615    1.423   .     A
C614   C87     1.394   1_556 S
C615   C85     1.420   1_556 S
C616   C617    1.414   .     A
C617   H631    1.077   .     S
C617   C618    1.389   .     A
C618   H622    1.084   .     S
Cl619  C781    1.771   .     S
H626   C660    1.086   .     S
I632   C957    2.141   1_545 S
O633   Zn649   1.933   .     S
O633   Zn646   1.964   .     S
O633   Zn647   1.944   .     S
O633   Zn648   1.935   .     S
O634   Zn647   1.928   .     S
O635   Zn649   1.939   .     S
O636   Zn648   1.933   .     S
O637   Zn646   1.923   .     S
O638   Zn646   1.937   .     S
O639   Zn649   1.941   .     S
O640   Zn647   1.925   .     S
O641   Zn648   1.936   .     S
O642   Zn649   1.931   .     S
O643   Zn646   1.922   .     S
O644   Zn647   1.947   .     S
O645   Zn648   1.939   .     S
C650   O699    1.271   .     A
C650   O701    1.271   .     A
C650   C660    1.437   .     S
C651   C652    1.389   .     A
C651   C674    1.408   .     A
C651   H682    1.080   .     S
C652   Cl679   1.765   .     S
C652   C123    1.404   1_556 S
C653   O702    1.280   .     A
C653   O700    1.284   .     A
C653   C659    1.455   .     S
C654   C655    1.426   .     A
C654   C656    1.409   .     A
C655   C658    1.410   .     A
C655   C675    1.424   .     A
C656   C657    1.390   .     A
C656   H683    1.082   .     S
C657   C669    1.393   .     A
C657   H687    1.084   .     S
C658   C669    1.391   .     A
C658   H686    1.078   .     S
C659   C542    1.335   1_655 S
C659   H566    1.088   1_655 S
C661   H689    1.083   .     S
C661   C668    1.401   .     A
C661   C670    1.391   .     A
C662   C665    1.456   .     S
C662   C840    1.349   .     S
C662   I868    2.141   .     S
C663   C664    1.427   .     S
C663   C1016   1.349   1_545 S
C663   Cl1032  1.771   1_545 S
C664   O703    1.272   .     A
C664   O697    1.276   .     A
C665   O704    1.275   .     A
C665   O698    1.266   .     A
C666   O693    1.275   .     A
C666   O695    1.274   .     A
C666   C669    1.452   .     S
C667   O696    1.285   .     A
C667   O694    1.284   .     A
C667   C668    1.470   .     S
C668   C671    1.406   .     A
C670   C673    1.400   .     A
C670   H688    1.084   .     S
C671   Cl680   1.777   .     S
C671   C672    1.418   .     A
C672   C673    1.418   .     A
C672   C674    1.423   .     A
C673   C146    1.394   1_556 S
C674   C144    1.420   1_556 S
C675   C676    1.414   .     A
C676   H690    1.077   .     S
C676   C677    1.389   .     A
C677   H681    1.084   .     S
Cl678  C840    1.771   .     S
H685   C542    1.086   1_655 S
I691   C1016   2.141   1_545 S
O692   Zn708   1.933   .     S
O692   Zn705   1.964   .     S
O692   Zn706   1.944   .     S
O692   Zn707   1.935   .     S
O693   Zn706   1.928   .     S
O694   Zn708   1.939   .     S
O695   Zn707   1.933   .     S
O696   Zn705   1.923   .     S
O697   Zn705   1.937   .     S
O698   Zn708   1.941   .     S
O699   Zn706   1.925   .     S
O700   Zn707   1.936   .     S
O701   Zn708   1.931   .     S
O702   Zn705   1.922   .     S
O703   Zn706   1.947   .     S
O704   Zn707   1.939   .     S
C709   O758    1.271   .     A
C709   O760    1.271   .     A
C709   C719    1.437   .     S
C710   C711    1.389   .     A
C710   C733    1.408   .     A
C710   H741    1.080   .     S
C711   Cl738   1.765   .     S
C711   C182    1.404   1_556 S
C712   O761    1.280   .     A
C712   O759    1.284   .     A
C712   C718    1.455   .     S
C713   C714    1.426   .     A
C713   C715    1.409   .     A
C714   C717    1.410   .     A
C714   C734    1.424   .     A
C715   C716    1.390   .     A
C715   H742    1.082   .     S
C716   C728    1.393   .     A
C716   H746    1.084   .     S
C717   C728    1.391   .     A
C717   H745    1.078   .     S
C718   C778    1.335   .     S
C718   H802    1.088   .     S
C719   C836    1.335   1_455 S
C719   H862    1.086   1_455 S
C720   H748    1.083   .     S
C720   C727    1.401   .     A
C720   C729    1.391   .     A
C721   C724    1.456   .     S
C721   C899    1.349   .     S
C721   I927    2.141   .     S
C722   C723    1.427   .     S
C723   O762    1.272   .     A
C723   O756    1.276   .     A
C724   O763    1.275   .     A
C724   O757    1.266   .     A
C725   O752    1.275   .     A
C725   O754    1.274   .     A
C725   C728    1.452   .     S
C726   O755    1.285   .     A
C726   O753    1.284   .     A
C726   C727    1.470   .     S
C727   C730    1.406   .     A
C729   C732    1.400   .     A
C729   H747    1.084   .     S
C730   Cl739   1.777   .     S
C730   C731    1.418   .     A
C731   C732    1.418   .     A
C731   C733    1.423   .     A
C732   C205    1.394   1_556 S
C733   C203    1.420   1_556 S
C734   C735    1.414   .     A
C735   H749    1.077   .     S
C735   C736    1.389   .     A
C736   H740    1.084   .     S
Cl737  C899    1.771   .     S
H743   C836    1.088   1_455 S
H744   C778    1.086   .     S
O751   Zn767   1.933   .     S
O751   Zn764   1.964   .     S
O751   Zn765   1.944   .     S
O751   Zn766   1.935   .     S
O752   Zn765   1.928   .     S
O753   Zn767   1.939   .     S
O754   Zn766   1.933   .     S
O755   Zn764   1.923   .     S
O756   Zn764   1.937   .     S
O757   Zn767   1.941   .     S
O758   Zn765   1.925   .     S
O759   Zn766   1.936   .     S
O760   Zn767   1.931   .     S
O761   Zn764   1.922   .     S
O762   Zn765   1.947   .     S
O763   Zn766   1.939   .     S
C768   O817    1.271   .     A
C768   O819    1.271   .     A
C768   C778    1.437   .     S
C769   C770    1.389   .     A
C769   C792    1.408   .     A
C769   H800    1.080   .     S
C770   Cl797   1.765   .     S
C770   C241    1.404   1_556 S
C771   O820    1.280   .     A
C771   O818    1.284   .     A
C771   C777    1.455   .     S
C772   C773    1.426   .     A
C772   C774    1.409   .     A
C773   C776    1.410   .     A
C773   C793    1.424   .     A
C774   C775    1.390   .     A
C774   H801    1.082   .     S
C775   C787    1.393   .     A
C775   H805    1.084   .     S
C776   C787    1.391   .     A
C776   H804    1.078   .     S
C777   C837    1.335   .     S
C777   H861    1.088   .     S
C779   H807    1.083   .     S
C779   C786    1.401   .     A
C779   C788    1.391   .     A
C780   C783    1.456   .     S
C780   C958    1.349   .     S
C780   I986    2.141   .     S
C781   C782    1.427   .     S
C782   O821    1.272   .     A
C782   O815    1.276   .     A
C783   O822    1.275   .     A
C783   O816    1.266   .     A
C784   O811    1.275   .     A
C784   O813    1.274   .     A
C784   C787    1.452   .     S
C785   O814    1.285   .     A
C785   O812    1.284   .     A
C785   C786    1.470   .     S
C786   C789    1.406   .     A
C788   C791    1.400   .     A
C788   H806    1.084   .     S
C789   Cl798   1.777   .     S
C789   C790    1.418   .     A
C790   C791    1.418   .     A
C790   C792    1.423   .     A
C791   C264    1.394   1_556 S
C792   C262    1.420   1_556 S
C793   C794    1.414   .     A
C794   H808    1.077   .     S
C794   C795    1.389   .     A
C795   H799    1.084   .     S
Cl796  C958    1.771   .     S
H803   C837    1.086   .     S
O810   Zn826   1.933   .     S
O810   Zn823   1.964   .     S
O810   Zn824   1.944   .     S
O810   Zn825   1.935   .     S
O811   Zn824   1.928   .     S
O812   Zn826   1.939   .     S
O813   Zn825   1.933   .     S
O814   Zn823   1.923   .     S
O815   Zn823   1.937   .     S
O816   Zn826   1.941   .     S
O817   Zn824   1.925   .     S
O818   Zn825   1.936   .     S
O819   Zn826   1.931   .     S
O820   Zn823   1.922   .     S
O821   Zn824   1.947   .     S
O822   Zn825   1.939   .     S
C827   O876    1.271   .     A
C827   O878    1.271   .     A
C827   C837    1.437   .     S
C828   C829    1.389   .     A
C828   C851    1.408   .     A
C828   H859    1.080   .     S
C829   Cl856   1.765   .     S
C829   C300    1.404   1_556 S
C830   O879    1.280   .     A
C830   O877    1.284   .     A
C830   C836    1.455   .     S
C831   C832    1.426   .     A
C831   C833    1.409   .     A
C832   C835    1.410   .     A
C832   C852    1.424   .     A
C833   C834    1.390   .     A
C833   H860    1.082   .     S
C834   C846    1.393   .     A
C834   H864    1.084   .     S
C835   C846    1.391   .     A
C835   H863    1.078   .     S
C836   C719    1.335   1_655 S
C836   H743    1.088   1_655 S
C838   H866    1.083   .     S
C838   C845    1.401   .     A
C838   C847    1.391   .     A
C839   C842    1.456   .     S
C839   C1017   1.349   .     S
C839   I1045   2.141   .     S
C840   C841    1.427   .     S
C841   O880    1.272   .     A
C841   O874    1.276   .     A
C842   O881    1.275   .     A
C842   O875    1.266   .     A
C843   O870    1.275   .     A
C843   O872    1.274   .     A
C843   C846    1.452   .     S
C844   O873    1.285   .     A
C844   O871    1.284   .     A
C844   C845    1.470   .     S
C845   C848    1.406   .     A
C847   C850    1.400   .     A
C847   H865    1.084   .     S
C848   Cl857   1.777   .     S
C848   C849    1.418   .     A
C849   C850    1.418   .     A
C849   C851    1.423   .     A
C850   C323    1.394   1_556 S
C851   C321    1.420   1_556 S
C852   C853    1.414   .     A
C853   H867    1.077   .     S
C853   C854    1.389   .     A
C854   H858    1.084   .     S
Cl855  C1017   1.771   .     S
H862   C719    1.086   1_655 S
O869   Zn885   1.933   .     S
O869   Zn882   1.964   .     S
O869   Zn883   1.944   .     S
O869   Zn884   1.935   .     S
O870   Zn883   1.928   .     S
O871   Zn885   1.939   .     S
O872   Zn884   1.933   .     S
O873   Zn882   1.923   .     S
O874   Zn882   1.937   .     S
O875   Zn885   1.941   .     S
O876   Zn883   1.925   .     S
O877   Zn884   1.936   .     S
O878   Zn885   1.931   .     S
O879   Zn882   1.922   .     S
O880   Zn883   1.947   .     S
O881   Zn884   1.939   .     S
C886   O935    1.271   .     A
C886   O937    1.271   .     A
C886   C896    1.437   .     S
C887   C888    1.389   .     A
C887   C910    1.408   .     A
C887   H918    1.080   .     S
C888   Cl915   1.765   .     S
C888   C359    1.404   1_556 S
C889   O938    1.280   .     A
C889   O936    1.284   .     A
C889   C895    1.455   .     S
C890   C891    1.426   .     A
C890   C892    1.409   .     A
C891   C894    1.410   .     A
C891   C911    1.424   .     A
C892   C893    1.390   .     A
C892   H919    1.082   .     S
C893   C905    1.393   .     A
C893   H923    1.084   .     S
C894   C905    1.391   .     A
C894   H922    1.078   .     S
C895   C955    1.335   .     S
C895   H979    1.088   .     S
C896   C1013   1.335   1_455 S
C896   H1039   1.086   1_455 S
C897   H925    1.083   .     S
C897   C904    1.401   .     A
C897   C906    1.391   .     A
C898   C901    1.456   .     S
C898   C545    1.349   1_565 S
C898   I573    2.141   1_565 S
C899   C900    1.427   .     S
C900   O939    1.272   .     A
C900   O933    1.276   .     A
C901   O940    1.275   .     A
C901   O934    1.266   .     A
C902   O929    1.275   .     A
C902   O931    1.274   .     A
C902   C905    1.452   .     S
C903   O932    1.285   .     A
C903   O930    1.284   .     A
C903   C904    1.470   .     S
C904   C907    1.406   .     A
C906   C909    1.400   .     A
C906   H924    1.084   .     S
C907   Cl916   1.777   .     S
C907   C908    1.418   .     A
C908   C909    1.418   .     A
C908   C910    1.423   .     A
C909   C382    1.394   1_556 S
C910   C380    1.420   1_556 S
C911   C912    1.414   .     A
C912   H926    1.077   .     S
C912   C913    1.389   .     A
C913   H917    1.084   .     S
Cl914  C545    1.771   1_565 S
H920   C1013   1.088   1_455 S
H921   C955    1.086   .     S
O928   Zn944   1.933   .     S
O928   Zn941   1.964   .     S
O928   Zn942   1.944   .     S
O928   Zn943   1.935   .     S
O929   Zn942   1.928   .     S
O930   Zn944   1.939   .     S
O931   Zn943   1.933   .     S
O932   Zn941   1.923   .     S
O933   Zn941   1.937   .     S
O934   Zn944   1.941   .     S
O935   Zn942   1.925   .     S
O936   Zn943   1.936   .     S
O937   Zn944   1.931   .     S
O938   Zn941   1.922   .     S
O939   Zn942   1.947   .     S
O940   Zn943   1.939   .     S
C945   O994    1.271   .     A
C945   O996    1.271   .     A
C945   C955    1.437   .     S
C946   C947    1.389   .     A
C946   C969    1.408   .     A
C946   H977    1.080   .     S
C947   Cl974   1.765   .     S
C947   C418    1.404   1_556 S
C948   O997    1.280   .     A
C948   O995    1.284   .     A
C948   C954    1.455   .     S
C949   C950    1.426   .     A
C949   C951    1.409   .     A
C950   C953    1.410   .     A
C950   C970    1.424   .     A
C951   C952    1.390   .     A
C951   H978    1.082   .     S
C952   C964    1.393   .     A
C952   H982    1.084   .     S
C953   C964    1.391   .     A
C953   H981    1.078   .     S
C954   C1014   1.335   .     S
C954   H1038   1.088   .     S
C956   H984    1.083   .     S
C956   C963    1.401   .     A
C956   C965    1.391   .     A
C957   C960    1.456   .     S
C957   C604    1.349   1_565 S
C957   I632    2.141   1_565 S
C958   C959    1.427   .     S
C959   O998    1.272   .     A
C959   O992    1.276   .     A
C960   O999    1.275   .     A
C960   O993    1.266   .     A
C961   O988    1.275   .     A
C961   O990    1.274   .     A
C961   C964    1.452   .     S
C962   O991    1.285   .     A
C962   O989    1.284   .     A
C962   C963    1.470   .     S
C963   C966    1.406   .     A
C965   C968    1.400   .     A
C965   H983    1.084   .     S
C966   Cl975   1.777   .     S
C966   C967    1.418   .     A
C967   C968    1.418   .     A
C967   C969    1.423   .     A
C968   C441    1.394   1_556 S
C969   C439    1.420   1_556 S
C970   C971    1.414   .     A
C971   H985    1.077   .     S
C971   C972    1.389   .     A
C972   H976    1.084   .     S
Cl973  C604    1.771   1_565 S
H980   C1014   1.086   .     S
O987   Zn1003  1.933   .     S
O987   Zn1000  1.964   .     S
O987   Zn1001  1.944   .     S
O987   Zn1002  1.935   .     S
O988   Zn1001  1.928   .     S
O989   Zn1003  1.939   .     S
O990   Zn1002  1.933   .     S
O991   Zn1000  1.923   .     S
O992   Zn1000  1.937   .     S
O993   Zn1003  1.941   .     S
O994   Zn1001  1.925   .     S
O995   Zn1002  1.936   .     S
O996   Zn1003  1.931   .     S
O997   Zn1000  1.922   .     S
O998   Zn1001  1.947   .     S
O999   Zn1002  1.939   .     S
C1004  O1053   1.271   .     A
C1004  O1055   1.271   .     A
C1004  C1014   1.437   .     S
C1005  C1006   1.389   .     A
C1005  C1028   1.408   .     A
C1005  H1036   1.080   .     S
C1006  Cl1033  1.765   .     S
C1006  C477    1.404   1_556 S
C1007  O1056   1.280   .     A
C1007  O1054   1.284   .     A
C1007  C1013   1.455   .     S
C1008  C1009   1.426   .     A
C1008  C1010   1.409   .     A
C1009  C1012   1.410   .     A
C1009  C1029   1.424   .     A
C1010  C1011   1.390   .     A
C1010  H1037   1.082   .     S
C1011  C1023   1.393   .     A
C1011  H1041   1.084   .     S
C1012  C1023   1.391   .     A
C1012  H1040   1.078   .     S
C1013  C896    1.335   1_655 S
C1013  H920    1.088   1_655 S
C1015  H1043   1.083   .     S
C1015  C1022   1.401   .     A
C1015  C1024   1.391   .     A
C1016  C1019   1.456   .     S
C1016  C663    1.349   1_565 S
C1016  I691    2.141   1_565 S
C1017  C1018   1.427   .     S
C1018  O1057   1.272   .     A
C1018  O1051   1.276   .     A
C1019  O1058   1.275   .     A
C1019  O1052   1.266   .     A
C1020  O1047   1.275   .     A
C1020  O1049   1.274   .     A
C1020  C1023   1.452   .     S
C1021  O1050   1.285   .     A
C1021  O1048   1.284   .     A
C1021  C1022   1.470   .     S
C1022  C1025   1.406   .     A
C1024  C1027   1.400   .     A
C1024  H1042   1.084   .     S
C1025  Cl1034  1.777   .     S
C1025  C1026   1.418   .     A
C1026  C1027   1.418   .     A
C1026  C1028   1.423   .     A
C1027  C500    1.394   1_556 S
C1028  C498    1.420   1_556 S
C1029  C1030   1.414   .     A
C1030  H1044   1.077   .     S
C1030  C1031   1.389   .     A
C1031  H1035   1.084   .     S
Cl1032 C663    1.771   1_565 S
H1039  C896    1.086   1_655 S
O1046  Zn1062  1.933   .     S
O1046  Zn1059  1.964   .     S
O1046  Zn1060  1.944   .     S
O1046  Zn1061  1.935   .     S
O1047  Zn1060  1.928   .     S
O1048  Zn1062  1.939   .     S
O1049  Zn1061  1.933   .     S
O1050  Zn1059  1.923   .     S
O1051  Zn1059  1.937   .     S
O1052  Zn1062  1.941   .     S
O1053  Zn1060  1.925   .     S
O1054  Zn1061  1.936   .     S
O1055  Zn1062  1.931   .     S
O1056  Zn1059  1.922   .     S
O1057  Zn1060  1.947   .     S
O1058  Zn1061  1.939   .     S
