data_str_m1_o1_o17_pcu_sym.116
_audit_creation_date              2020-01-03
_audit_creation_method            'Materials Studio'
_symmetry_space_group_name_H-M    'P1'
_symmetry_Int_Tables_number       1
_symmetry_cell_setting            triclinic
loop_
_symmetry_equiv_pos_as_xyz
  x,y,z
_cell_length_a                    36.6793
_cell_length_b                    36.6795
_cell_length_c                    34.3977
_cell_angle_alpha                 90.0000
_cell_angle_beta                  90.0000
_cell_angle_gamma                 89.9997
loop_
_atom_site_label
_atom_site_type_symbol
_atom_site_fract_x
_atom_site_fract_y
_atom_site_fract_z
_atom_site_U_iso_or_equiv
_atom_site_adp_type
_atom_site_occupancy
Br1    Br    0.46289   0.31938   0.38892   0.00000  Uiso   1.00
Br2    Br    0.21288   0.43063   0.11108   0.00000  Uiso   1.00
Br3    Br    0.43059   0.28705   0.88892   0.00000  Uiso   1.00
Br4    Br    0.06941   0.21295   0.11108   0.00000  Uiso   1.00
Br5    Br    0.21288   0.43063   0.88892   0.00000  Uiso   1.00
Br6    Br    0.28712   0.06937   0.11108   0.00000  Uiso   1.00
Br7    Br    0.06941   0.21295   0.88892   0.00000  Uiso   1.00
Br8    Br    0.43059   0.28705   0.11108   0.00000  Uiso   1.00
Br9    Br    0.03711   0.18062   0.61108   0.00000  Uiso   1.00
Br10   Br    0.18060   0.46293   0.38892   0.00000  Uiso   1.00
Br11   Br    0.31940   0.03707   0.61108   0.00000  Uiso   1.00
Br12   Br    0.03711   0.18062   0.38892   0.00000  Uiso   1.00
Br13   Br    0.46289   0.31938   0.61108   0.00000  Uiso   1.00
Br14   Br    0.31940   0.03707   0.38892   0.00000  Uiso   1.00
Br15   Br    0.18060   0.46293   0.61108   0.00000  Uiso   1.00
Br16   Br    0.28712   0.06937   0.88892   0.00000  Uiso   1.00
C17    C     0.48356   0.27908   0.41807   0.00000  Uiso   1.00
C18    C     0.23355   0.47093   0.08193   0.00000  Uiso   1.00
C19    C     0.22092   0.48339   0.54107   0.00000  Uiso   1.00
C20    C     0.48337   0.27907   0.45893   0.00000  Uiso   1.00
C21    C     0.01663   0.22093   0.54107   0.00000  Uiso   1.00
C22    C     0.22092   0.48339   0.45893   0.00000  Uiso   1.00
C23    C     0.27908   0.01661   0.54107   0.00000  Uiso   1.00
C24    C     0.23336   0.47093   0.95893   0.00000  Uiso   1.00
C25    C     0.26663   0.02907   0.04107   0.00000  Uiso   1.00
C26    C     0.02909   0.23340   0.95893   0.00000  Uiso   1.00
C27    C     0.47091   0.26660   0.04107   0.00000  Uiso   1.00
C28    C     0.26663   0.02907   0.95893   0.00000  Uiso   1.00
C29    C     0.47091   0.26642   0.91807   0.00000  Uiso   1.00
C30    C     0.23336   0.47093   0.04107   0.00000  Uiso   1.00
C31    C     0.47091   0.26660   0.95893   0.00000  Uiso   1.00
C32    C     0.02909   0.23340   0.04107   0.00000  Uiso   1.00
C33    C     0.09814   0.34814   0.25000   0.00000  Uiso   1.00
C34    C     0.40186   0.15186   0.75000   0.00000  Uiso   1.00
C35    C     0.15186   0.09814   0.25000   0.00000  Uiso   1.00
C36    C     0.34814   0.40186   0.75000   0.00000  Uiso   1.00
C37    C     0.40186   0.15186   0.25000   0.00000  Uiso   1.00
C38    C     0.09814   0.34814   0.75000   0.00000  Uiso   1.00
C39    C     0.34814   0.40186   0.25000   0.00000  Uiso   1.00
C40    C     0.02909   0.23358   0.08193   0.00000  Uiso   1.00
C41    C     0.15186   0.09814   0.75000   0.00000  Uiso   1.00
C42    C     0.09813   0.15187   0.75000   0.00000  Uiso   1.00
C43    C     0.40187   0.34813   0.25000   0.00000  Uiso   1.00
C44    C     0.15187   0.40187   0.75000   0.00000  Uiso   1.00
C45    C     0.34813   0.09813   0.25000   0.00000  Uiso   1.00
C46    C     0.40187   0.34813   0.75000   0.00000  Uiso   1.00
C47    C     0.09813   0.15187   0.25000   0.00000  Uiso   1.00
C48    C     0.34813   0.09813   0.75000   0.00000  Uiso   1.00
C49    C     0.15187   0.40187   0.25000   0.00000  Uiso   1.00
C50    C    -0.00000   0.25000   0.47942   0.00000  Uiso   1.00
C51    C     0.23355   0.47093   0.91807   0.00000  Uiso   1.00
C52    C    -0.00000   0.25000   0.52058   0.00000  Uiso   1.00
C53    C     0.25000   0.00000   0.47942   0.00000  Uiso   1.00
C54    C     0.25000   0.00000   0.52058   0.00000  Uiso   1.00
C55    C     0.25000   0.00000   0.97942   0.00000  Uiso   1.00
C56    C     0.25000   0.00000   0.02058   0.00000  Uiso   1.00
C57    C     0.00000   0.25000   0.97942   0.00000  Uiso   1.00
C58    C    -0.00000   0.25000   0.02058   0.00000  Uiso   1.00
C59    C     0.26645   0.02907   0.08193   0.00000  Uiso   1.00
C60    C     0.02909   0.23358   0.91807   0.00000  Uiso   1.00
C61    C     0.47091   0.26642   0.08193   0.00000  Uiso   1.00
C62    C    -0.00000   0.25000   0.39804   0.00000  Uiso   1.00
C63    C     0.00000   0.25000   0.60196   0.00000  Uiso   1.00
C64    C     0.25000   0.00000   0.39804   0.00000  Uiso   1.00
C65    C     0.01644   0.22092   0.58193   0.00000  Uiso   1.00
C66    C     0.25000   0.00000   0.60196   0.00000  Uiso   1.00
C67    C     0.25000   0.00000   0.89804   0.00000  Uiso   1.00
C68    C     0.25000   0.00000   0.10196   0.00000  Uiso   1.00
C69    C    -0.00000   0.25000   0.89803   0.00000  Uiso   1.00
C70    C     0.00000   0.25000   0.10196   0.00000  Uiso   1.00
C71    C     0.03300   0.19246   0.47984   0.00000  Uiso   1.00
C72    C     0.46700   0.30754   0.52016   0.00000  Uiso   1.00
C73    C     0.30756   0.03296   0.47984   0.00000  Uiso   1.00
C74    C     0.19244   0.46704   0.52016   0.00000  Uiso   1.00
C75    C     0.46700   0.30754   0.47984   0.00000  Uiso   1.00
C76    C     0.22091   0.48357   0.41807   0.00000  Uiso   1.00
C77    C     0.03300   0.19246   0.52016   0.00000  Uiso   1.00
C78    C     0.19244   0.46704   0.47984   0.00000  Uiso   1.00
C79    C     0.30756   0.03296   0.52016   0.00000  Uiso   1.00
C80    C     0.21699   0.44247   0.97984   0.00000  Uiso   1.00
C81    C     0.28301   0.05753   0.02016   0.00000  Uiso   1.00
C82    C     0.05757   0.21706   0.97984   0.00000  Uiso   1.00
C83    C     0.44243   0.28294   0.02016   0.00000  Uiso   1.00
C84    C     0.28301   0.05753   0.97984   0.00000  Uiso   1.00
C85    C     0.21699   0.44247   0.02016   0.00000  Uiso   1.00
C86    C     0.44243   0.28294   0.97984   0.00000  Uiso   1.00
C87    C     0.27909   0.01643   0.58193   0.00000  Uiso   1.00
C88    C     0.05757   0.21706   0.02016   0.00000  Uiso   1.00
C89    C     0.25000   0.00000   0.35577   0.00000  Uiso   1.00
C90    C     0.25000   0.00000   0.64423   0.00000  Uiso   1.00
C91    C    -0.00000   0.25000   0.35577   0.00000  Uiso   1.00
C92    C    -0.00000   0.25000   0.64423   0.00000  Uiso   1.00
C93    C    -0.00000   0.25000   0.85577   0.00000  Uiso   1.00
C94    C    -0.00000   0.25000   0.14423   0.00000  Uiso   1.00
C95    C     0.25000   0.00000   0.85577   0.00000  Uiso   1.00
C96    C     0.25000   0.00000   0.14423   0.00000  Uiso   1.00
C97    C     0.17993   0.07007   0.25000   0.00000  Uiso   1.00
C98    C     0.01644   0.22092   0.41807   0.00000  Uiso   1.00
C99    C     0.32007   0.42993   0.75000   0.00000  Uiso   1.00
C100   C     0.42993   0.17993   0.25000   0.00000  Uiso   1.00
C101   C     0.07007   0.32007   0.75000   0.00000  Uiso   1.00
C102   C     0.32007   0.42993   0.25000   0.00000  Uiso   1.00
C103   C     0.17993   0.07007   0.75000   0.00000  Uiso   1.00
C104   C     0.07007   0.32007   0.25000   0.00000  Uiso   1.00
C105   C     0.42993   0.17993   0.75000   0.00000  Uiso   1.00
C106   C     0.17993   0.42993   0.75000   0.00000  Uiso   1.00
C107   C     0.32007   0.07007   0.25000   0.00000  Uiso   1.00
C108   C     0.42993   0.32007   0.75000   0.00000  Uiso   1.00
C109   C     0.48356   0.27908   0.58193   0.00000  Uiso   1.00
C110   C     0.07007   0.17993   0.25000   0.00000  Uiso   1.00
C111   C     0.32007   0.07007   0.75000   0.00000  Uiso   1.00
C112   C     0.17993   0.42993   0.25000   0.00000  Uiso   1.00
C113   C     0.07007   0.17993   0.75000   0.00000  Uiso   1.00
C114   C     0.42993   0.32007   0.25000   0.00000  Uiso   1.00
C115   C     0.12225   0.40448   0.22440   0.00000  Uiso   1.00
C116   C     0.37775   0.09552   0.77560   0.00000  Uiso   1.00
C117   C     0.09552   0.12225   0.22440   0.00000  Uiso   1.00
C118   C     0.40448   0.37775   0.77560   0.00000  Uiso   1.00
C119   C     0.37775   0.09552   0.22440   0.00000  Uiso   1.00
C120   C     0.27909   0.01643   0.41807   0.00000  Uiso   1.00
C121   C     0.12225   0.40448   0.77560   0.00000  Uiso   1.00
C122   C     0.40448   0.37775   0.22440   0.00000  Uiso   1.00
C123   C     0.09552   0.12225   0.77560   0.00000  Uiso   1.00
C124   C     0.12224   0.09552   0.77559   0.00000  Uiso   1.00
C125   C     0.37776   0.40448   0.22440   0.00000  Uiso   1.00
C126   C     0.09552   0.37776   0.77559   0.00000  Uiso   1.00
C127   C     0.40448   0.12224   0.22441   0.00000  Uiso   1.00
C128   C     0.37776   0.40448   0.77559   0.00000  Uiso   1.00
C129   C     0.12224   0.09552   0.22441   0.00000  Uiso   1.00
C130   C     0.40448   0.12224   0.77559   0.00000  Uiso   1.00
C131   C     0.22091   0.48357   0.58193   0.00000  Uiso   1.00
C132   C     0.09552   0.37776   0.22441   0.00000  Uiso   1.00
C133   C     0.37224   0.15448   0.72441   0.00000  Uiso   1.00
C134   C     0.12776   0.34552   0.27559   0.00000  Uiso   1.00
C135   C     0.34552   0.37224   0.72441   0.00000  Uiso   1.00
C136   C     0.15448   0.12776   0.27559   0.00000  Uiso   1.00
C137   C     0.12776   0.34552   0.72441   0.00000  Uiso   1.00
C138   C     0.37224   0.15448   0.27559   0.00000  Uiso   1.00
C139   C     0.15448   0.12776   0.72440   0.00000  Uiso   1.00
C140   C     0.34552   0.37224   0.27559   0.00000  Uiso   1.00
C141   C     0.37225   0.34552   0.27560   0.00000  Uiso   1.00
C142   C     0.26645   0.02907   0.91807   0.00000  Uiso   1.00
C143   C     0.12775   0.15448   0.72440   0.00000  Uiso   1.00
C144   C     0.34552   0.12775   0.27560   0.00000  Uiso   1.00
C145   C     0.15448   0.37225   0.72440   0.00000  Uiso   1.00
C146   C     0.12775   0.15448   0.27560   0.00000  Uiso   1.00
C147   C     0.37225   0.34552   0.72440   0.00000  Uiso   1.00
C148   C     0.15448   0.37225   0.27560   0.00000  Uiso   1.00
C149   C     0.34552   0.12775   0.72440   0.00000  Uiso   1.00
C150   C     0.01663   0.22093   0.45893   0.00000  Uiso   1.00
C151   C     0.48337   0.27907   0.54107   0.00000  Uiso   1.00
C152   C     0.27908   0.01661   0.45893   0.00000  Uiso   1.00
H153   H     0.04614   0.16980   0.46548   0.00000  Uiso   1.00
H154   H     0.29616   0.08019   0.03452   0.00000  Uiso   1.00
H155   H     0.08025   0.20394   0.96548   0.00000  Uiso   1.00
H156   H     0.41975   0.29606   0.03452   0.00000  Uiso   1.00
H157   H     0.29616   0.08019   0.96548   0.00000  Uiso   1.00
H158   H     0.20384   0.41981   0.03452   0.00000  Uiso   1.00
H159   H     0.41975   0.29606   0.96548   0.00000  Uiso   1.00
H160   H     0.08025   0.20394   0.03452   0.00000  Uiso   1.00
H161   H     0.11970   0.42712   0.20436   0.00000  Uiso   1.00
H162   H     0.38030   0.07288   0.79564   0.00000  Uiso   1.00
H163   H     0.07288   0.11970   0.20435   0.00000  Uiso   1.00
H164   H     0.45386   0.33020   0.53452   0.00000  Uiso   1.00
H165   H     0.42712   0.38030   0.79565   0.00000  Uiso   1.00
H166   H     0.38030   0.07288   0.20435   0.00000  Uiso   1.00
H167   H     0.11970   0.42712   0.79564   0.00000  Uiso   1.00
H168   H     0.42711   0.38030   0.20435   0.00000  Uiso   1.00
H169   H     0.07289   0.11971   0.79565   0.00000  Uiso   1.00
H170   H     0.11968   0.07288   0.79563   0.00000  Uiso   1.00
H171   H     0.38032   0.42712   0.20437   0.00000  Uiso   1.00
H172   H     0.07288   0.38032   0.79563   0.00000  Uiso   1.00
H173   H     0.42712   0.11968   0.20437   0.00000  Uiso   1.00
H174   H     0.38032   0.42712   0.79563   0.00000  Uiso   1.00
H175   H     0.33024   0.04609   0.46548   0.00000  Uiso   1.00
H176   H     0.11968   0.07288   0.20437   0.00000  Uiso   1.00
H177   H     0.42712   0.11968   0.79563   0.00000  Uiso   1.00
H178   H     0.07288   0.38032   0.20437   0.00000  Uiso   1.00
H179   H     0.36968   0.17712   0.70437   0.00000  Uiso   1.00
H180   H     0.13032   0.32288   0.29563   0.00000  Uiso   1.00
H181   H     0.32288   0.36968   0.70437   0.00000  Uiso   1.00
H182   H     0.17712   0.13032   0.29563   0.00000  Uiso   1.00
H183   H     0.13032   0.32288   0.70437   0.00000  Uiso   1.00
H184   H     0.36968   0.17712   0.29563   0.00000  Uiso   1.00
H185   H     0.17712   0.13032   0.70437   0.00000  Uiso   1.00
H186   H     0.16976   0.45391   0.53452   0.00000  Uiso   1.00
H187   H     0.32288   0.36968   0.29563   0.00000  Uiso   1.00
H188   H     0.36971   0.32289   0.29565   0.00000  Uiso   1.00
H189   H     0.13029   0.17711   0.70435   0.00000  Uiso   1.00
H190   H     0.32288   0.13030   0.29564   0.00000  Uiso   1.00
H191   H     0.17712   0.36970   0.70435   0.00000  Uiso   1.00
H192   H     0.13030   0.17712   0.29565   0.00000  Uiso   1.00
H193   H     0.36970   0.32288   0.70435   0.00000  Uiso   1.00
H194   H     0.17712   0.36970   0.29565   0.00000  Uiso   1.00
H195   H     0.32288   0.13030   0.70435   0.00000  Uiso   1.00
H196   H     0.45386   0.33020   0.46548   0.00000  Uiso   1.00
H197   H     0.04614   0.16980   0.53452   0.00000  Uiso   1.00
H198   H     0.16976   0.45391   0.46548   0.00000  Uiso   1.00
H199   H     0.33024   0.04609   0.53452   0.00000  Uiso   1.00
H200   H     0.20384   0.41981   0.96548   0.00000  Uiso   1.00
O201   O     0.25000   0.00000   0.25000   0.00000  Uiso   1.00
O202   O     0.25000   0.46964   0.66245   0.00000  Uiso   1.00
O203   O     0.46963   0.25000   0.33755   0.00000  Uiso   1.00
O204   O     0.03036   0.25000   0.66245   0.00000  Uiso   1.00
O205   O     0.00000   0.21963   0.83755   0.00000  Uiso   1.00
O206   O     0.00000   0.28036   0.16245   0.00000  Uiso   1.00
O207   O     0.28036   0.00000   0.83755   0.00000  Uiso   1.00
O208   O     0.21963  -0.00000   0.16245   0.00000  Uiso   1.00
O209   O     0.00000   0.28036   0.83755   0.00000  Uiso   1.00
O210   O     0.00000   0.21963   0.16245   0.00000  Uiso   1.00
O211   O     0.21963  -0.00000   0.83755   0.00000  Uiso   1.00
O212   O     0.25000   0.00000   0.75000   0.00000  Uiso   1.00
O213   O     0.28036   0.00000   0.16245   0.00000  Uiso   1.00
O214   O     0.20724   0.07308   0.27302   0.00000  Uiso   1.00
O215   O     0.29275   0.42693   0.72698   0.00000  Uiso   1.00
O216   O     0.42692   0.20725   0.27302   0.00000  Uiso   1.00
O217   O     0.07307   0.29275   0.72698   0.00000  Uiso   1.00
O218   O     0.29275   0.42693   0.27302   0.00000  Uiso   1.00
O219   O     0.20724   0.07308   0.72698   0.00000  Uiso   1.00
O220   O     0.07307   0.29275   0.27302   0.00000  Uiso   1.00
O221   O     0.42692   0.20725   0.72698   0.00000  Uiso   1.00
O222   O     0.20724   0.42693   0.72698   0.00000  Uiso   1.00
O223   O    -0.00000   0.25000   0.25000   0.00000  Uiso   1.00
O224   O     0.29275   0.07308   0.27302   0.00000  Uiso   1.00
O225   O     0.42692   0.29276   0.72698   0.00000  Uiso   1.00
O226   O     0.07307   0.20724   0.27302   0.00000  Uiso   1.00
O227   O     0.29275   0.07308   0.72698   0.00000  Uiso   1.00
O228   O     0.20724   0.42693   0.27302   0.00000  Uiso   1.00
O229   O     0.07307   0.20724   0.72698   0.00000  Uiso   1.00
O230   O     0.42692   0.29276   0.27302   0.00000  Uiso   1.00
O231   O     0.45724   0.32308   0.77302   0.00000  Uiso   1.00
O232   O     0.04275   0.17692   0.22698   0.00000  Uiso   1.00
O233   O     0.17692   0.45724   0.77302   0.00000  Uiso   1.00
O234   O     0.00000   0.25000   0.75000   0.00000  Uiso   1.00
O235   O     0.32307   0.04276   0.22698   0.00000  Uiso   1.00
O236   O     0.04275   0.17692   0.77302   0.00000  Uiso   1.00
O237   O     0.45724   0.32308   0.22698   0.00000  Uiso   1.00
O238   O     0.32307   0.04276   0.77302   0.00000  Uiso   1.00
O239   O     0.17692   0.45724   0.22698   0.00000  Uiso   1.00
O240   O     0.45724   0.17693   0.22698   0.00000  Uiso   1.00
O241   O     0.04275   0.32307   0.77302   0.00000  Uiso   1.00
O242   O     0.17692   0.04276   0.22698   0.00000  Uiso   1.00
O243   O     0.32307   0.45725   0.77302   0.00000  Uiso   1.00
O244   O     0.04275   0.32307   0.22698   0.00000  Uiso   1.00
O245   O     0.25000   0.46964   0.33755   0.00000  Uiso   1.00
O246   O     0.45724   0.17693   0.77302   0.00000  Uiso   1.00
O247   O     0.32307   0.45725   0.22698   0.00000  Uiso   1.00
O248   O     0.17692   0.04276   0.77302   0.00000  Uiso   1.00
O249   O     0.25000   0.03037   0.66245   0.00000  Uiso   1.00
O250   O     0.03036   0.25000   0.33755   0.00000  Uiso   1.00
O251   O     0.46963   0.25000   0.66245   0.00000  Uiso   1.00
O252   O     0.25000   0.03037   0.33755   0.00000  Uiso   1.00
Zn253  Zn    0.20659   0.00000   0.21735   0.00000  Uiso   1.00
Zn254  Zn    0.04340   0.25000   0.28265   0.00000  Uiso   1.00
Zn255  Zn    0.25000   0.45660   0.71735   0.00000  Uiso   1.00
Zn256  Zn    0.25000   0.04341   0.28265   0.00000  Uiso   1.00
Zn257  Zn    0.04340   0.25000   0.71735   0.00000  Uiso   1.00
Zn258  Zn    0.45659   0.25000   0.28265   0.00000  Uiso   1.00
Zn259  Zn    0.25000   0.04341   0.71735   0.00000  Uiso   1.00
Zn260  Zn    0.25000   0.45660   0.28265   0.00000  Uiso   1.00
Zn261  Zn    0.29340   0.00000   0.78265   0.00000  Uiso   1.00
Zn262  Zn    0.00000   0.20659   0.21735   0.00000  Uiso   1.00
Zn263  Zn    0.00000   0.29340   0.78265   0.00000  Uiso   1.00
Zn264  Zn    0.29340   0.00000   0.21735   0.00000  Uiso   1.00
Zn265  Zn    0.20659  -0.00000   0.78265   0.00000  Uiso   1.00
Zn266  Zn    0.00000   0.29340   0.21735   0.00000  Uiso   1.00
Zn267  Zn    0.00000   0.20659   0.78265   0.00000  Uiso   1.00
Zn268  Zn    0.45659   0.25000   0.71735   0.00000  Uiso   1.00
Br269  Br    0.96289   0.31938   0.38892   0.00000  Uiso   1.00
Br270  Br    0.71288   0.43063   0.11108   0.00000  Uiso   1.00
Br271  Br    0.93059   0.28705   0.88892   0.00000  Uiso   1.00
Br272  Br    0.56941   0.21295   0.11108   0.00000  Uiso   1.00
Br273  Br    0.71288   0.43063   0.88892   0.00000  Uiso   1.00
Br274  Br    0.78712   0.06937   0.11108   0.00000  Uiso   1.00
Br275  Br    0.56941   0.21295   0.88892   0.00000  Uiso   1.00
Br276  Br    0.93059   0.28705   0.11108   0.00000  Uiso   1.00
Br277  Br    0.53711   0.18062   0.61108   0.00000  Uiso   1.00
Br278  Br    0.68060   0.46293   0.38892   0.00000  Uiso   1.00
Br279  Br    0.81940   0.03707   0.61108   0.00000  Uiso   1.00
Br280  Br    0.53711   0.18062   0.38892   0.00000  Uiso   1.00
Br281  Br    0.96289   0.31938   0.61108   0.00000  Uiso   1.00
Br282  Br    0.81940   0.03707   0.38892   0.00000  Uiso   1.00
Br283  Br    0.68060   0.46293   0.61108   0.00000  Uiso   1.00
Br284  Br    0.78712   0.06937   0.88892   0.00000  Uiso   1.00
C285   C     0.98356   0.27908   0.41807   0.00000  Uiso   1.00
C286   C     0.73355   0.47093   0.08193   0.00000  Uiso   1.00
C287   C     0.72092   0.48339   0.54107   0.00000  Uiso   1.00
C288   C     0.98337   0.27907   0.45893   0.00000  Uiso   1.00
C289   C     0.51663   0.22093   0.54107   0.00000  Uiso   1.00
C290   C     0.72092   0.48339   0.45893   0.00000  Uiso   1.00
C291   C     0.77908   0.01661   0.54107   0.00000  Uiso   1.00
C292   C     0.73336   0.47093   0.95893   0.00000  Uiso   1.00
C293   C     0.76663   0.02907   0.04107   0.00000  Uiso   1.00
C294   C     0.52909   0.23340   0.95893   0.00000  Uiso   1.00
C295   C     0.97091   0.26660   0.04107   0.00000  Uiso   1.00
C296   C     0.76663   0.02907   0.95893   0.00000  Uiso   1.00
C297   C     0.97091   0.26642   0.91807   0.00000  Uiso   1.00
C298   C     0.73336   0.47093   0.04107   0.00000  Uiso   1.00
C299   C     0.97091   0.26660   0.95893   0.00000  Uiso   1.00
C300   C     0.52909   0.23340   0.04107   0.00000  Uiso   1.00
C301   C     0.59814   0.34814   0.25000   0.00000  Uiso   1.00
C302   C     0.90186   0.15186   0.75000   0.00000  Uiso   1.00
C303   C     0.65186   0.09814   0.25000   0.00000  Uiso   1.00
C304   C     0.84814   0.40186   0.75000   0.00000  Uiso   1.00
C305   C     0.90186   0.15186   0.25000   0.00000  Uiso   1.00
C306   C     0.59814   0.34814   0.75000   0.00000  Uiso   1.00
C307   C     0.84814   0.40186   0.25000   0.00000  Uiso   1.00
C308   C     0.52909   0.23358   0.08193   0.00000  Uiso   1.00
C309   C     0.65186   0.09814   0.75000   0.00000  Uiso   1.00
C310   C     0.59813   0.15187   0.75000   0.00000  Uiso   1.00
C311   C     0.90187   0.34813   0.25000   0.00000  Uiso   1.00
C312   C     0.65187   0.40187   0.75000   0.00000  Uiso   1.00
C313   C     0.84813   0.09813   0.25000   0.00000  Uiso   1.00
C314   C     0.90187   0.34813   0.75000   0.00000  Uiso   1.00
C315   C     0.59813   0.15187   0.25000   0.00000  Uiso   1.00
C316   C     0.84813   0.09813   0.75000   0.00000  Uiso   1.00
C317   C     0.65187   0.40187   0.25000   0.00000  Uiso   1.00
C318   C     0.50000   0.25000   0.47942   0.00000  Uiso   1.00
C319   C     0.73355   0.47093   0.91807   0.00000  Uiso   1.00
C320   C     0.50000   0.25000   0.52058   0.00000  Uiso   1.00
C321   C     0.75000   0.00000   0.47942   0.00000  Uiso   1.00
C322   C     0.75000   0.00000   0.52058   0.00000  Uiso   1.00
C323   C     0.75000   0.00000   0.97942   0.00000  Uiso   1.00
C324   C     0.75000   0.00000   0.02058   0.00000  Uiso   1.00
C325   C     0.50000   0.25000   0.97942   0.00000  Uiso   1.00
C326   C     0.50000   0.25000   0.02058   0.00000  Uiso   1.00
C327   C     0.76645   0.02907   0.08193   0.00000  Uiso   1.00
C328   C     0.52909   0.23358   0.91807   0.00000  Uiso   1.00
C329   C     0.97091   0.26642   0.08193   0.00000  Uiso   1.00
C330   C     0.50000   0.25000   0.39804   0.00000  Uiso   1.00
C331   C     0.50000   0.25000   0.60196   0.00000  Uiso   1.00
C332   C     0.75000   0.00000   0.39804   0.00000  Uiso   1.00
C333   C     0.51644   0.22092   0.58193   0.00000  Uiso   1.00
C334   C     0.75000   0.00000   0.60196   0.00000  Uiso   1.00
C335   C     0.75000   0.00000   0.89804   0.00000  Uiso   1.00
C336   C     0.75000   0.00000   0.10196   0.00000  Uiso   1.00
C337   C     0.50000   0.25000   0.89803   0.00000  Uiso   1.00
C338   C     0.50000   0.25000   0.10196   0.00000  Uiso   1.00
C339   C     0.53300   0.19246   0.47984   0.00000  Uiso   1.00
C340   C     0.96700   0.30754   0.52016   0.00000  Uiso   1.00
C341   C     0.80756   0.03296   0.47984   0.00000  Uiso   1.00
C342   C     0.69244   0.46704   0.52016   0.00000  Uiso   1.00
C343   C     0.96700   0.30754   0.47984   0.00000  Uiso   1.00
C344   C     0.72091   0.48357   0.41807   0.00000  Uiso   1.00
C345   C     0.53300   0.19246   0.52016   0.00000  Uiso   1.00
C346   C     0.69244   0.46704   0.47984   0.00000  Uiso   1.00
C347   C     0.80756   0.03296   0.52016   0.00000  Uiso   1.00
C348   C     0.71699   0.44247   0.97984   0.00000  Uiso   1.00
C349   C     0.78301   0.05753   0.02016   0.00000  Uiso   1.00
C350   C     0.55757   0.21706   0.97984   0.00000  Uiso   1.00
C351   C     0.94243   0.28294   0.02016   0.00000  Uiso   1.00
C352   C     0.78301   0.05753   0.97984   0.00000  Uiso   1.00
C353   C     0.71699   0.44247   0.02016   0.00000  Uiso   1.00
C354   C     0.94243   0.28294   0.97984   0.00000  Uiso   1.00
C355   C     0.77909   0.01643   0.58193   0.00000  Uiso   1.00
C356   C     0.55757   0.21706   0.02016   0.00000  Uiso   1.00
C357   C     0.75000   0.00000   0.35577   0.00000  Uiso   1.00
C358   C     0.75000   0.00000   0.64423   0.00000  Uiso   1.00
C359   C     0.50000   0.25000   0.35577   0.00000  Uiso   1.00
C360   C     0.50000   0.25000   0.64423   0.00000  Uiso   1.00
C361   C     0.50000   0.25000   0.85577   0.00000  Uiso   1.00
C362   C     0.50000   0.25000   0.14423   0.00000  Uiso   1.00
C363   C     0.75000   0.00000   0.85577   0.00000  Uiso   1.00
C364   C     0.75000   0.00000   0.14423   0.00000  Uiso   1.00
C365   C     0.67993   0.07007   0.25000   0.00000  Uiso   1.00
C366   C     0.51644   0.22092   0.41807   0.00000  Uiso   1.00
C367   C     0.82007   0.42993   0.75000   0.00000  Uiso   1.00
C368   C     0.92993   0.17993   0.25000   0.00000  Uiso   1.00
C369   C     0.57007   0.32007   0.75000   0.00000  Uiso   1.00
C370   C     0.82007   0.42993   0.25000   0.00000  Uiso   1.00
C371   C     0.67993   0.07007   0.75000   0.00000  Uiso   1.00
C372   C     0.57007   0.32007   0.25000   0.00000  Uiso   1.00
C373   C     0.92993   0.17993   0.75000   0.00000  Uiso   1.00
C374   C     0.67993   0.42993   0.75000   0.00000  Uiso   1.00
C375   C     0.82007   0.07007   0.25000   0.00000  Uiso   1.00
C376   C     0.92993   0.32007   0.75000   0.00000  Uiso   1.00
C377   C     0.98356   0.27908   0.58193   0.00000  Uiso   1.00
C378   C     0.57007   0.17993   0.25000   0.00000  Uiso   1.00
C379   C     0.82007   0.07007   0.75000   0.00000  Uiso   1.00
C380   C     0.67993   0.42993   0.25000   0.00000  Uiso   1.00
C381   C     0.57007   0.17993   0.75000   0.00000  Uiso   1.00
C382   C     0.92993   0.32007   0.25000   0.00000  Uiso   1.00
C383   C     0.62225   0.40448   0.22440   0.00000  Uiso   1.00
C384   C     0.87775   0.09552   0.77560   0.00000  Uiso   1.00
C385   C     0.59552   0.12225   0.22440   0.00000  Uiso   1.00
C386   C     0.90448   0.37775   0.77560   0.00000  Uiso   1.00
C387   C     0.87775   0.09552   0.22440   0.00000  Uiso   1.00
C388   C     0.77909   0.01643   0.41807   0.00000  Uiso   1.00
C389   C     0.62225   0.40448   0.77560   0.00000  Uiso   1.00
C390   C     0.90448   0.37775   0.22440   0.00000  Uiso   1.00
C391   C     0.59552   0.12225   0.77560   0.00000  Uiso   1.00
C392   C     0.62224   0.09552   0.77559   0.00000  Uiso   1.00
C393   C     0.87776   0.40448   0.22440   0.00000  Uiso   1.00
C394   C     0.59552   0.37776   0.77559   0.00000  Uiso   1.00
C395   C     0.90448   0.12224   0.22441   0.00000  Uiso   1.00
C396   C     0.87776   0.40448   0.77559   0.00000  Uiso   1.00
C397   C     0.62224   0.09552   0.22441   0.00000  Uiso   1.00
C398   C     0.90448   0.12224   0.77559   0.00000  Uiso   1.00
C399   C     0.72091   0.48357   0.58193   0.00000  Uiso   1.00
C400   C     0.59552   0.37776   0.22441   0.00000  Uiso   1.00
C401   C     0.87224   0.15448   0.72441   0.00000  Uiso   1.00
C402   C     0.62776   0.34552   0.27559   0.00000  Uiso   1.00
C403   C     0.84552   0.37224   0.72441   0.00000  Uiso   1.00
C404   C     0.65448   0.12776   0.27559   0.00000  Uiso   1.00
C405   C     0.62776   0.34552   0.72441   0.00000  Uiso   1.00
C406   C     0.87224   0.15448   0.27559   0.00000  Uiso   1.00
C407   C     0.65448   0.12776   0.72440   0.00000  Uiso   1.00
C408   C     0.84552   0.37224   0.27559   0.00000  Uiso   1.00
C409   C     0.87225   0.34552   0.27560   0.00000  Uiso   1.00
C410   C     0.76645   0.02907   0.91807   0.00000  Uiso   1.00
C411   C     0.62775   0.15448   0.72440   0.00000  Uiso   1.00
C412   C     0.84552   0.12775   0.27560   0.00000  Uiso   1.00
C413   C     0.65448   0.37225   0.72440   0.00000  Uiso   1.00
C414   C     0.62775   0.15448   0.27560   0.00000  Uiso   1.00
C415   C     0.87225   0.34552   0.72440   0.00000  Uiso   1.00
C416   C     0.65448   0.37225   0.27560   0.00000  Uiso   1.00
C417   C     0.84552   0.12775   0.72440   0.00000  Uiso   1.00
C418   C     0.51663   0.22093   0.45893   0.00000  Uiso   1.00
C419   C     0.98337   0.27907   0.54107   0.00000  Uiso   1.00
C420   C     0.77908   0.01661   0.45893   0.00000  Uiso   1.00
H421   H     0.54614   0.16980   0.46548   0.00000  Uiso   1.00
H422   H     0.79616   0.08019   0.03452   0.00000  Uiso   1.00
H423   H     0.58025   0.20394   0.96548   0.00000  Uiso   1.00
H424   H     0.91975   0.29606   0.03452   0.00000  Uiso   1.00
H425   H     0.79616   0.08019   0.96548   0.00000  Uiso   1.00
H426   H     0.70384   0.41981   0.03452   0.00000  Uiso   1.00
H427   H     0.91975   0.29606   0.96548   0.00000  Uiso   1.00
H428   H     0.58025   0.20394   0.03452   0.00000  Uiso   1.00
H429   H     0.61970   0.42712   0.20436   0.00000  Uiso   1.00
H430   H     0.88030   0.07288   0.79564   0.00000  Uiso   1.00
H431   H     0.57288   0.11970   0.20435   0.00000  Uiso   1.00
H432   H     0.95386   0.33020   0.53452   0.00000  Uiso   1.00
H433   H     0.92712   0.38030   0.79565   0.00000  Uiso   1.00
H434   H     0.88030   0.07288   0.20435   0.00000  Uiso   1.00
H435   H     0.61970   0.42712   0.79564   0.00000  Uiso   1.00
H436   H     0.92711   0.38030   0.20435   0.00000  Uiso   1.00
H437   H     0.57289   0.11971   0.79565   0.00000  Uiso   1.00
H438   H     0.61968   0.07288   0.79563   0.00000  Uiso   1.00
H439   H     0.88032   0.42712   0.20437   0.00000  Uiso   1.00
H440   H     0.57288   0.38032   0.79563   0.00000  Uiso   1.00
H441   H     0.92712   0.11968   0.20437   0.00000  Uiso   1.00
H442   H     0.88032   0.42712   0.79563   0.00000  Uiso   1.00
H443   H     0.83024   0.04609   0.46548   0.00000  Uiso   1.00
H444   H     0.61968   0.07288   0.20437   0.00000  Uiso   1.00
H445   H     0.92712   0.11968   0.79563   0.00000  Uiso   1.00
H446   H     0.57288   0.38032   0.20437   0.00000  Uiso   1.00
H447   H     0.86968   0.17712   0.70437   0.00000  Uiso   1.00
H448   H     0.63032   0.32288   0.29563   0.00000  Uiso   1.00
H449   H     0.82288   0.36968   0.70437   0.00000  Uiso   1.00
H450   H     0.67712   0.13032   0.29563   0.00000  Uiso   1.00
H451   H     0.63032   0.32288   0.70437   0.00000  Uiso   1.00
H452   H     0.86968   0.17712   0.29563   0.00000  Uiso   1.00
H453   H     0.67712   0.13032   0.70437   0.00000  Uiso   1.00
H454   H     0.66976   0.45391   0.53452   0.00000  Uiso   1.00
H455   H     0.82288   0.36968   0.29563   0.00000  Uiso   1.00
H456   H     0.86971   0.32289   0.29565   0.00000  Uiso   1.00
H457   H     0.63029   0.17711   0.70435   0.00000  Uiso   1.00
H458   H     0.82288   0.13030   0.29564   0.00000  Uiso   1.00
H459   H     0.67712   0.36970   0.70435   0.00000  Uiso   1.00
H460   H     0.63030   0.17712   0.29565   0.00000  Uiso   1.00
H461   H     0.86970   0.32288   0.70435   0.00000  Uiso   1.00
H462   H     0.67712   0.36970   0.29565   0.00000  Uiso   1.00
H463   H     0.82288   0.13030   0.70435   0.00000  Uiso   1.00
H464   H     0.95386   0.33020   0.46548   0.00000  Uiso   1.00
H465   H     0.54614   0.16980   0.53452   0.00000  Uiso   1.00
H466   H     0.66976   0.45391   0.46548   0.00000  Uiso   1.00
H467   H     0.83024   0.04609   0.53452   0.00000  Uiso   1.00
H468   H     0.70384   0.41981   0.96548   0.00000  Uiso   1.00
O469   O     0.75000   0.00000   0.25000   0.00000  Uiso   1.00
O470   O     0.75000   0.46964   0.66245   0.00000  Uiso   1.00
O471   O     0.96963   0.25000   0.33755   0.00000  Uiso   1.00
O472   O     0.53036   0.25000   0.66245   0.00000  Uiso   1.00
O473   O     0.50000   0.21963   0.83755   0.00000  Uiso   1.00
O474   O     0.50000   0.28036   0.16245   0.00000  Uiso   1.00
O475   O     0.78036   0.00000   0.83755   0.00000  Uiso   1.00
O476   O     0.71963  -0.00000   0.16245   0.00000  Uiso   1.00
O477   O     0.50000   0.28036   0.83755   0.00000  Uiso   1.00
O478   O     0.50000   0.21963   0.16245   0.00000  Uiso   1.00
O479   O     0.71963  -0.00000   0.83755   0.00000  Uiso   1.00
O480   O     0.75000   0.00000   0.75000   0.00000  Uiso   1.00
O481   O     0.78036   0.00000   0.16245   0.00000  Uiso   1.00
O482   O     0.70724   0.07308   0.27302   0.00000  Uiso   1.00
O483   O     0.79275   0.42693   0.72698   0.00000  Uiso   1.00
O484   O     0.92692   0.20725   0.27302   0.00000  Uiso   1.00
O485   O     0.57307   0.29275   0.72698   0.00000  Uiso   1.00
O486   O     0.79275   0.42693   0.27302   0.00000  Uiso   1.00
O487   O     0.70724   0.07308   0.72698   0.00000  Uiso   1.00
O488   O     0.57307   0.29275   0.27302   0.00000  Uiso   1.00
O489   O     0.92692   0.20725   0.72698   0.00000  Uiso   1.00
O490   O     0.70724   0.42693   0.72698   0.00000  Uiso   1.00
O491   O     0.50000   0.25000   0.25000   0.00000  Uiso   1.00
O492   O     0.79275   0.07308   0.27302   0.00000  Uiso   1.00
O493   O     0.92692   0.29276   0.72698   0.00000  Uiso   1.00
O494   O     0.57307   0.20724   0.27302   0.00000  Uiso   1.00
O495   O     0.79275   0.07308   0.72698   0.00000  Uiso   1.00
O496   O     0.70724   0.42693   0.27302   0.00000  Uiso   1.00
O497   O     0.57307   0.20724   0.72698   0.00000  Uiso   1.00
O498   O     0.92692   0.29276   0.27302   0.00000  Uiso   1.00
O499   O     0.95724   0.32308   0.77302   0.00000  Uiso   1.00
O500   O     0.54275   0.17692   0.22698   0.00000  Uiso   1.00
O501   O     0.67692   0.45724   0.77302   0.00000  Uiso   1.00
O502   O     0.50000   0.25000   0.75000   0.00000  Uiso   1.00
O503   O     0.82307   0.04276   0.22698   0.00000  Uiso   1.00
O504   O     0.54275   0.17692   0.77302   0.00000  Uiso   1.00
O505   O     0.95724   0.32308   0.22698   0.00000  Uiso   1.00
O506   O     0.82307   0.04276   0.77302   0.00000  Uiso   1.00
O507   O     0.67692   0.45724   0.22698   0.00000  Uiso   1.00
O508   O     0.95724   0.17693   0.22698   0.00000  Uiso   1.00
O509   O     0.54275   0.32307   0.77302   0.00000  Uiso   1.00
O510   O     0.67692   0.04276   0.22698   0.00000  Uiso   1.00
O511   O     0.82307   0.45725   0.77302   0.00000  Uiso   1.00
O512   O     0.54275   0.32307   0.22698   0.00000  Uiso   1.00
O513   O     0.75000   0.46964   0.33755   0.00000  Uiso   1.00
O514   O     0.95724   0.17693   0.77302   0.00000  Uiso   1.00
O515   O     0.82307   0.45725   0.22698   0.00000  Uiso   1.00
O516   O     0.67692   0.04276   0.77302   0.00000  Uiso   1.00
O517   O     0.75000   0.03037   0.66245   0.00000  Uiso   1.00
O518   O     0.53036   0.25000   0.33755   0.00000  Uiso   1.00
O519   O     0.96963   0.25000   0.66245   0.00000  Uiso   1.00
O520   O     0.75000   0.03037   0.33755   0.00000  Uiso   1.00
Zn521  Zn    0.70659   0.00000   0.21735   0.00000  Uiso   1.00
Zn522  Zn    0.54340   0.25000   0.28265   0.00000  Uiso   1.00
Zn523  Zn    0.75000   0.45660   0.71735   0.00000  Uiso   1.00
Zn524  Zn    0.75000   0.04341   0.28265   0.00000  Uiso   1.00
Zn525  Zn    0.54340   0.25000   0.71735   0.00000  Uiso   1.00
Zn526  Zn    0.95659   0.25000   0.28265   0.00000  Uiso   1.00
Zn527  Zn    0.75000   0.04341   0.71735   0.00000  Uiso   1.00
Zn528  Zn    0.75000   0.45660   0.28265   0.00000  Uiso   1.00
Zn529  Zn    0.79340   0.00000   0.78265   0.00000  Uiso   1.00
Zn530  Zn    0.50000   0.20659   0.21735   0.00000  Uiso   1.00
Zn531  Zn    0.50000   0.29340   0.78265   0.00000  Uiso   1.00
Zn532  Zn    0.79340   0.00000   0.21735   0.00000  Uiso   1.00
Zn533  Zn    0.70659  -0.00000   0.78265   0.00000  Uiso   1.00
Zn534  Zn    0.50000   0.29340   0.21735   0.00000  Uiso   1.00
Zn535  Zn    0.50000   0.20659   0.78265   0.00000  Uiso   1.00
Zn536  Zn    0.95659   0.25000   0.71735   0.00000  Uiso   1.00
Br537  Br    0.46289   0.81938   0.38892   0.00000  Uiso   1.00
Br538  Br    0.21288   0.93063   0.11108   0.00000  Uiso   1.00
Br539  Br    0.43059   0.78705   0.88892   0.00000  Uiso   1.00
Br540  Br    0.06941   0.71295   0.11108   0.00000  Uiso   1.00
Br541  Br    0.21288   0.93063   0.88892   0.00000  Uiso   1.00
Br542  Br    0.28712   0.56937   0.11108   0.00000  Uiso   1.00
Br543  Br    0.06941   0.71295   0.88892   0.00000  Uiso   1.00
Br544  Br    0.43059   0.78705   0.11108   0.00000  Uiso   1.00
Br545  Br    0.03711   0.68062   0.61108   0.00000  Uiso   1.00
Br546  Br    0.18060   0.96293   0.38892   0.00000  Uiso   1.00
Br547  Br    0.31940   0.53707   0.61108   0.00000  Uiso   1.00
Br548  Br    0.03711   0.68062   0.38892   0.00000  Uiso   1.00
Br549  Br    0.46289   0.81938   0.61108   0.00000  Uiso   1.00
Br550  Br    0.31940   0.53707   0.38892   0.00000  Uiso   1.00
Br551  Br    0.18060   0.96293   0.61108   0.00000  Uiso   1.00
Br552  Br    0.28712   0.56937   0.88892   0.00000  Uiso   1.00
C553   C     0.48356   0.77908   0.41807   0.00000  Uiso   1.00
C554   C     0.23355   0.97093   0.08193   0.00000  Uiso   1.00
C555   C     0.22092   0.98339   0.54107   0.00000  Uiso   1.00
C556   C     0.48337   0.77907   0.45893   0.00000  Uiso   1.00
C557   C     0.01663   0.72093   0.54107   0.00000  Uiso   1.00
C558   C     0.22092   0.98339   0.45893   0.00000  Uiso   1.00
C559   C     0.27908   0.51661   0.54107   0.00000  Uiso   1.00
C560   C     0.23336   0.97093   0.95893   0.00000  Uiso   1.00
C561   C     0.26663   0.52907   0.04107   0.00000  Uiso   1.00
C562   C     0.02909   0.73340   0.95893   0.00000  Uiso   1.00
C563   C     0.47091   0.76660   0.04107   0.00000  Uiso   1.00
C564   C     0.26663   0.52907   0.95893   0.00000  Uiso   1.00
C565   C     0.47091   0.76642   0.91807   0.00000  Uiso   1.00
C566   C     0.23336   0.97093   0.04107   0.00000  Uiso   1.00
C567   C     0.47091   0.76660   0.95893   0.00000  Uiso   1.00
C568   C     0.02909   0.73340   0.04107   0.00000  Uiso   1.00
C569   C     0.09814   0.84814   0.25000   0.00000  Uiso   1.00
C570   C     0.40186   0.65186   0.75000   0.00000  Uiso   1.00
C571   C     0.15186   0.59814   0.25000   0.00000  Uiso   1.00
C572   C     0.34814   0.90186   0.75000   0.00000  Uiso   1.00
C573   C     0.40186   0.65186   0.25000   0.00000  Uiso   1.00
C574   C     0.09814   0.84814   0.75000   0.00000  Uiso   1.00
C575   C     0.34814   0.90186   0.25000   0.00000  Uiso   1.00
C576   C     0.02909   0.73358   0.08193   0.00000  Uiso   1.00
C577   C     0.15186   0.59814   0.75000   0.00000  Uiso   1.00
C578   C     0.09813   0.65187   0.75000   0.00000  Uiso   1.00
C579   C     0.40187   0.84813   0.25000   0.00000  Uiso   1.00
C580   C     0.15187   0.90187   0.75000   0.00000  Uiso   1.00
C581   C     0.34813   0.59813   0.25000   0.00000  Uiso   1.00
C582   C     0.40187   0.84813   0.75000   0.00000  Uiso   1.00
C583   C     0.09813   0.65187   0.25000   0.00000  Uiso   1.00
C584   C     0.34813   0.59813   0.75000   0.00000  Uiso   1.00
C585   C     0.15187   0.90187   0.25000   0.00000  Uiso   1.00
C586   C    -0.00000   0.75000   0.47942   0.00000  Uiso   1.00
C587   C     0.23355   0.97093   0.91807   0.00000  Uiso   1.00
C588   C    -0.00000   0.75000   0.52058   0.00000  Uiso   1.00
C589   C     0.25000   0.50000   0.47942   0.00000  Uiso   1.00
C590   C     0.25000   0.50000   0.52058   0.00000  Uiso   1.00
C591   C     0.25000   0.50000   0.97942   0.00000  Uiso   1.00
C592   C     0.25000   0.50000   0.02058   0.00000  Uiso   1.00
C593   C     0.00000   0.75000   0.97942   0.00000  Uiso   1.00
C594   C    -0.00000   0.75000   0.02058   0.00000  Uiso   1.00
C595   C     0.26645   0.52907   0.08193   0.00000  Uiso   1.00
C596   C     0.02909   0.73358   0.91807   0.00000  Uiso   1.00
C597   C     0.47091   0.76642   0.08193   0.00000  Uiso   1.00
C598   C    -0.00000   0.75000   0.39804   0.00000  Uiso   1.00
C599   C     0.00000   0.75000   0.60196   0.00000  Uiso   1.00
C600   C     0.25000   0.50000   0.39804   0.00000  Uiso   1.00
C601   C     0.01644   0.72092   0.58193   0.00000  Uiso   1.00
C602   C     0.25000   0.50000   0.60196   0.00000  Uiso   1.00
C603   C     0.25000   0.50000   0.89804   0.00000  Uiso   1.00
C604   C     0.25000   0.50000   0.10196   0.00000  Uiso   1.00
C605   C    -0.00000   0.75000   0.89803   0.00000  Uiso   1.00
C606   C     0.00000   0.75000   0.10196   0.00000  Uiso   1.00
C607   C     0.03300   0.69246   0.47984   0.00000  Uiso   1.00
C608   C     0.46700   0.80754   0.52016   0.00000  Uiso   1.00
C609   C     0.30756   0.53296   0.47984   0.00000  Uiso   1.00
C610   C     0.19244   0.96704   0.52016   0.00000  Uiso   1.00
C611   C     0.46700   0.80754   0.47984   0.00000  Uiso   1.00
C612   C     0.22091   0.98357   0.41807   0.00000  Uiso   1.00
C613   C     0.03300   0.69246   0.52016   0.00000  Uiso   1.00
C614   C     0.19244   0.96704   0.47984   0.00000  Uiso   1.00
C615   C     0.30756   0.53296   0.52016   0.00000  Uiso   1.00
C616   C     0.21699   0.94247   0.97984   0.00000  Uiso   1.00
C617   C     0.28301   0.55753   0.02016   0.00000  Uiso   1.00
C618   C     0.05757   0.71706   0.97984   0.00000  Uiso   1.00
C619   C     0.44243   0.78294   0.02016   0.00000  Uiso   1.00
C620   C     0.28301   0.55753   0.97984   0.00000  Uiso   1.00
C621   C     0.21699   0.94247   0.02016   0.00000  Uiso   1.00
C622   C     0.44243   0.78294   0.97984   0.00000  Uiso   1.00
C623   C     0.27909   0.51643   0.58193   0.00000  Uiso   1.00
C624   C     0.05757   0.71706   0.02016   0.00000  Uiso   1.00
C625   C     0.25000   0.50000   0.35577   0.00000  Uiso   1.00
C626   C     0.25000   0.50000   0.64423   0.00000  Uiso   1.00
C627   C    -0.00000   0.75000   0.35577   0.00000  Uiso   1.00
C628   C    -0.00000   0.75000   0.64423   0.00000  Uiso   1.00
C629   C    -0.00000   0.75000   0.85577   0.00000  Uiso   1.00
C630   C    -0.00000   0.75000   0.14423   0.00000  Uiso   1.00
C631   C     0.25000   0.50000   0.85577   0.00000  Uiso   1.00
C632   C     0.25000   0.50000   0.14423   0.00000  Uiso   1.00
C633   C     0.17993   0.57007   0.25000   0.00000  Uiso   1.00
C634   C     0.01644   0.72092   0.41807   0.00000  Uiso   1.00
C635   C     0.32007   0.92993   0.75000   0.00000  Uiso   1.00
C636   C     0.42993   0.67993   0.25000   0.00000  Uiso   1.00
C637   C     0.07007   0.82007   0.75000   0.00000  Uiso   1.00
C638   C     0.32007   0.92993   0.25000   0.00000  Uiso   1.00
C639   C     0.17993   0.57007   0.75000   0.00000  Uiso   1.00
C640   C     0.07007   0.82007   0.25000   0.00000  Uiso   1.00
C641   C     0.42993   0.67993   0.75000   0.00000  Uiso   1.00
C642   C     0.17993   0.92993   0.75000   0.00000  Uiso   1.00
C643   C     0.32007   0.57007   0.25000   0.00000  Uiso   1.00
C644   C     0.42993   0.82007   0.75000   0.00000  Uiso   1.00
C645   C     0.48356   0.77908   0.58193   0.00000  Uiso   1.00
C646   C     0.07007   0.67993   0.25000   0.00000  Uiso   1.00
C647   C     0.32007   0.57007   0.75000   0.00000  Uiso   1.00
C648   C     0.17993   0.92993   0.25000   0.00000  Uiso   1.00
C649   C     0.07007   0.67993   0.75000   0.00000  Uiso   1.00
C650   C     0.42993   0.82007   0.25000   0.00000  Uiso   1.00
C651   C     0.12225   0.90448   0.22440   0.00000  Uiso   1.00
C652   C     0.37775   0.59552   0.77560   0.00000  Uiso   1.00
C653   C     0.09552   0.62225   0.22440   0.00000  Uiso   1.00
C654   C     0.40448   0.87775   0.77560   0.00000  Uiso   1.00
C655   C     0.37775   0.59552   0.22440   0.00000  Uiso   1.00
C656   C     0.27909   0.51643   0.41807   0.00000  Uiso   1.00
C657   C     0.12225   0.90448   0.77560   0.00000  Uiso   1.00
C658   C     0.40448   0.87775   0.22440   0.00000  Uiso   1.00
C659   C     0.09552   0.62225   0.77560   0.00000  Uiso   1.00
C660   C     0.12224   0.59552   0.77559   0.00000  Uiso   1.00
C661   C     0.37776   0.90448   0.22440   0.00000  Uiso   1.00
C662   C     0.09552   0.87776   0.77559   0.00000  Uiso   1.00
C663   C     0.40448   0.62224   0.22441   0.00000  Uiso   1.00
C664   C     0.37776   0.90448   0.77559   0.00000  Uiso   1.00
C665   C     0.12224   0.59552   0.22441   0.00000  Uiso   1.00
C666   C     0.40448   0.62224   0.77559   0.00000  Uiso   1.00
C667   C     0.22091   0.98357   0.58193   0.00000  Uiso   1.00
C668   C     0.09552   0.87776   0.22441   0.00000  Uiso   1.00
C669   C     0.37224   0.65448   0.72441   0.00000  Uiso   1.00
C670   C     0.12776   0.84552   0.27559   0.00000  Uiso   1.00
C671   C     0.34552   0.87224   0.72441   0.00000  Uiso   1.00
C672   C     0.15448   0.62776   0.27559   0.00000  Uiso   1.00
C673   C     0.12776   0.84552   0.72441   0.00000  Uiso   1.00
C674   C     0.37224   0.65448   0.27559   0.00000  Uiso   1.00
C675   C     0.15448   0.62776   0.72440   0.00000  Uiso   1.00
C676   C     0.34552   0.87224   0.27559   0.00000  Uiso   1.00
C677   C     0.37225   0.84552   0.27560   0.00000  Uiso   1.00
C678   C     0.26645   0.52907   0.91807   0.00000  Uiso   1.00
C679   C     0.12775   0.65448   0.72440   0.00000  Uiso   1.00
C680   C     0.34552   0.62775   0.27560   0.00000  Uiso   1.00
C681   C     0.15448   0.87225   0.72440   0.00000  Uiso   1.00
C682   C     0.12775   0.65448   0.27560   0.00000  Uiso   1.00
C683   C     0.37225   0.84552   0.72440   0.00000  Uiso   1.00
C684   C     0.15448   0.87225   0.27560   0.00000  Uiso   1.00
C685   C     0.34552   0.62775   0.72440   0.00000  Uiso   1.00
C686   C     0.01663   0.72093   0.45893   0.00000  Uiso   1.00
C687   C     0.48337   0.77907   0.54107   0.00000  Uiso   1.00
C688   C     0.27908   0.51661   0.45893   0.00000  Uiso   1.00
H689   H     0.04614   0.66980   0.46548   0.00000  Uiso   1.00
H690   H     0.29616   0.58019   0.03452   0.00000  Uiso   1.00
H691   H     0.08025   0.70394   0.96548   0.00000  Uiso   1.00
H692   H     0.41975   0.79606   0.03452   0.00000  Uiso   1.00
H693   H     0.29616   0.58019   0.96548   0.00000  Uiso   1.00
H694   H     0.20384   0.91981   0.03452   0.00000  Uiso   1.00
H695   H     0.41975   0.79606   0.96548   0.00000  Uiso   1.00
H696   H     0.08025   0.70394   0.03452   0.00000  Uiso   1.00
H697   H     0.11970   0.92712   0.20436   0.00000  Uiso   1.00
H698   H     0.38030   0.57288   0.79564   0.00000  Uiso   1.00
H699   H     0.07288   0.61970   0.20435   0.00000  Uiso   1.00
H700   H     0.45386   0.83020   0.53452   0.00000  Uiso   1.00
H701   H     0.42712   0.88030   0.79565   0.00000  Uiso   1.00
H702   H     0.38030   0.57288   0.20435   0.00000  Uiso   1.00
H703   H     0.11970   0.92712   0.79564   0.00000  Uiso   1.00
H704   H     0.42711   0.88030   0.20435   0.00000  Uiso   1.00
H705   H     0.07289   0.61971   0.79565   0.00000  Uiso   1.00
H706   H     0.11968   0.57288   0.79563   0.00000  Uiso   1.00
H707   H     0.38032   0.92712   0.20437   0.00000  Uiso   1.00
H708   H     0.07288   0.88032   0.79563   0.00000  Uiso   1.00
H709   H     0.42712   0.61968   0.20437   0.00000  Uiso   1.00
H710   H     0.38032   0.92712   0.79563   0.00000  Uiso   1.00
H711   H     0.33024   0.54609   0.46548   0.00000  Uiso   1.00
H712   H     0.11968   0.57288   0.20437   0.00000  Uiso   1.00
H713   H     0.42712   0.61968   0.79563   0.00000  Uiso   1.00
H714   H     0.07288   0.88032   0.20437   0.00000  Uiso   1.00
H715   H     0.36968   0.67712   0.70437   0.00000  Uiso   1.00
H716   H     0.13032   0.82288   0.29563   0.00000  Uiso   1.00
H717   H     0.32288   0.86968   0.70437   0.00000  Uiso   1.00
H718   H     0.17712   0.63032   0.29563   0.00000  Uiso   1.00
H719   H     0.13032   0.82288   0.70437   0.00000  Uiso   1.00
H720   H     0.36968   0.67712   0.29563   0.00000  Uiso   1.00
H721   H     0.17712   0.63032   0.70437   0.00000  Uiso   1.00
H722   H     0.16976   0.95391   0.53452   0.00000  Uiso   1.00
H723   H     0.32288   0.86968   0.29563   0.00000  Uiso   1.00
H724   H     0.36971   0.82289   0.29565   0.00000  Uiso   1.00
H725   H     0.13029   0.67711   0.70435   0.00000  Uiso   1.00
H726   H     0.32288   0.63030   0.29564   0.00000  Uiso   1.00
H727   H     0.17712   0.86970   0.70435   0.00000  Uiso   1.00
H728   H     0.13030   0.67712   0.29565   0.00000  Uiso   1.00
H729   H     0.36970   0.82288   0.70435   0.00000  Uiso   1.00
H730   H     0.17712   0.86970   0.29565   0.00000  Uiso   1.00
H731   H     0.32288   0.63030   0.70435   0.00000  Uiso   1.00
H732   H     0.45386   0.83020   0.46548   0.00000  Uiso   1.00
H733   H     0.04614   0.66980   0.53452   0.00000  Uiso   1.00
H734   H     0.16976   0.95391   0.46548   0.00000  Uiso   1.00
H735   H     0.33024   0.54609   0.53452   0.00000  Uiso   1.00
H736   H     0.20384   0.91981   0.96548   0.00000  Uiso   1.00
O737   O     0.25000   0.50000   0.25000   0.00000  Uiso   1.00
O738   O     0.25000   0.96964   0.66245   0.00000  Uiso   1.00
O739   O     0.46963   0.75000   0.33755   0.00000  Uiso   1.00
O740   O     0.03036   0.75000   0.66245   0.00000  Uiso   1.00
O741   O     0.00000   0.71963   0.83755   0.00000  Uiso   1.00
O742   O     0.00000   0.78036   0.16245   0.00000  Uiso   1.00
O743   O     0.28036   0.50000   0.83755   0.00000  Uiso   1.00
O744   O     0.21963   0.50000   0.16245   0.00000  Uiso   1.00
O745   O     0.00000   0.78036   0.83755   0.00000  Uiso   1.00
O746   O     0.00000   0.71963   0.16245   0.00000  Uiso   1.00
O747   O     0.21963   0.50000   0.83755   0.00000  Uiso   1.00
O748   O     0.25000   0.50000   0.75000   0.00000  Uiso   1.00
O749   O     0.28036   0.50000   0.16245   0.00000  Uiso   1.00
O750   O     0.20724   0.57308   0.27302   0.00000  Uiso   1.00
O751   O     0.29275   0.92693   0.72698   0.00000  Uiso   1.00
O752   O     0.42692   0.70725   0.27302   0.00000  Uiso   1.00
O753   O     0.07307   0.79275   0.72698   0.00000  Uiso   1.00
O754   O     0.29275   0.92693   0.27302   0.00000  Uiso   1.00
O755   O     0.20724   0.57308   0.72698   0.00000  Uiso   1.00
O756   O     0.07307   0.79275   0.27302   0.00000  Uiso   1.00
O757   O     0.42692   0.70725   0.72698   0.00000  Uiso   1.00
O758   O     0.20724   0.92693   0.72698   0.00000  Uiso   1.00
O759   O    -0.00000   0.75000   0.25000   0.00000  Uiso   1.00
O760   O     0.29275   0.57308   0.27302   0.00000  Uiso   1.00
O761   O     0.42692   0.79276   0.72698   0.00000  Uiso   1.00
O762   O     0.07307   0.70724   0.27302   0.00000  Uiso   1.00
O763   O     0.29275   0.57308   0.72698   0.00000  Uiso   1.00
O764   O     0.20724   0.92693   0.27302   0.00000  Uiso   1.00
O765   O     0.07307   0.70724   0.72698   0.00000  Uiso   1.00
O766   O     0.42692   0.79276   0.27302   0.00000  Uiso   1.00
O767   O     0.45724   0.82308   0.77302   0.00000  Uiso   1.00
O768   O     0.04275   0.67692   0.22698   0.00000  Uiso   1.00
O769   O     0.17692   0.95724   0.77302   0.00000  Uiso   1.00
O770   O     0.00000   0.75000   0.75000   0.00000  Uiso   1.00
O771   O     0.32307   0.54276   0.22698   0.00000  Uiso   1.00
O772   O     0.04275   0.67692   0.77302   0.00000  Uiso   1.00
O773   O     0.45724   0.82308   0.22698   0.00000  Uiso   1.00
O774   O     0.32307   0.54276   0.77302   0.00000  Uiso   1.00
O775   O     0.17692   0.95724   0.22698   0.00000  Uiso   1.00
O776   O     0.45724   0.67693   0.22698   0.00000  Uiso   1.00
O777   O     0.04275   0.82307   0.77302   0.00000  Uiso   1.00
O778   O     0.17692   0.54276   0.22698   0.00000  Uiso   1.00
O779   O     0.32307   0.95725   0.77302   0.00000  Uiso   1.00
O780   O     0.04275   0.82307   0.22698   0.00000  Uiso   1.00
O781   O     0.25000   0.96964   0.33755   0.00000  Uiso   1.00
O782   O     0.45724   0.67693   0.77302   0.00000  Uiso   1.00
O783   O     0.32307   0.95725   0.22698   0.00000  Uiso   1.00
O784   O     0.17692   0.54276   0.77302   0.00000  Uiso   1.00
O785   O     0.25000   0.53037   0.66245   0.00000  Uiso   1.00
O786   O     0.03036   0.75000   0.33755   0.00000  Uiso   1.00
O787   O     0.46963   0.75000   0.66245   0.00000  Uiso   1.00
O788   O     0.25000   0.53037   0.33755   0.00000  Uiso   1.00
Zn789  Zn    0.20659   0.50000   0.21735   0.00000  Uiso   1.00
Zn790  Zn    0.04340   0.75000   0.28265   0.00000  Uiso   1.00
Zn791  Zn    0.25000   0.95660   0.71735   0.00000  Uiso   1.00
Zn792  Zn    0.25000   0.54341   0.28265   0.00000  Uiso   1.00
Zn793  Zn    0.04340   0.75000   0.71735   0.00000  Uiso   1.00
Zn794  Zn    0.45659   0.75000   0.28265   0.00000  Uiso   1.00
Zn795  Zn    0.25000   0.54341   0.71735   0.00000  Uiso   1.00
Zn796  Zn    0.25000   0.95660   0.28265   0.00000  Uiso   1.00
Zn797  Zn    0.29340   0.50000   0.78265   0.00000  Uiso   1.00
Zn798  Zn    0.00000   0.70659   0.21735   0.00000  Uiso   1.00
Zn799  Zn    0.00000   0.79340   0.78265   0.00000  Uiso   1.00
Zn800  Zn    0.29340   0.50000   0.21735   0.00000  Uiso   1.00
Zn801  Zn    0.20659   0.50000   0.78265   0.00000  Uiso   1.00
Zn802  Zn    0.00000   0.79340   0.21735   0.00000  Uiso   1.00
Zn803  Zn    0.00000   0.70659   0.78265   0.00000  Uiso   1.00
Zn804  Zn    0.45659   0.75000   0.71735   0.00000  Uiso   1.00
Br805  Br    0.96289   0.81938   0.38892   0.00000  Uiso   1.00
Br806  Br    0.71288   0.93063   0.11108   0.00000  Uiso   1.00
Br807  Br    0.93059   0.78705   0.88892   0.00000  Uiso   1.00
Br808  Br    0.56941   0.71295   0.11108   0.00000  Uiso   1.00
Br809  Br    0.71288   0.93063   0.88892   0.00000  Uiso   1.00
Br810  Br    0.78712   0.56937   0.11108   0.00000  Uiso   1.00
Br811  Br    0.56941   0.71295   0.88892   0.00000  Uiso   1.00
Br812  Br    0.93059   0.78705   0.11108   0.00000  Uiso   1.00
Br813  Br    0.53711   0.68062   0.61108   0.00000  Uiso   1.00
Br814  Br    0.68060   0.96293   0.38892   0.00000  Uiso   1.00
Br815  Br    0.81940   0.53707   0.61108   0.00000  Uiso   1.00
Br816  Br    0.53711   0.68062   0.38892   0.00000  Uiso   1.00
Br817  Br    0.96289   0.81938   0.61108   0.00000  Uiso   1.00
Br818  Br    0.81940   0.53707   0.38892   0.00000  Uiso   1.00
Br819  Br    0.68060   0.96293   0.61108   0.00000  Uiso   1.00
Br820  Br    0.78712   0.56937   0.88892   0.00000  Uiso   1.00
C821   C     0.98356   0.77908   0.41807   0.00000  Uiso   1.00
C822   C     0.73355   0.97093   0.08193   0.00000  Uiso   1.00
C823   C     0.72092   0.98339   0.54107   0.00000  Uiso   1.00
C824   C     0.98337   0.77907   0.45893   0.00000  Uiso   1.00
C825   C     0.51663   0.72093   0.54107   0.00000  Uiso   1.00
C826   C     0.72092   0.98339   0.45893   0.00000  Uiso   1.00
C827   C     0.77908   0.51661   0.54107   0.00000  Uiso   1.00
C828   C     0.73336   0.97093   0.95893   0.00000  Uiso   1.00
C829   C     0.76663   0.52907   0.04107   0.00000  Uiso   1.00
C830   C     0.52909   0.73340   0.95893   0.00000  Uiso   1.00
C831   C     0.97091   0.76660   0.04107   0.00000  Uiso   1.00
C832   C     0.76663   0.52907   0.95893   0.00000  Uiso   1.00
C833   C     0.97091   0.76642   0.91807   0.00000  Uiso   1.00
C834   C     0.73336   0.97093   0.04107   0.00000  Uiso   1.00
C835   C     0.97091   0.76660   0.95893   0.00000  Uiso   1.00
C836   C     0.52909   0.73340   0.04107   0.00000  Uiso   1.00
C837   C     0.59814   0.84814   0.25000   0.00000  Uiso   1.00
C838   C     0.90186   0.65186   0.75000   0.00000  Uiso   1.00
C839   C     0.65186   0.59814   0.25000   0.00000  Uiso   1.00
C840   C     0.84814   0.90186   0.75000   0.00000  Uiso   1.00
C841   C     0.90186   0.65186   0.25000   0.00000  Uiso   1.00
C842   C     0.59814   0.84814   0.75000   0.00000  Uiso   1.00
C843   C     0.84814   0.90186   0.25000   0.00000  Uiso   1.00
C844   C     0.52909   0.73358   0.08193   0.00000  Uiso   1.00
C845   C     0.65186   0.59814   0.75000   0.00000  Uiso   1.00
C846   C     0.59813   0.65187   0.75000   0.00000  Uiso   1.00
C847   C     0.90187   0.84813   0.25000   0.00000  Uiso   1.00
C848   C     0.65187   0.90187   0.75000   0.00000  Uiso   1.00
C849   C     0.84813   0.59813   0.25000   0.00000  Uiso   1.00
C850   C     0.90187   0.84813   0.75000   0.00000  Uiso   1.00
C851   C     0.59813   0.65187   0.25000   0.00000  Uiso   1.00
C852   C     0.84813   0.59813   0.75000   0.00000  Uiso   1.00
C853   C     0.65187   0.90187   0.25000   0.00000  Uiso   1.00
C854   C     0.50000   0.75000   0.47942   0.00000  Uiso   1.00
C855   C     0.73355   0.97093   0.91807   0.00000  Uiso   1.00
C856   C     0.50000   0.75000   0.52058   0.00000  Uiso   1.00
C857   C     0.75000   0.50000   0.47942   0.00000  Uiso   1.00
C858   C     0.75000   0.50000   0.52058   0.00000  Uiso   1.00
C859   C     0.75000   0.50000   0.97942   0.00000  Uiso   1.00
C860   C     0.75000   0.50000   0.02058   0.00000  Uiso   1.00
C861   C     0.50000   0.75000   0.97942   0.00000  Uiso   1.00
C862   C     0.50000   0.75000   0.02058   0.00000  Uiso   1.00
C863   C     0.76645   0.52907   0.08193   0.00000  Uiso   1.00
C864   C     0.52909   0.73358   0.91807   0.00000  Uiso   1.00
C865   C     0.97091   0.76642   0.08193   0.00000  Uiso   1.00
C866   C     0.50000   0.75000   0.39804   0.00000  Uiso   1.00
C867   C     0.50000   0.75000   0.60196   0.00000  Uiso   1.00
C868   C     0.75000   0.50000   0.39804   0.00000  Uiso   1.00
C869   C     0.51644   0.72092   0.58193   0.00000  Uiso   1.00
C870   C     0.75000   0.50000   0.60196   0.00000  Uiso   1.00
C871   C     0.75000   0.50000   0.89804   0.00000  Uiso   1.00
C872   C     0.75000   0.50000   0.10196   0.00000  Uiso   1.00
C873   C     0.50000   0.75000   0.89803   0.00000  Uiso   1.00
C874   C     0.50000   0.75000   0.10196   0.00000  Uiso   1.00
C875   C     0.53300   0.69246   0.47984   0.00000  Uiso   1.00
C876   C     0.96700   0.80754   0.52016   0.00000  Uiso   1.00
C877   C     0.80756   0.53296   0.47984   0.00000  Uiso   1.00
C878   C     0.69244   0.96704   0.52016   0.00000  Uiso   1.00
C879   C     0.96700   0.80754   0.47984   0.00000  Uiso   1.00
C880   C     0.72091   0.98357   0.41807   0.00000  Uiso   1.00
C881   C     0.53300   0.69246   0.52016   0.00000  Uiso   1.00
C882   C     0.69244   0.96704   0.47984   0.00000  Uiso   1.00
C883   C     0.80756   0.53296   0.52016   0.00000  Uiso   1.00
C884   C     0.71699   0.94247   0.97984   0.00000  Uiso   1.00
C885   C     0.78301   0.55753   0.02016   0.00000  Uiso   1.00
C886   C     0.55757   0.71706   0.97984   0.00000  Uiso   1.00
C887   C     0.94243   0.78294   0.02016   0.00000  Uiso   1.00
C888   C     0.78301   0.55753   0.97984   0.00000  Uiso   1.00
C889   C     0.71699   0.94247   0.02016   0.00000  Uiso   1.00
C890   C     0.94243   0.78294   0.97984   0.00000  Uiso   1.00
C891   C     0.77909   0.51643   0.58193   0.00000  Uiso   1.00
C892   C     0.55757   0.71706   0.02016   0.00000  Uiso   1.00
C893   C     0.75000   0.50000   0.35577   0.00000  Uiso   1.00
C894   C     0.75000   0.50000   0.64423   0.00000  Uiso   1.00
C895   C     0.50000   0.75000   0.35577   0.00000  Uiso   1.00
C896   C     0.50000   0.75000   0.64423   0.00000  Uiso   1.00
C897   C     0.50000   0.75000   0.85577   0.00000  Uiso   1.00
C898   C     0.50000   0.75000   0.14423   0.00000  Uiso   1.00
C899   C     0.75000   0.50000   0.85577   0.00000  Uiso   1.00
C900   C     0.75000   0.50000   0.14423   0.00000  Uiso   1.00
C901   C     0.67993   0.57007   0.25000   0.00000  Uiso   1.00
C902   C     0.51644   0.72092   0.41807   0.00000  Uiso   1.00
C903   C     0.82007   0.92993   0.75000   0.00000  Uiso   1.00
C904   C     0.92993   0.67993   0.25000   0.00000  Uiso   1.00
C905   C     0.57007   0.82007   0.75000   0.00000  Uiso   1.00
C906   C     0.82007   0.92993   0.25000   0.00000  Uiso   1.00
C907   C     0.67993   0.57007   0.75000   0.00000  Uiso   1.00
C908   C     0.57007   0.82007   0.25000   0.00000  Uiso   1.00
C909   C     0.92993   0.67993   0.75000   0.00000  Uiso   1.00
C910   C     0.67993   0.92993   0.75000   0.00000  Uiso   1.00
C911   C     0.82007   0.57007   0.25000   0.00000  Uiso   1.00
C912   C     0.92993   0.82007   0.75000   0.00000  Uiso   1.00
C913   C     0.98356   0.77908   0.58193   0.00000  Uiso   1.00
C914   C     0.57007   0.67993   0.25000   0.00000  Uiso   1.00
C915   C     0.82007   0.57007   0.75000   0.00000  Uiso   1.00
C916   C     0.67993   0.92993   0.25000   0.00000  Uiso   1.00
C917   C     0.57007   0.67993   0.75000   0.00000  Uiso   1.00
C918   C     0.92993   0.82007   0.25000   0.00000  Uiso   1.00
C919   C     0.62225   0.90448   0.22440   0.00000  Uiso   1.00
C920   C     0.87775   0.59552   0.77560   0.00000  Uiso   1.00
C921   C     0.59552   0.62225   0.22440   0.00000  Uiso   1.00
C922   C     0.90448   0.87775   0.77560   0.00000  Uiso   1.00
C923   C     0.87775   0.59552   0.22440   0.00000  Uiso   1.00
C924   C     0.77909   0.51643   0.41807   0.00000  Uiso   1.00
C925   C     0.62225   0.90448   0.77560   0.00000  Uiso   1.00
C926   C     0.90448   0.87775   0.22440   0.00000  Uiso   1.00
C927   C     0.59552   0.62225   0.77560   0.00000  Uiso   1.00
C928   C     0.62224   0.59552   0.77559   0.00000  Uiso   1.00
C929   C     0.87776   0.90448   0.22440   0.00000  Uiso   1.00
C930   C     0.59552   0.87776   0.77559   0.00000  Uiso   1.00
C931   C     0.90448   0.62224   0.22441   0.00000  Uiso   1.00
C932   C     0.87776   0.90448   0.77559   0.00000  Uiso   1.00
C933   C     0.62224   0.59552   0.22441   0.00000  Uiso   1.00
C934   C     0.90448   0.62224   0.77559   0.00000  Uiso   1.00
C935   C     0.72091   0.98357   0.58193   0.00000  Uiso   1.00
C936   C     0.59552   0.87776   0.22441   0.00000  Uiso   1.00
C937   C     0.87224   0.65448   0.72441   0.00000  Uiso   1.00
C938   C     0.62776   0.84552   0.27559   0.00000  Uiso   1.00
C939   C     0.84552   0.87224   0.72441   0.00000  Uiso   1.00
C940   C     0.65448   0.62776   0.27559   0.00000  Uiso   1.00
C941   C     0.62776   0.84552   0.72441   0.00000  Uiso   1.00
C942   C     0.87224   0.65448   0.27559   0.00000  Uiso   1.00
C943   C     0.65448   0.62776   0.72440   0.00000  Uiso   1.00
C944   C     0.84552   0.87224   0.27559   0.00000  Uiso   1.00
C945   C     0.87225   0.84552   0.27560   0.00000  Uiso   1.00
C946   C     0.76645   0.52907   0.91807   0.00000  Uiso   1.00
C947   C     0.62775   0.65448   0.72440   0.00000  Uiso   1.00
C948   C     0.84552   0.62775   0.27560   0.00000  Uiso   1.00
C949   C     0.65448   0.87225   0.72440   0.00000  Uiso   1.00
C950   C     0.62775   0.65448   0.27560   0.00000  Uiso   1.00
C951   C     0.87225   0.84552   0.72440   0.00000  Uiso   1.00
C952   C     0.65448   0.87225   0.27560   0.00000  Uiso   1.00
C953   C     0.84552   0.62775   0.72440   0.00000  Uiso   1.00
C954   C     0.51663   0.72093   0.45893   0.00000  Uiso   1.00
C955   C     0.98337   0.77907   0.54107   0.00000  Uiso   1.00
C956   C     0.77908   0.51661   0.45893   0.00000  Uiso   1.00
H957   H     0.54614   0.66980   0.46548   0.00000  Uiso   1.00
H958   H     0.79616   0.58019   0.03452   0.00000  Uiso   1.00
H959   H     0.58025   0.70394   0.96548   0.00000  Uiso   1.00
H960   H     0.91975   0.79606   0.03452   0.00000  Uiso   1.00
H961   H     0.79616   0.58019   0.96548   0.00000  Uiso   1.00
H962   H     0.70384   0.91981   0.03452   0.00000  Uiso   1.00
H963   H     0.91975   0.79606   0.96548   0.00000  Uiso   1.00
H964   H     0.58025   0.70394   0.03452   0.00000  Uiso   1.00
H965   H     0.61970   0.92712   0.20436   0.00000  Uiso   1.00
H966   H     0.88030   0.57288   0.79564   0.00000  Uiso   1.00
H967   H     0.57288   0.61970   0.20435   0.00000  Uiso   1.00
H968   H     0.95386   0.83020   0.53452   0.00000  Uiso   1.00
H969   H     0.92712   0.88030   0.79565   0.00000  Uiso   1.00
H970   H     0.88030   0.57288   0.20435   0.00000  Uiso   1.00
H971   H     0.61970   0.92712   0.79564   0.00000  Uiso   1.00
H972   H     0.92711   0.88030   0.20435   0.00000  Uiso   1.00
H973   H     0.57289   0.61971   0.79565   0.00000  Uiso   1.00
H974   H     0.61968   0.57288   0.79563   0.00000  Uiso   1.00
H975   H     0.88032   0.92712   0.20437   0.00000  Uiso   1.00
H976   H     0.57288   0.88032   0.79563   0.00000  Uiso   1.00
H977   H     0.92712   0.61968   0.20437   0.00000  Uiso   1.00
H978   H     0.88032   0.92712   0.79563   0.00000  Uiso   1.00
H979   H     0.83024   0.54609   0.46548   0.00000  Uiso   1.00
H980   H     0.61968   0.57288   0.20437   0.00000  Uiso   1.00
H981   H     0.92712   0.61968   0.79563   0.00000  Uiso   1.00
H982   H     0.57288   0.88032   0.20437   0.00000  Uiso   1.00
H983   H     0.86968   0.67712   0.70437   0.00000  Uiso   1.00
H984   H     0.63032   0.82288   0.29563   0.00000  Uiso   1.00
H985   H     0.82288   0.86968   0.70437   0.00000  Uiso   1.00
H986   H     0.67712   0.63032   0.29563   0.00000  Uiso   1.00
H987   H     0.63032   0.82288   0.70437   0.00000  Uiso   1.00
H988   H     0.86968   0.67712   0.29563   0.00000  Uiso   1.00
H989   H     0.67712   0.63032   0.70437   0.00000  Uiso   1.00
H990   H     0.66976   0.95391   0.53452   0.00000  Uiso   1.00
H991   H     0.82288   0.86968   0.29563   0.00000  Uiso   1.00
H992   H     0.86971   0.82289   0.29565   0.00000  Uiso   1.00
H993   H     0.63029   0.67711   0.70435   0.00000  Uiso   1.00
H994   H     0.82288   0.63030   0.29564   0.00000  Uiso   1.00
H995   H     0.67712   0.86970   0.70435   0.00000  Uiso   1.00
H996   H     0.63030   0.67712   0.29565   0.00000  Uiso   1.00
H997   H     0.86970   0.82288   0.70435   0.00000  Uiso   1.00
H998   H     0.67712   0.86970   0.29565   0.00000  Uiso   1.00
H999   H     0.82288   0.63030   0.70435   0.00000  Uiso   1.00
H1000  H     0.95386   0.83020   0.46548   0.00000  Uiso   1.00
H1001  H     0.54614   0.66980   0.53452   0.00000  Uiso   1.00
H1002  H     0.66976   0.95391   0.46548   0.00000  Uiso   1.00
H1003  H     0.83024   0.54609   0.53452   0.00000  Uiso   1.00
H1004  H     0.70384   0.91981   0.96548   0.00000  Uiso   1.00
O1005  O     0.75000   0.50000   0.25000   0.00000  Uiso   1.00
O1006  O     0.75000   0.96964   0.66245   0.00000  Uiso   1.00
O1007  O     0.96963   0.75000   0.33755   0.00000  Uiso   1.00
O1008  O     0.53036   0.75000   0.66245   0.00000  Uiso   1.00
O1009  O     0.50000   0.71963   0.83755   0.00000  Uiso   1.00
O1010  O     0.50000   0.78036   0.16245   0.00000  Uiso   1.00
O1011  O     0.78036   0.50000   0.83755   0.00000  Uiso   1.00
O1012  O     0.71963   0.50000   0.16245   0.00000  Uiso   1.00
O1013  O     0.50000   0.78036   0.83755   0.00000  Uiso   1.00
O1014  O     0.50000   0.71963   0.16245   0.00000  Uiso   1.00
O1015  O     0.71963   0.50000   0.83755   0.00000  Uiso   1.00
O1016  O     0.75000   0.50000   0.75000   0.00000  Uiso   1.00
O1017  O     0.78036   0.50000   0.16245   0.00000  Uiso   1.00
O1018  O     0.70724   0.57308   0.27302   0.00000  Uiso   1.00
O1019  O     0.79275   0.92693   0.72698   0.00000  Uiso   1.00
O1020  O     0.92692   0.70725   0.27302   0.00000  Uiso   1.00
O1021  O     0.57307   0.79275   0.72698   0.00000  Uiso   1.00
O1022  O     0.79275   0.92693   0.27302   0.00000  Uiso   1.00
O1023  O     0.70724   0.57308   0.72698   0.00000  Uiso   1.00
O1024  O     0.57307   0.79275   0.27302   0.00000  Uiso   1.00
O1025  O     0.92692   0.70725   0.72698   0.00000  Uiso   1.00
O1026  O     0.70724   0.92693   0.72698   0.00000  Uiso   1.00
O1027  O     0.50000   0.75000   0.25000   0.00000  Uiso   1.00
O1028  O     0.79275   0.57308   0.27302   0.00000  Uiso   1.00
O1029  O     0.92692   0.79276   0.72698   0.00000  Uiso   1.00
O1030  O     0.57307   0.70724   0.27302   0.00000  Uiso   1.00
O1031  O     0.79275   0.57308   0.72698   0.00000  Uiso   1.00
O1032  O     0.70724   0.92693   0.27302   0.00000  Uiso   1.00
O1033  O     0.57307   0.70724   0.72698   0.00000  Uiso   1.00
O1034  O     0.92692   0.79276   0.27302   0.00000  Uiso   1.00
O1035  O     0.95724   0.82308   0.77302   0.00000  Uiso   1.00
O1036  O     0.54275   0.67692   0.22698   0.00000  Uiso   1.00
O1037  O     0.67692   0.95724   0.77302   0.00000  Uiso   1.00
O1038  O     0.50000   0.75000   0.75000   0.00000  Uiso   1.00
O1039  O     0.82307   0.54276   0.22698   0.00000  Uiso   1.00
O1040  O     0.54275   0.67692   0.77302   0.00000  Uiso   1.00
O1041  O     0.95724   0.82308   0.22698   0.00000  Uiso   1.00
O1042  O     0.82307   0.54276   0.77302   0.00000  Uiso   1.00
O1043  O     0.67692   0.95724   0.22698   0.00000  Uiso   1.00
O1044  O     0.95724   0.67693   0.22698   0.00000  Uiso   1.00
O1045  O     0.54275   0.82307   0.77302   0.00000  Uiso   1.00
O1046  O     0.67692   0.54276   0.22698   0.00000  Uiso   1.00
O1047  O     0.82307   0.95725   0.77302   0.00000  Uiso   1.00
O1048  O     0.54275   0.82307   0.22698   0.00000  Uiso   1.00
O1049  O     0.75000   0.96964   0.33755   0.00000  Uiso   1.00
O1050  O     0.95724   0.67693   0.77302   0.00000  Uiso   1.00
O1051  O     0.82307   0.95725   0.22698   0.00000  Uiso   1.00
O1052  O     0.67692   0.54276   0.77302   0.00000  Uiso   1.00
O1053  O     0.75000   0.53037   0.66245   0.00000  Uiso   1.00
O1054  O     0.53036   0.75000   0.33755   0.00000  Uiso   1.00
O1055  O     0.96963   0.75000   0.66245   0.00000  Uiso   1.00
O1056  O     0.75000   0.53037   0.33755   0.00000  Uiso   1.00
Zn1057 Zn    0.70659   0.50000   0.21735   0.00000  Uiso   1.00
Zn1058 Zn    0.54340   0.75000   0.28265   0.00000  Uiso   1.00
Zn1059 Zn    0.75000   0.95660   0.71735   0.00000  Uiso   1.00
Zn1060 Zn    0.75000   0.54341   0.28265   0.00000  Uiso   1.00
Zn1061 Zn    0.54340   0.75000   0.71735   0.00000  Uiso   1.00
Zn1062 Zn    0.95659   0.75000   0.28265   0.00000  Uiso   1.00
Zn1063 Zn    0.75000   0.54341   0.71735   0.00000  Uiso   1.00
Zn1064 Zn    0.75000   0.95660   0.28265   0.00000  Uiso   1.00
Zn1065 Zn    0.79340   0.50000   0.78265   0.00000  Uiso   1.00
Zn1066 Zn    0.50000   0.70659   0.21735   0.00000  Uiso   1.00
Zn1067 Zn    0.50000   0.79340   0.78265   0.00000  Uiso   1.00
Zn1068 Zn    0.79340   0.50000   0.21735   0.00000  Uiso   1.00
Zn1069 Zn    0.70659   0.50000   0.78265   0.00000  Uiso   1.00
Zn1070 Zn    0.50000   0.79340   0.21735   0.00000  Uiso   1.00
Zn1071 Zn    0.50000   0.70659   0.78265   0.00000  Uiso   1.00
Zn1072 Zn    0.95659   0.75000   0.71735   0.00000  Uiso   1.00
loop_
_geom_bond_atom_site_label_1
_geom_bond_atom_site_label_2
_geom_bond_distance
_geom_bond_site_symmetry_2
_ccdc_geom_bond_type
Br1    C17     1.940   .     S
Br2    C18     1.940   .     S
Br3    C29     1.940   .     S
Br4    C40     1.940   .     S
Br5    C51     1.940   .     S
Br6    C59     1.940   .     S
Br7    C60     1.940   .     S
Br8    C61     1.940   .     S
Br9    C65     1.940   .     S
Br10   C76     1.940   .     S
Br11   C87     1.940   .     S
Br12   C98     1.940   .     S
Br13   C109    1.940   .     S
Br14   C120    1.940   .     S
Br15   C131    1.940   .     S
Br16   C142    1.940   .     S
C17    C20     1.405   .     A
C17    C330    1.406   .     A
C18    C604    1.406   .     A
C18    C30     1.405   .     A
C19    C131    1.405   .     A
C19    C590    1.416   .     A
C19    C74     1.403   .     A
C20    C75     1.403   .     A
C20    C318    1.416   .     A
C21    C65     1.405   .     A
C21    C77     1.403   .     A
C21    C52     1.416   .     S
C22    C589    1.416   .     A
C22    C76     1.405   .     A
C22    C78     1.403   .     A
C23    C87     1.405   .     A
C23    C79     1.403   .     A
C23    C54     1.416   .     S
C24    C591    1.416   .     A
C24    C80     1.403   .     A
C24    C51     1.405   .     A
C25    C81     1.403   .     A
C25    C59     1.405   .     A
C25    C56     1.416   .     S
C26    C82     1.403   .     A
C26    C57     1.416   .     A
C26    C60     1.405   .     A
C27    C61     1.405   .     A
C27    C326    1.416   .     A
C27    C83     1.403   .     A
C28    C84     1.403   .     A
C28    C142    1.405   .     A
C28    C55     1.416   .     S
C29    C337    1.406   .     A
C29    C31     1.405   .     A
C30    C592    1.416   .     A
C30    C85     1.403   .     A
C31    C86     1.403   .     A
C31    C325    1.416   .     S
C32    C88     1.403   .     A
C32    C40     1.405   .     A
C32    C58     1.416   .     S
C33    C104    1.456   .     S
C33    C134    1.402   .     A
C33    C132    1.402   .     A
C34    C105    1.456   .     S
C34    C133    1.402   .     A
C34    C130    1.402   .     A
C35    C129    1.402   .     A
C35    C97     1.456   .     S
C35    C136    1.402   .     A
C36    C128    1.402   .     A
C36    C135    1.402   .     A
C36    C99     1.456   .     S
C37    C138    1.402   .     A
C37    C100    1.456   .     S
C37    C127    1.402   .     A
C38    C101    1.456   .     S
C38    C126    1.402   .     A
C38    C137    1.402   .     A
C39    C125    1.402   .     A
C39    C102    1.456   .     S
C39    C140    1.402   .     A
C40    C70     1.406   .     A
C41    C124    1.402   .     A
C41    C103    1.456   .     S
C41    C139    1.402   .     A
C42    C123    1.402   .     A
C42    C113    1.456   .     S
C42    C143    1.402   .     A
C43    C114    1.456   .     S
C43    C122    1.402   .     A
C43    C141    1.402   .     A
C44    C121    1.402   .     A
C44    C145    1.402   .     A
C44    C106    1.456   .     S
C45    C119    1.402   .     A
C45    C144    1.402   .     A
C45    C107    1.456   .     S
C46    C118    1.402   .     A
C46    C108    1.456   .     S
C46    C147    1.402   .     A
C47    C146    1.402   .     A
C47    C117    1.402   .     A
C47    C110    1.456   .     S
C48    C149    1.402   .     A
C48    C116    1.402   .     A
C48    C111    1.456   .     S
C49    C148    1.402   .     A
C49    C115    1.402   .     A
C49    C112    1.456   .     S
C50    C52     1.416   .     A
C50    C288    1.416   1_455 A
C50    C150    1.416   .     S
C51    C603    1.406   .     A
C52    C419    1.416   1_455 A
C53    C54     1.416   .     A
C53    C558    1.416   1_545 A
C53    C152    1.416   .     S
C54    C555    1.416   1_545 A
C55    C560    1.416   1_545 A
C55    C56     1.416   1_556 S
C56    C566    1.416   1_545 A
C56    C55     1.416   1_554 S
C57    C299    1.416   1_455 S
C57    C58     1.416   1_556 S
C58    C295    1.416   1_455 A
C58    C57     1.416   1_554 S
C59    C68     1.406   .     S
C60    C69     1.406   .     S
C61    C338    1.406   .     S
C62    C285    1.406   1_455 A
C62    C91     1.454   .     S
C62    C98     1.406   .     S
C63    C65     1.406   .     A
C63    C92     1.454   .     S
C63    C377    1.406   1_455 S
C64    C89     1.454   .     S
C64    C612    1.406   1_545 A
C64    C120    1.406   .     S
C66    C667    1.406   1_545 A
C66    C87     1.406   .     S
C66    C90     1.454   .     S
C67    C95     1.454   .     S
C67    C587    1.406   1_545 A
C67    C142    1.406   .     S
C68    C96     1.454   .     S
C68    C554    1.406   1_545 A
C69    C93     1.454   .     S
C69    C297    1.406   1_455 A
C70    C329    1.406   1_455 S
C70    C94     1.454   .     S
C71    C150    1.403   .     A
C71    C77     1.387   .     A
C71    H153    1.080   .     S
C72    C75     1.387   .     A
C72    H164    1.080   .     S
C72    C151    1.403   .     A
C73    H175    1.080   .     S
C73    C152    1.403   .     A
C73    C79     1.387   .     A
C74    C78     1.387   .     A
C74    H186    1.080   .     S
C75    H196    1.080   .     S
C76    C600    1.406   .     A
C77    H197    1.080   .     S
C78    H198    1.080   .     S
C79    H199    1.080   .     S
C80    H200    1.080   .     S
C80    C85     1.387   1_556 S
C81    H154    1.080   .     S
C81    C84     1.387   1_554 S
C82    H155    1.080   .     S
C82    C88     1.387   1_556 S
C83    H156    1.080   .     S
C83    C86     1.387   1_554 S
C84    H157    1.080   .     S
C84    C81     1.387   1_556 S
C85    H158    1.080   .     S
C85    C80     1.387   1_554 S
C86    H159    1.080   .     S
C86    C83     1.387   1_556 S
C88    H160    1.080   .     S
C88    C82     1.387   1_554 S
C89    O781    1.278   1_545 A
C89    O252    1.278   .     S
C90    O249    1.278   .     A
C90    O738    1.278   1_545 S
C91    O471    1.278   1_455 A
C91    O250    1.278   .     S
C92    O519    1.278   1_455 A
C92    O204    1.278   .     S
C93    O205    1.278   .     S
C93    O209    1.278   .     S
C94    O206    1.278   .     S
C94    O210    1.278   .     S
C95    O207    1.278   .     A
C95    O211    1.278   .     A
C96    O208    1.278   .     A
C96    O213    1.278   .     A
C97    O242    1.282   .     A
C97    O214    1.282   .     A
C98    C150    1.405   .     A
C99    O215    1.282   .     A
C99    O243    1.282   .     A
C100   O216    1.282   .     A
C100   O240    1.282   .     A
C101   O241    1.282   .     A
C101   O217    1.282   .     A
C102   O218    1.282   .     A
C102   O247    1.282   .     A
C103   O248    1.282   .     A
C103   O219    1.282   .     A
C104   O220    1.282   .     A
C104   O244    1.282   .     A
C105   O246    1.282   .     A
C105   O221    1.282   .     A
C106   O233    1.282   .     A
C106   O222    1.282   .     A
C107   O224    1.282   .     A
C107   O235    1.282   .     A
C108   O225    1.282   .     A
C108   O231    1.282   .     A
C109   C151    1.405   .     A
C109   C331    1.406   .     S
C110   O232    1.282   .     A
C110   O226    1.282   .     A
C111   O227    1.282   .     A
C111   O238    1.282   .     A
C112   O228    1.282   .     A
C112   O239    1.282   .     A
C113   O236    1.282   .     A
C113   O229    1.282   .     A
C114   O237    1.282   .     A
C114   O230    1.282   .     A
C115   C132    1.386   .     A
C115   H161    1.083   .     S
C116   H162    1.083   .     S
C116   C130    1.386   .     A
C117   H163    1.083   .     S
C117   C129    1.386   .     A
C118   H165    1.083   .     S
C118   C128    1.386   .     A
C119   H166    1.083   .     S
C119   C127    1.386   .     A
C120   C152    1.405   .     A
C121   H167    1.083   .     S
C121   C126    1.386   .     A
C122   H168    1.083   .     S
C122   C125    1.386   .     A
C123   C124    1.386   .     A
C123   H169    1.083   .     S
C124   H170    1.083   .     S
C125   H171    1.083   .     S
C126   H172    1.083   .     S
C127   H173    1.083   .     S
C128   H174    1.083   .     S
C129   H176    1.083   .     S
C130   H177    1.083   .     S
C131   C602    1.406   .     A
C132   H178    1.083   .     S
C133   H179    1.083   .     S
C133   C149    1.386   .     A
C134   C148    1.386   .     A
C134   H180    1.083   .     S
C135   H181    1.083   .     S
C135   C147    1.386   .     A
C136   H182    1.083   .     S
C136   C146    1.386   .     A
C137   C145    1.386   .     A
C137   H183    1.083   .     S
C138   H184    1.083   .     S
C138   C144    1.386   .     A
C139   C143    1.386   .     A
C139   H185    1.083   .     S
C140   C141    1.386   .     A
C140   H187    1.083   .     S
C141   H188    1.083   .     S
C143   H189    1.083   .     S
C144   H190    1.083   .     S
C145   H191    1.083   .     S
C146   H192    1.083   .     S
C147   H193    1.083   .     S
C148   H194    1.083   .     S
C149   H195    1.083   .     S
C151   C320    1.416   .     A
O201   Zn264   1.948   .     S
O201   Zn253   1.948   .     S
O201   Zn256   1.948   .     S
O201   Zn796   1.948   1_545 S
O202   Zn255   1.948   .     S
O202   C626    1.278   .     S
O203   C359    1.278   .     A
O203   Zn258   1.948   .     S
O204   Zn257   1.948   .     S
O205   Zn267   1.948   .     S
O206   Zn266   1.948   .     S
O207   Zn261   1.948   .     S
O208   Zn253   1.948   .     S
O209   Zn263   1.948   .     S
O210   Zn262   1.948   .     S
O211   Zn265   1.948   .     S
O212   Zn261   1.948   .     S
O212   Zn265   1.948   .     S
O212   Zn791   1.948   1_545 S
O212   Zn259   1.948   .     S
O213   Zn264   1.948   .     S
O214   Zn256   1.937   .     S
O215   Zn255   1.937   .     S
O216   Zn258   1.937   .     S
O217   Zn257   1.937   .     S
O218   Zn260   1.937   .     S
O219   Zn259   1.937   .     S
O220   Zn254   1.937   .     S
O221   Zn268   1.937   .     S
O222   Zn255   1.937   .     S
O223   Zn526   1.948   1_455 S
O223   Zn254   1.948   .     S
O223   Zn262   1.948   .     S
O223   Zn266   1.948   .     S
O224   Zn256   1.937   .     S
O225   Zn268   1.937   .     S
O226   Zn254   1.937   .     S
O227   Zn259   1.937   .     S
O228   Zn260   1.937   .     S
O229   Zn257   1.937   .     S
O230   Zn258   1.937   .     S
O231   Zn531   1.937   .     S
O232   Zn262   1.937   .     S
O233   Zn801   1.937   .     S
O234   Zn257   1.948   .     S
O234   Zn263   1.948   .     S
O234   Zn267   1.948   .     S
O234   Zn536   1.948   1_455 S
O235   Zn264   1.937   .     S
O236   Zn267   1.937   .     S
O237   Zn534   1.937   .     S
O238   Zn261   1.937   .     S
O239   Zn789   1.937   .     S
O240   Zn530   1.937   .     S
O241   Zn263   1.937   .     S
O242   Zn253   1.937   .     S
O243   Zn797   1.937   .     S
O244   Zn266   1.937   .     S
O245   Zn260   1.948   .     S
O245   C625    1.278   .     A
O246   Zn535   1.937   .     S
O247   Zn800   1.937   .     S
O248   Zn265   1.937   .     S
O249   Zn259   1.948   .     S
O250   Zn254   1.948   .     S
O251   C360    1.278   .     A
O251   Zn268   1.948   .     S
O252   Zn256   1.948   .     S
Zn253  O775    1.937   1_545 S
Zn255  O748    1.948   .     S
Zn258  O491    1.948   .     S
Zn260  O737    1.948   .     S
Zn261  O779    1.937   1_545 S
Zn262  O508    1.937   1_455 S
Zn263  O499    1.937   1_455 S
Zn264  O783    1.937   1_545 S
Zn265  O769    1.937   1_545 S
Zn266  O505    1.937   1_455 S
Zn267  O514    1.937   1_455 S
Zn268  O502    1.948   .     S
Br269  C285    1.940   .     S
Br270  C286    1.940   .     S
Br271  C297    1.940   .     S
Br272  C308    1.940   .     S
Br273  C319    1.940   .     S
Br274  C327    1.940   .     S
Br275  C328    1.940   .     S
Br276  C329    1.940   .     S
Br277  C333    1.940   .     S
Br278  C344    1.940   .     S
Br279  C355    1.940   .     S
Br280  C366    1.940   .     S
Br281  C377    1.940   .     S
Br282  C388    1.940   .     S
Br283  C399    1.940   .     S
Br284  C410    1.940   .     S
C285   C288    1.405   .     A
C285   C62     1.406   1_655 A
C286   C872    1.406   .     A
C286   C298    1.405   .     A
C287   C399    1.405   .     A
C287   C858    1.416   .     A
C287   C342    1.403   .     A
C288   C343    1.403   .     A
C288   C50     1.416   1_655 A
C289   C333    1.405   .     A
C289   C345    1.403   .     A
C289   C320    1.416   .     S
C290   C857    1.416   .     A
C290   C344    1.405   .     A
C290   C346    1.403   .     A
C291   C355    1.405   .     A
C291   C347    1.403   .     A
C291   C322    1.416   .     S
C292   C859    1.416   .     A
C292   C348    1.403   .     A
C292   C319    1.405   .     A
C293   C349    1.403   .     A
C293   C327    1.405   .     A
C293   C324    1.416   .     S
C294   C350    1.403   .     A
C294   C325    1.416   .     A
C294   C328    1.405   .     A
C295   C329    1.405   .     A
C295   C58     1.416   1_655 A
C295   C351    1.403   .     A
C296   C352    1.403   .     A
C296   C410    1.405   .     A
C296   C323    1.416   .     S
C297   C69     1.406   1_655 A
C297   C299    1.405   .     A
C298   C860    1.416   .     A
C298   C353    1.403   .     A
C299   C354    1.403   .     A
C299   C57     1.416   1_655 S
C300   C356    1.403   .     A
C300   C308    1.405   .     A
C300   C326    1.416   .     S
C301   C372    1.456   .     S
C301   C402    1.402   .     A
C301   C400    1.402   .     A
C302   C373    1.456   .     S
C302   C401    1.402   .     A
C302   C398    1.402   .     A
C303   C397    1.402   .     A
C303   C365    1.456   .     S
C303   C404    1.402   .     A
C304   C396    1.402   .     A
C304   C403    1.402   .     A
C304   C367    1.456   .     S
C305   C406    1.402   .     A
C305   C368    1.456   .     S
C305   C395    1.402   .     A
C306   C369    1.456   .     S
C306   C394    1.402   .     A
C306   C405    1.402   .     A
C307   C393    1.402   .     A
C307   C370    1.456   .     S
C307   C408    1.402   .     A
C308   C338    1.406   .     A
C309   C392    1.402   .     A
C309   C371    1.456   .     S
C309   C407    1.402   .     A
C310   C391    1.402   .     A
C310   C381    1.456   .     S
C310   C411    1.402   .     A
C311   C382    1.456   .     S
C311   C390    1.402   .     A
C311   C409    1.402   .     A
C312   C389    1.402   .     A
C312   C413    1.402   .     A
C312   C374    1.456   .     S
C313   C387    1.402   .     A
C313   C412    1.402   .     A
C313   C375    1.456   .     S
C314   C386    1.402   .     A
C314   C376    1.456   .     S
C314   C415    1.402   .     A
C315   C414    1.402   .     A
C315   C385    1.402   .     A
C315   C378    1.456   .     S
C316   C417    1.402   .     A
C316   C384    1.402   .     A
C316   C379    1.456   .     S
C317   C416    1.402   .     A
C317   C383    1.402   .     A
C317   C380    1.456   .     S
C318   C320    1.416   .     A
C318   C418    1.416   .     S
C319   C871    1.406   .     A
C321   C322    1.416   .     A
C321   C826    1.416   1_545 A
C321   C420    1.416   .     S
C322   C823    1.416   1_545 A
C323   C828    1.416   1_545 A
C323   C324    1.416   1_556 S
C324   C834    1.416   1_545 A
C324   C323    1.416   1_554 S
C325   C326    1.416   1_556 S
C326   C325    1.416   1_554 S
C327   C336    1.406   .     S
C328   C337    1.406   .     S
C329   C70     1.406   1_655 S
C330   C359    1.454   .     S
C330   C366    1.406   .     S
C331   C333    1.406   .     A
C331   C360    1.454   .     S
C332   C357    1.454   .     S
C332   C880    1.406   1_545 A
C332   C388    1.406   .     S
C334   C935    1.406   1_545 A
C334   C355    1.406   .     S
C334   C358    1.454   .     S
C335   C363    1.454   .     S
C335   C855    1.406   1_545 A
C335   C410    1.406   .     S
C336   C364    1.454   .     S
C336   C822    1.406   1_545 A
C337   C361    1.454   .     S
C338   C362    1.454   .     S
C339   C418    1.403   .     A
C339   C345    1.387   .     A
C339   H421    1.080   .     S
C340   C343    1.387   .     A
C340   H432    1.080   .     S
C340   C419    1.403   .     A
C341   H443    1.080   .     S
C341   C420    1.403   .     A
C341   C347    1.387   .     A
C342   C346    1.387   .     A
C342   H454    1.080   .     S
C343   H464    1.080   .     S
C344   C868    1.406   .     A
C345   H465    1.080   .     S
C346   H466    1.080   .     S
C347   H467    1.080   .     S
C348   H468    1.080   .     S
C348   C353    1.387   1_556 S
C349   H422    1.080   .     S
C349   C352    1.387   1_554 S
C350   H423    1.080   .     S
C350   C356    1.387   1_556 S
C351   H424    1.080   .     S
C351   C354    1.387   1_554 S
C352   H425    1.080   .     S
C352   C349    1.387   1_556 S
C353   H426    1.080   .     S
C353   C348    1.387   1_554 S
C354   H427    1.080   .     S
C354   C351    1.387   1_556 S
C356   H428    1.080   .     S
C356   C350    1.387   1_554 S
C357   O1049   1.278   1_545 A
C357   O520    1.278   .     S
C358   O517    1.278   .     A
C358   O1006   1.278   1_545 S
C359   O518    1.278   .     S
C360   O472    1.278   .     S
C361   O473    1.278   .     S
C361   O477    1.278   .     S
C362   O474    1.278   .     S
C362   O478    1.278   .     S
C363   O475    1.278   .     A
C363   O479    1.278   .     A
C364   O476    1.278   .     A
C364   O481    1.278   .     A
C365   O510    1.282   .     A
C365   O482    1.282   .     A
C366   C418    1.405   .     A
C367   O483    1.282   .     A
C367   O511    1.282   .     A
C368   O484    1.282   .     A
C368   O508    1.282   .     A
C369   O509    1.282   .     A
C369   O485    1.282   .     A
C370   O486    1.282   .     A
C370   O515    1.282   .     A
C371   O516    1.282   .     A
C371   O487    1.282   .     A
C372   O488    1.282   .     A
C372   O512    1.282   .     A
C373   O514    1.282   .     A
C373   O489    1.282   .     A
C374   O501    1.282   .     A
C374   O490    1.282   .     A
C375   O492    1.282   .     A
C375   O503    1.282   .     A
C376   O493    1.282   .     A
C376   O499    1.282   .     A
C377   C419    1.405   .     A
C377   C63     1.406   1_655 S
C378   O500    1.282   .     A
C378   O494    1.282   .     A
C379   O495    1.282   .     A
C379   O506    1.282   .     A
C380   O496    1.282   .     A
C380   O507    1.282   .     A
C381   O504    1.282   .     A
C381   O497    1.282   .     A
C382   O505    1.282   .     A
C382   O498    1.282   .     A
C383   C400    1.386   .     A
C383   H429    1.083   .     S
C384   H430    1.083   .     S
C384   C398    1.386   .     A
C385   H431    1.083   .     S
C385   C397    1.386   .     A
C386   H433    1.083   .     S
C386   C396    1.386   .     A
C387   H434    1.083   .     S
C387   C395    1.386   .     A
C388   C420    1.405   .     A
C389   H435    1.083   .     S
C389   C394    1.386   .     A
C390   H436    1.083   .     S
C390   C393    1.386   .     A
C391   C392    1.386   .     A
C391   H437    1.083   .     S
C392   H438    1.083   .     S
C393   H439    1.083   .     S
C394   H440    1.083   .     S
C395   H441    1.083   .     S
C396   H442    1.083   .     S
C397   H444    1.083   .     S
C398   H445    1.083   .     S
C399   C870    1.406   .     A
C400   H446    1.083   .     S
C401   H447    1.083   .     S
C401   C417    1.386   .     A
C402   C416    1.386   .     A
C402   H448    1.083   .     S
C403   H449    1.083   .     S
C403   C415    1.386   .     A
C404   H450    1.083   .     S
C404   C414    1.386   .     A
C405   C413    1.386   .     A
C405   H451    1.083   .     S
C406   H452    1.083   .     S
C406   C412    1.386   .     A
C407   C411    1.386   .     A
C407   H453    1.083   .     S
C408   C409    1.386   .     A
C408   H455    1.083   .     S
C409   H456    1.083   .     S
C411   H457    1.083   .     S
C412   H458    1.083   .     S
C413   H459    1.083   .     S
C414   H460    1.083   .     S
C415   H461    1.083   .     S
C416   H462    1.083   .     S
C417   H463    1.083   .     S
C419   C52     1.416   1_655 A
O469   Zn532   1.948   .     S
O469   Zn521   1.948   .     S
O469   Zn524   1.948   .     S
O469   Zn1064  1.948   1_545 S
O470   Zn523   1.948   .     S
O470   C894    1.278   .     S
O471   C91     1.278   1_655 A
O471   Zn526   1.948   .     S
O472   Zn525   1.948   .     S
O473   Zn535   1.948   .     S
O474   Zn534   1.948   .     S
O475   Zn529   1.948   .     S
O476   Zn521   1.948   .     S
O477   Zn531   1.948   .     S
O478   Zn530   1.948   .     S
O479   Zn533   1.948   .     S
O480   Zn529   1.948   .     S
O480   Zn533   1.948   .     S
O480   Zn1059  1.948   1_545 S
O480   Zn527   1.948   .     S
O481   Zn532   1.948   .     S
O482   Zn524   1.937   .     S
O483   Zn523   1.937   .     S
O484   Zn526   1.937   .     S
O485   Zn525   1.937   .     S
O486   Zn528   1.937   .     S
O487   Zn527   1.937   .     S
O488   Zn522   1.937   .     S
O489   Zn536   1.937   .     S
O490   Zn523   1.937   .     S
O491   Zn522   1.948   .     S
O491   Zn530   1.948   .     S
O491   Zn534   1.948   .     S
O492   Zn524   1.937   .     S
O493   Zn536   1.937   .     S
O494   Zn522   1.937   .     S
O495   Zn527   1.937   .     S
O496   Zn528   1.937   .     S
O497   Zn525   1.937   .     S
O498   Zn526   1.937   .     S
O499   Zn263   1.937   1_655 S
O500   Zn530   1.937   .     S
O501   Zn1069  1.937   .     S
O502   Zn525   1.948   .     S
O502   Zn531   1.948   .     S
O502   Zn535   1.948   .     S
O503   Zn532   1.937   .     S
O504   Zn535   1.937   .     S
O505   Zn266   1.937   1_655 S
O506   Zn529   1.937   .     S
O507   Zn1057  1.937   .     S
O508   Zn262   1.937   1_655 S
O509   Zn531   1.937   .     S
O510   Zn521   1.937   .     S
O511   Zn1065  1.937   .     S
O512   Zn534   1.937   .     S
O513   Zn528   1.948   .     S
O513   C893    1.278   .     A
O514   Zn267   1.937   1_655 S
O515   Zn1068  1.937   .     S
O516   Zn533   1.937   .     S
O517   Zn527   1.948   .     S
O518   Zn522   1.948   .     S
O519   C92     1.278   1_655 A
O519   Zn536   1.948   .     S
O520   Zn524   1.948   .     S
Zn521  O1043   1.937   1_545 S
Zn523  O1016   1.948   .     S
Zn526  O223    1.948   1_655 S
Zn528  O1005   1.948   .     S
Zn529  O1047   1.937   1_545 S
Zn532  O1051   1.937   1_545 S
Zn533  O1037   1.937   1_545 S
Zn536  O234    1.948   1_655 S
Br537  C553    1.940   .     S
Br538  C554    1.940   .     S
Br539  C565    1.940   .     S
Br540  C576    1.940   .     S
Br541  C587    1.940   .     S
Br542  C595    1.940   .     S
Br543  C596    1.940   .     S
Br544  C597    1.940   .     S
Br545  C601    1.940   .     S
Br546  C612    1.940   .     S
Br547  C623    1.940   .     S
Br548  C634    1.940   .     S
Br549  C645    1.940   .     S
Br550  C656    1.940   .     S
Br551  C667    1.940   .     S
Br552  C678    1.940   .     S
C553   C556    1.405   .     A
C553   C866    1.406   .     A
C554   C68     1.406   1_565 A
C554   C566    1.405   .     A
C555   C667    1.405   .     A
C555   C54     1.416   1_565 A
C555   C610    1.403   .     A
C556   C611    1.403   .     A
C556   C854    1.416   .     A
C557   C601    1.405   .     A
C557   C613    1.403   .     A
C557   C588    1.416   .     S
C558   C53     1.416   1_565 A
C558   C612    1.405   .     A
C558   C614    1.403   .     A
C559   C623    1.405   .     A
C559   C615    1.403   .     A
C559   C590    1.416   .     S
C560   C55     1.416   1_565 A
C560   C616    1.403   .     A
C560   C587    1.405   .     A
C561   C617    1.403   .     A
C561   C595    1.405   .     A
C561   C592    1.416   .     S
C562   C618    1.403   .     A
C562   C593    1.416   .     A
C562   C596    1.405   .     A
C563   C597    1.405   .     A
C563   C862    1.416   .     A
C563   C619    1.403   .     A
C564   C620    1.403   .     A
C564   C678    1.405   .     A
C564   C591    1.416   .     S
C565   C873    1.406   .     A
C565   C567    1.405   .     A
C566   C56     1.416   1_565 A
C566   C621    1.403   .     A
C567   C622    1.403   .     A
C567   C861    1.416   .     S
C568   C624    1.403   .     A
C568   C576    1.405   .     A
C568   C594    1.416   .     S
C569   C640    1.456   .     S
C569   C670    1.402   .     A
C569   C668    1.402   .     A
C570   C641    1.456   .     S
C570   C669    1.402   .     A
C570   C666    1.402   .     A
C571   C665    1.402   .     A
C571   C633    1.456   .     S
C571   C672    1.402   .     A
C572   C664    1.402   .     A
C572   C671    1.402   .     A
C572   C635    1.456   .     S
C573   C674    1.402   .     A
C573   C636    1.456   .     S
C573   C663    1.402   .     A
C574   C637    1.456   .     S
C574   C662    1.402   .     A
C574   C673    1.402   .     A
C575   C661    1.402   .     A
C575   C638    1.456   .     S
C575   C676    1.402   .     A
C576   C606    1.406   .     A
C577   C660    1.402   .     A
C577   C639    1.456   .     S
C577   C675    1.402   .     A
C578   C659    1.402   .     A
C578   C649    1.456   .     S
C578   C679    1.402   .     A
C579   C650    1.456   .     S
C579   C658    1.402   .     A
C579   C677    1.402   .     A
C580   C657    1.402   .     A
C580   C681    1.402   .     A
C580   C642    1.456   .     S
C581   C655    1.402   .     A
C581   C680    1.402   .     A
C581   C643    1.456   .     S
C582   C654    1.402   .     A
C582   C644    1.456   .     S
C582   C683    1.402   .     A
C583   C682    1.402   .     A
C583   C653    1.402   .     A
C583   C646    1.456   .     S
C584   C685    1.402   .     A
C584   C652    1.402   .     A
C584   C647    1.456   .     S
C585   C684    1.402   .     A
C585   C651    1.402   .     A
C585   C648    1.456   .     S
C586   C588    1.416   .     A
C586   C824    1.416   1_455 A
C586   C686    1.416   .     S
C587   C67     1.406   1_565 A
C588   C955    1.416   1_455 A
C589   C590    1.416   .     A
C589   C688    1.416   .     S
C591   C592    1.416   1_556 S
C592   C591    1.416   1_554 S
C593   C835    1.416   1_455 S
C593   C594    1.416   1_556 S
C594   C831    1.416   1_455 A
C594   C593    1.416   1_554 S
C595   C604    1.406   .     S
C596   C605    1.406   .     S
C597   C874    1.406   .     S
C598   C821    1.406   1_455 A
C598   C627    1.454   .     S
C598   C634    1.406   .     S
C599   C601    1.406   .     A
C599   C628    1.454   .     S
C599   C913    1.406   1_455 S
C600   C625    1.454   .     S
C600   C656    1.406   .     S
C602   C623    1.406   .     S
C602   C626    1.454   .     S
C603   C631    1.454   .     S
C603   C678    1.406   .     S
C604   C632    1.454   .     S
C605   C629    1.454   .     S
C605   C833    1.406   1_455 A
C606   C865    1.406   1_455 S
C606   C630    1.454   .     S
C607   C686    1.403   .     A
C607   C613    1.387   .     A
C607   H689    1.080   .     S
C608   C611    1.387   .     A
C608   H700    1.080   .     S
C608   C687    1.403   .     A
C609   H711    1.080   .     S
C609   C688    1.403   .     A
C609   C615    1.387   .     A
C610   C614    1.387   .     A
C610   H722    1.080   .     S
C611   H732    1.080   .     S
C612   C64     1.406   1_565 A
C613   H733    1.080   .     S
C614   H734    1.080   .     S
C615   H735    1.080   .     S
C616   H736    1.080   .     S
C616   C621    1.387   1_556 S
C617   H690    1.080   .     S
C617   C620    1.387   1_554 S
C618   H691    1.080   .     S
C618   C624    1.387   1_556 S
C619   H692    1.080   .     S
C619   C622    1.387   1_554 S
C620   H693    1.080   .     S
C620   C617    1.387   1_556 S
C621   H694    1.080   .     S
C621   C616    1.387   1_554 S
C622   H695    1.080   .     S
C622   C619    1.387   1_556 S
C624   H696    1.080   .     S
C624   C618    1.387   1_554 S
C625   O788    1.278   .     S
C626   O785    1.278   .     A
C627   O1007   1.278   1_455 A
C627   O786    1.278   .     S
C628   O1055   1.278   1_455 A
C628   O740    1.278   .     S
C629   O741    1.278   .     S
C629   O745    1.278   .     S
C630   O742    1.278   .     S
C630   O746    1.278   .     S
C631   O743    1.278   .     A
C631   O747    1.278   .     A
C632   O744    1.278   .     A
C632   O749    1.278   .     A
C633   O778    1.282   .     A
C633   O750    1.282   .     A
C634   C686    1.405   .     A
C635   O751    1.282   .     A
C635   O779    1.282   .     A
C636   O752    1.282   .     A
C636   O776    1.282   .     A
C637   O777    1.282   .     A
C637   O753    1.282   .     A
C638   O754    1.282   .     A
C638   O783    1.282   .     A
C639   O784    1.282   .     A
C639   O755    1.282   .     A
C640   O756    1.282   .     A
C640   O780    1.282   .     A
C641   O782    1.282   .     A
C641   O757    1.282   .     A
C642   O769    1.282   .     A
C642   O758    1.282   .     A
C643   O760    1.282   .     A
C643   O771    1.282   .     A
C644   O761    1.282   .     A
C644   O767    1.282   .     A
C645   C687    1.405   .     A
C645   C867    1.406   .     S
C646   O768    1.282   .     A
C646   O762    1.282   .     A
C647   O763    1.282   .     A
C647   O774    1.282   .     A
C648   O764    1.282   .     A
C648   O775    1.282   .     A
C649   O772    1.282   .     A
C649   O765    1.282   .     A
C650   O773    1.282   .     A
C650   O766    1.282   .     A
C651   C668    1.386   .     A
C651   H697    1.083   .     S
C652   H698    1.083   .     S
C652   C666    1.386   .     A
C653   H699    1.083   .     S
C653   C665    1.386   .     A
C654   H701    1.083   .     S
C654   C664    1.386   .     A
C655   H702    1.083   .     S
C655   C663    1.386   .     A
C656   C688    1.405   .     A
C657   H703    1.083   .     S
C657   C662    1.386   .     A
C658   H704    1.083   .     S
C658   C661    1.386   .     A
C659   C660    1.386   .     A
C659   H705    1.083   .     S
C660   H706    1.083   .     S
C661   H707    1.083   .     S
C662   H708    1.083   .     S
C663   H709    1.083   .     S
C664   H710    1.083   .     S
C665   H712    1.083   .     S
C666   H713    1.083   .     S
C667   C66     1.406   1_565 A
C668   H714    1.083   .     S
C669   H715    1.083   .     S
C669   C685    1.386   .     A
C670   C684    1.386   .     A
C670   H716    1.083   .     S
C671   H717    1.083   .     S
C671   C683    1.386   .     A
C672   H718    1.083   .     S
C672   C682    1.386   .     A
C673   C681    1.386   .     A
C673   H719    1.083   .     S
C674   H720    1.083   .     S
C674   C680    1.386   .     A
C675   C679    1.386   .     A
C675   H721    1.083   .     S
C676   C677    1.386   .     A
C676   H723    1.083   .     S
C677   H724    1.083   .     S
C679   H725    1.083   .     S
C680   H726    1.083   .     S
C681   H727    1.083   .     S
C682   H728    1.083   .     S
C683   H729    1.083   .     S
C684   H730    1.083   .     S
C685   H731    1.083   .     S
C687   C856    1.416   .     A
O737   Zn800   1.948   .     S
O737   Zn789   1.948   .     S
O737   Zn792   1.948   .     S
O738   Zn791   1.948   .     S
O738   C90     1.278   1_565 S
O739   C895    1.278   .     A
O739   Zn794   1.948   .     S
O740   Zn793   1.948   .     S
O741   Zn803   1.948   .     S
O742   Zn802   1.948   .     S
O743   Zn797   1.948   .     S
O744   Zn789   1.948   .     S
O745   Zn799   1.948   .     S
O746   Zn798   1.948   .     S
O747   Zn801   1.948   .     S
O748   Zn797   1.948   .     S
O748   Zn801   1.948   .     S
O748   Zn795   1.948   .     S
O749   Zn800   1.948   .     S
O750   Zn792   1.937   .     S
O751   Zn791   1.937   .     S
O752   Zn794   1.937   .     S
O753   Zn793   1.937   .     S
O754   Zn796   1.937   .     S
O755   Zn795   1.937   .     S
O756   Zn790   1.937   .     S
O757   Zn804   1.937   .     S
O758   Zn791   1.937   .     S
O759   Zn1062  1.948   1_455 S
O759   Zn790   1.948   .     S
O759   Zn798   1.948   .     S
O759   Zn802   1.948   .     S
O760   Zn792   1.937   .     S
O761   Zn804   1.937   .     S
O762   Zn790   1.937   .     S
O763   Zn795   1.937   .     S
O764   Zn796   1.937   .     S
O765   Zn793   1.937   .     S
O766   Zn794   1.937   .     S
O767   Zn1067  1.937   .     S
O768   Zn798   1.937   .     S
O769   Zn265   1.937   1_565 S
O770   Zn793   1.948   .     S
O770   Zn799   1.948   .     S
O770   Zn803   1.948   .     S
O770   Zn1072  1.948   1_455 S
O771   Zn800   1.937   .     S
O772   Zn803   1.937   .     S
O773   Zn1070  1.937   .     S
O774   Zn797   1.937   .     S
O775   Zn253   1.937   1_565 S
O776   Zn1066  1.937   .     S
O777   Zn799   1.937   .     S
O778   Zn789   1.937   .     S
O779   Zn261   1.937   1_565 S
O780   Zn802   1.937   .     S
O781   Zn796   1.948   .     S
O781   C89     1.278   1_565 A
O782   Zn1071  1.937   .     S
O783   Zn264   1.937   1_565 S
O784   Zn801   1.937   .     S
O785   Zn795   1.948   .     S
O786   Zn790   1.948   .     S
O787   C896    1.278   .     A
O787   Zn804   1.948   .     S
O788   Zn792   1.948   .     S
Zn791  O212    1.948   1_565 S
Zn794  O1027   1.948   .     S
Zn796  O201    1.948   1_565 S
Zn798  O1044   1.937   1_455 S
Zn799  O1035   1.937   1_455 S
Zn802  O1041   1.937   1_455 S
Zn803  O1050   1.937   1_455 S
Zn804  O1038   1.948   .     S
Br805  C821    1.940   .     S
Br806  C822    1.940   .     S
Br807  C833    1.940   .     S
Br808  C844    1.940   .     S
Br809  C855    1.940   .     S
Br810  C863    1.940   .     S
Br811  C864    1.940   .     S
Br812  C865    1.940   .     S
Br813  C869    1.940   .     S
Br814  C880    1.940   .     S
Br815  C891    1.940   .     S
Br816  C902    1.940   .     S
Br817  C913    1.940   .     S
Br818  C924    1.940   .     S
Br819  C935    1.940   .     S
Br820  C946    1.940   .     S
C821   C824    1.405   .     A
C821   C598    1.406   1_655 A
C822   C336    1.406   1_565 A
C822   C834    1.405   .     A
C823   C935    1.405   .     A
C823   C322    1.416   1_565 A
C823   C878    1.403   .     A
C824   C879    1.403   .     A
C824   C586    1.416   1_655 A
C825   C869    1.405   .     A
C825   C881    1.403   .     A
C825   C856    1.416   .     S
C826   C321    1.416   1_565 A
C826   C880    1.405   .     A
C826   C882    1.403   .     A
C827   C891    1.405   .     A
C827   C883    1.403   .     A
C827   C858    1.416   .     S
C828   C323    1.416   1_565 A
C828   C884    1.403   .     A
C828   C855    1.405   .     A
C829   C885    1.403   .     A
C829   C863    1.405   .     A
C829   C860    1.416   .     S
C830   C886    1.403   .     A
C830   C861    1.416   .     A
C830   C864    1.405   .     A
C831   C865    1.405   .     A
C831   C594    1.416   1_655 A
C831   C887    1.403   .     A
C832   C888    1.403   .     A
C832   C946    1.405   .     A
C832   C859    1.416   .     S
C833   C605    1.406   1_655 A
C833   C835    1.405   .     A
C834   C324    1.416   1_565 A
C834   C889    1.403   .     A
C835   C890    1.403   .     A
C835   C593    1.416   1_655 S
C836   C892    1.403   .     A
C836   C844    1.405   .     A
C836   C862    1.416   .     S
C837   C908    1.456   .     S
C837   C938    1.402   .     A
C837   C936    1.402   .     A
C838   C909    1.456   .     S
C838   C937    1.402   .     A
C838   C934    1.402   .     A
C839   C933    1.402   .     A
C839   C901    1.456   .     S
C839   C940    1.402   .     A
C840   C932    1.402   .     A
C840   C939    1.402   .     A
C840   C903    1.456   .     S
C841   C942    1.402   .     A
C841   C904    1.456   .     S
C841   C931    1.402   .     A
C842   C905    1.456   .     S
C842   C930    1.402   .     A
C842   C941    1.402   .     A
C843   C929    1.402   .     A
C843   C906    1.456   .     S
C843   C944    1.402   .     A
C844   C874    1.406   .     A
C845   C928    1.402   .     A
C845   C907    1.456   .     S
C845   C943    1.402   .     A
C846   C927    1.402   .     A
C846   C917    1.456   .     S
C846   C947    1.402   .     A
C847   C918    1.456   .     S
C847   C926    1.402   .     A
C847   C945    1.402   .     A
C848   C925    1.402   .     A
C848   C949    1.402   .     A
C848   C910    1.456   .     S
C849   C923    1.402   .     A
C849   C948    1.402   .     A
C849   C911    1.456   .     S
C850   C922    1.402   .     A
C850   C912    1.456   .     S
C850   C951    1.402   .     A
C851   C950    1.402   .     A
C851   C921    1.402   .     A
C851   C914    1.456   .     S
C852   C953    1.402   .     A
C852   C920    1.402   .     A
C852   C915    1.456   .     S
C853   C952    1.402   .     A
C853   C919    1.402   .     A
C853   C916    1.456   .     S
C854   C856    1.416   .     A
C854   C954    1.416   .     S
C855   C335    1.406   1_565 A
C857   C858    1.416   .     A
C857   C956    1.416   .     S
C859   C860    1.416   1_556 S
C860   C859    1.416   1_554 S
C861   C862    1.416   1_556 S
C862   C861    1.416   1_554 S
C863   C872    1.406   .     S
C864   C873    1.406   .     S
C865   C606    1.406   1_655 S
C866   C895    1.454   .     S
C866   C902    1.406   .     S
C867   C869    1.406   .     A
C867   C896    1.454   .     S
C868   C893    1.454   .     S
C868   C924    1.406   .     S
C870   C891    1.406   .     S
C870   C894    1.454   .     S
C871   C899    1.454   .     S
C871   C946    1.406   .     S
C872   C900    1.454   .     S
C873   C897    1.454   .     S
C874   C898    1.454   .     S
C875   C954    1.403   .     A
C875   C881    1.387   .     A
C875   H957    1.080   .     S
C876   C879    1.387   .     A
C876   H968    1.080   .     S
C876   C955    1.403   .     A
C877   H979    1.080   .     S
C877   C956    1.403   .     A
C877   C883    1.387   .     A
C878   C882    1.387   .     A
C878   H990    1.080   .     S
C879   H1000   1.080   .     S
C880   C332    1.406   1_565 A
C881   H1001   1.080   .     S
C882   H1002   1.080   .     S
C883   H1003   1.080   .     S
C884   H1004   1.080   .     S
C884   C889    1.387   1_556 S
C885   H958    1.080   .     S
C885   C888    1.387   1_554 S
C886   H959    1.080   .     S
C886   C892    1.387   1_556 S
C887   H960    1.080   .     S
C887   C890    1.387   1_554 S
C888   H961    1.080   .     S
C888   C885    1.387   1_556 S
C889   H962    1.080   .     S
C889   C884    1.387   1_554 S
C890   H963    1.080   .     S
C890   C887    1.387   1_556 S
C892   H964    1.080   .     S
C892   C886    1.387   1_554 S
C893   O1056   1.278   .     S
C894   O1053   1.278   .     A
C895   O1054   1.278   .     S
C896   O1008   1.278   .     S
C897   O1009   1.278   .     S
C897   O1013   1.278   .     S
C898   O1010   1.278   .     S
C898   O1014   1.278   .     S
C899   O1011   1.278   .     A
C899   O1015   1.278   .     A
C900   O1012   1.278   .     A
C900   O1017   1.278   .     A
C901   O1046   1.282   .     A
C901   O1018   1.282   .     A
C902   C954    1.405   .     A
C903   O1019   1.282   .     A
C903   O1047   1.282   .     A
C904   O1020   1.282   .     A
C904   O1044   1.282   .     A
C905   O1045   1.282   .     A
C905   O1021   1.282   .     A
C906   O1022   1.282   .     A
C906   O1051   1.282   .     A
C907   O1052   1.282   .     A
C907   O1023   1.282   .     A
C908   O1024   1.282   .     A
C908   O1048   1.282   .     A
C909   O1050   1.282   .     A
C909   O1025   1.282   .     A
C910   O1037   1.282   .     A
C910   O1026   1.282   .     A
C911   O1028   1.282   .     A
C911   O1039   1.282   .     A
C912   O1029   1.282   .     A
C912   O1035   1.282   .     A
C913   C955    1.405   .     A
C913   C599    1.406   1_655 S
C914   O1036   1.282   .     A
C914   O1030   1.282   .     A
C915   O1031   1.282   .     A
C915   O1042   1.282   .     A
C916   O1032   1.282   .     A
C916   O1043   1.282   .     A
C917   O1040   1.282   .     A
C917   O1033   1.282   .     A
C918   O1041   1.282   .     A
C918   O1034   1.282   .     A
C919   C936    1.386   .     A
C919   H965    1.083   .     S
C920   H966    1.083   .     S
C920   C934    1.386   .     A
C921   H967    1.083   .     S
C921   C933    1.386   .     A
C922   H969    1.083   .     S
C922   C932    1.386   .     A
C923   H970    1.083   .     S
C923   C931    1.386   .     A
C924   C956    1.405   .     A
C925   H971    1.083   .     S
C925   C930    1.386   .     A
C926   H972    1.083   .     S
C926   C929    1.386   .     A
C927   C928    1.386   .     A
C927   H973    1.083   .     S
C928   H974    1.083   .     S
C929   H975    1.083   .     S
C930   H976    1.083   .     S
C931   H977    1.083   .     S
C932   H978    1.083   .     S
C933   H980    1.083   .     S
C934   H981    1.083   .     S
C935   C334    1.406   1_565 A
C936   H982    1.083   .     S
C937   H983    1.083   .     S
C937   C953    1.386   .     A
C938   C952    1.386   .     A
C938   H984    1.083   .     S
C939   H985    1.083   .     S
C939   C951    1.386   .     A
C940   H986    1.083   .     S
C940   C950    1.386   .     A
C941   C949    1.386   .     A
C941   H987    1.083   .     S
C942   H988    1.083   .     S
C942   C948    1.386   .     A
C943   C947    1.386   .     A
C943   H989    1.083   .     S
C944   C945    1.386   .     A
C944   H991    1.083   .     S
C945   H992    1.083   .     S
C947   H993    1.083   .     S
C948   H994    1.083   .     S
C949   H995    1.083   .     S
C950   H996    1.083   .     S
C951   H997    1.083   .     S
C952   H998    1.083   .     S
C953   H999    1.083   .     S
C955   C588    1.416   1_655 A
O1005  Zn1068  1.948   .     S
O1005  Zn1057  1.948   .     S
O1005  Zn1060  1.948   .     S
O1006  Zn1059  1.948   .     S
O1006  C358    1.278   1_565 S
O1007  C627    1.278   1_655 A
O1007  Zn1062  1.948   .     S
O1008  Zn1061  1.948   .     S
O1009  Zn1071  1.948   .     S
O1010  Zn1070  1.948   .     S
O1011  Zn1065  1.948   .     S
O1012  Zn1057  1.948   .     S
O1013  Zn1067  1.948   .     S
O1014  Zn1066  1.948   .     S
O1015  Zn1069  1.948   .     S
O1016  Zn1065  1.948   .     S
O1016  Zn1069  1.948   .     S
O1016  Zn1063  1.948   .     S
O1017  Zn1068  1.948   .     S
O1018  Zn1060  1.937   .     S
O1019  Zn1059  1.937   .     S
O1020  Zn1062  1.937   .     S
O1021  Zn1061  1.937   .     S
O1022  Zn1064  1.937   .     S
O1023  Zn1063  1.937   .     S
O1024  Zn1058  1.937   .     S
O1025  Zn1072  1.937   .     S
O1026  Zn1059  1.937   .     S
O1027  Zn1058  1.948   .     S
O1027  Zn1066  1.948   .     S
O1027  Zn1070  1.948   .     S
O1028  Zn1060  1.937   .     S
O1029  Zn1072  1.937   .     S
O1030  Zn1058  1.937   .     S
O1031  Zn1063  1.937   .     S
O1032  Zn1064  1.937   .     S
O1033  Zn1061  1.937   .     S
O1034  Zn1062  1.937   .     S
O1035  Zn799   1.937   1_655 S
O1036  Zn1066  1.937   .     S
O1037  Zn533   1.937   1_565 S
O1038  Zn1061  1.948   .     S
O1038  Zn1067  1.948   .     S
O1038  Zn1071  1.948   .     S
O1039  Zn1068  1.937   .     S
O1040  Zn1071  1.937   .     S
O1041  Zn802   1.937   1_655 S
O1042  Zn1065  1.937   .     S
O1043  Zn521   1.937   1_565 S
O1044  Zn798   1.937   1_655 S
O1045  Zn1067  1.937   .     S
O1046  Zn1057  1.937   .     S
O1047  Zn529   1.937   1_565 S
O1048  Zn1070  1.937   .     S
O1049  Zn1064  1.948   .     S
O1049  C357    1.278   1_565 A
O1050  Zn803   1.937   1_655 S
O1051  Zn532   1.937   1_565 S
O1052  Zn1069  1.937   .     S
O1053  Zn1063  1.948   .     S
O1054  Zn1058  1.948   .     S
O1055  C628    1.278   1_655 A
O1055  Zn1072  1.948   .     S
O1056  Zn1060  1.948   .     S
Zn1059 O480    1.948   1_565 S
Zn1062 O759    1.948   1_655 S
Zn1064 O469    1.948   1_565 S
Zn1072 O770    1.948   1_655 S
