data_str_m1_o10_o18_pcu_sym.27
_audit_creation_date              2020-01-03
_audit_creation_method            'Materials Studio'
_symmetry_space_group_name_H-M    'P1'
_symmetry_Int_Tables_number       1
_symmetry_cell_setting            triclinic
loop_
_symmetry_equiv_pos_as_xyz
  x,y,z
_cell_length_a                    32.5169
_cell_length_b                    32.5241
_cell_length_c                    35.7115
_cell_angle_alpha                 98.2972
_cell_angle_beta                  72.8048
_cell_angle_gamma                 98.5543
loop_
_atom_site_label
_atom_site_type_symbol
_atom_site_fract_x
_atom_site_fract_y
_atom_site_fract_z
_atom_site_U_iso_or_equiv
_atom_site_adp_type
_atom_site_occupancy
C1     C     0.05246   0.16000   0.25876   0.00000  Uiso   1.00
C2     C     0.21570   0.15353   0.46003   0.00000  Uiso   1.00
C3     C     0.23823   0.13341   0.47866   0.00000  Uiso   1.00
C4     C     0.28108   0.17357   0.24115   0.00000  Uiso   1.00
C5     C     0.21958   0.12700   0.01900   0.00000  Uiso   1.00
C6     C     0.18553   0.15081   0.04142   0.00000  Uiso   1.00
C7     C     0.23467   0.09943   0.03837   0.00000  Uiso   1.00
C8     C     0.22767   0.10696   0.07979   0.00000  Uiso   1.00
C9     C     0.17679   0.15573   0.08258   0.00000  Uiso   1.00
C10    C     0.32714   0.17613   0.23742   0.00000  Uiso   1.00
C11    C     0.00704   0.15782   0.26227   0.00000  Uiso   1.00
C12    C     0.09600   0.21481   0.42345   0.00000  Uiso   1.00
C13    C     0.18083   0.32215   0.23805   0.00000  Uiso   1.00
C14    C     0.15141   0.01213   0.26217   0.00000  Uiso   1.00
C15    C     0.15586   0.05614   0.25893   0.00000  Uiso   1.00
C16    C     0.17684   0.27771   0.24135   0.00000  Uiso   1.00
C17    C     0.18875   0.14484   0.14403   0.00000  Uiso   1.00
C18    C     0.14457   0.18742   0.35647   0.00000  Uiso   1.00
C19    C     0.13290   0.19496   0.40017   0.00000  Uiso   1.00
C20    C     0.19868   0.13579   0.10132   0.00000  Uiso   1.00
C21    C     0.08692   0.21892   0.46447   0.00000  Uiso   1.00
C22    C     0.28456   0.12554   0.45591   0.00000  Uiso   1.00
C23    C     0.15918   0.18029   0.41915   0.00000  Uiso   1.00
C24    C     0.31752   0.14970   0.47624   0.00000  Uiso   1.00
C25    C     0.15009   0.18449   0.46055   0.00000  Uiso   1.00
C26    C     0.11273   0.20333   0.48297   0.00000  Uiso   1.00
C27    C     0.17578   0.16874   0.48037   0.00000  Uiso   1.00
C28    C     0.16176   0.16954   0.02208   0.00000  Uiso   1.00
C29    C     0.12348   0.18771   0.04309   0.00000  Uiso   1.00
C30    C     0.10019   0.20517   0.02388   0.00000  Uiso   1.00
H31    H     0.07105   0.21880   0.04121   0.00000  Uiso   1.00
H32    H     0.23096   0.15846   0.42961   0.00000  Uiso   1.00
H33    H     0.23676   0.31945   0.02981   0.00000  Uiso   1.00
H34    H     0.29210   0.13678   0.12438   0.00000  Uiso   1.00
H35    H     0.31317   0.18347   0.48164   0.00000  Uiso   1.00
H36    H     0.31415   0.13780   0.00469   0.00000  Uiso   1.00
H37    H     0.01749   0.14600   0.45704   0.00000  Uiso   1.00
H38    H     0.28874   0.09201   0.45051   0.00000  Uiso   1.00
H39    H     0.29328   0.13588   0.42593   0.00000  Uiso   1.00
H40    H     0.09577   0.29294   0.39369   0.00000  Uiso   1.00
H41    H     0.01701   0.19289   0.21440   0.00000  Uiso   1.00
H42    H     0.31781   0.14119   0.28569   0.00000  Uiso   1.00
H43    H     0.20797   0.00270   0.21582   0.00000  Uiso   1.00
H44    H     0.12390   0.33236   0.28450   0.00000  Uiso   1.00
H45    H     0.15477   0.17703   0.10103   0.00000  Uiso   1.00
H46    H     0.05858   0.23335   0.48246   0.00000  Uiso   1.00
H47    H     0.18586   0.16411   0.40083   0.00000  Uiso   1.00
H48    H     0.10962   0.18781   0.07447   0.00000  Uiso   1.00
O49    O     0.16667   0.16667   0.25000   0.00000  Uiso   1.00
O50    O     0.15693   0.12393   0.16625   0.00000  Uiso   1.00
O51    O     0.12687   0.20646   0.33749   0.00000  Uiso   1.00
O52    O     0.21088   0.17493   0.15877   0.00000  Uiso   1.00
O53    O     0.17198   0.16135   0.33749   0.00000  Uiso   1.00
O54    O     0.22899   0.03876   0.47937   0.00000  Uiso   1.00
O55    O     0.29603   0.04888   0.49959   0.00000  Uiso   1.00
O56    O     0.22639   0.01243   0.04488   0.00000  Uiso   1.00
O57    O     0.22357   0.04731   0.12567   0.00000  Uiso   1.00
O58    O     0.29373   0.06290   0.07773   0.00000  Uiso   1.00
O59    O     0.27127   0.11545   0.13944   0.00000  Uiso   1.00
O60    O     0.17849   0.08101   0.27821   0.00000  Uiso   1.00
O61    O     0.04104   0.19739   0.37859   0.00000  Uiso   1.00
O62    O     0.02102   0.24867   0.43601   0.00000  Uiso   1.00
O63    O     0.08318   0.27183   0.37600   0.00000  Uiso   1.00
O64    O     0.14581   0.26136   0.26767   0.00000  Uiso   1.00
O65    O     0.07452   0.13251   0.23607   0.00000  Uiso   1.00
O66    O     0.26785   0.19179   0.21806   0.00000  Uiso   1.00
O67    O     0.06990   0.18960   0.27820   0.00000  Uiso   1.00
O68    O     0.25440   0.15277   0.26768   0.00000  Uiso   1.00
O69    O     0.13800   0.06903   0.23607   0.00000  Uiso   1.00
O70    O     0.20437   0.25527   0.21806   0.00000  Uiso   1.00
S71    S     0.24770   0.04929   0.01384   0.00000  Uiso   1.00
S72    S     0.25474   0.08147   0.10520   0.00000  Uiso   1.00
S73    S     0.05843   0.23279   0.40374   0.00000  Uiso   1.00
Zn74   Zn    0.19244   0.14090   0.28278   0.00000  Uiso   1.00
Zn75   Zn    0.13459   0.12378   0.22258   0.00000  Uiso   1.00
Zn76   Zn    0.21166   0.19664   0.21188   0.00000  Uiso   1.00
Zn77   Zn    0.12798   0.20535   0.28277   0.00000  Uiso   1.00
C78    C     0.38579   0.16000   0.25876   0.00000  Uiso   1.00
C79    C     0.54903   0.15353   0.46003   0.00000  Uiso   1.00
C80    C     0.57156   0.13341   0.47866   0.00000  Uiso   1.00
C81    C     0.61442   0.17357   0.24115   0.00000  Uiso   1.00
C82    C     0.55292   0.12700   0.01900   0.00000  Uiso   1.00
C83    C     0.51886   0.15081   0.04142   0.00000  Uiso   1.00
C84    C     0.56801   0.09943   0.03837   0.00000  Uiso   1.00
C85    C     0.56100   0.10696   0.07979   0.00000  Uiso   1.00
C86    C     0.51013   0.15573   0.08258   0.00000  Uiso   1.00
C87    C     0.66047   0.17613   0.23742   0.00000  Uiso   1.00
C88    C     0.34038   0.15782   0.26227   0.00000  Uiso   1.00
C89    C     0.42933   0.21481   0.42345   0.00000  Uiso   1.00
C90    C     0.51416   0.32215   0.23805   0.00000  Uiso   1.00
C91    C     0.48475   0.01213   0.26217   0.00000  Uiso   1.00
C92    C     0.48919   0.05614   0.25893   0.00000  Uiso   1.00
C93    C     0.51017   0.27771   0.24135   0.00000  Uiso   1.00
C94    C     0.52208   0.14484   0.14403   0.00000  Uiso   1.00
C95    C     0.47790   0.18742   0.35647   0.00000  Uiso   1.00
C96    C     0.46623   0.19496   0.40017   0.00000  Uiso   1.00
C97    C     0.53202   0.13579   0.10132   0.00000  Uiso   1.00
C98    C     0.42026   0.21892   0.46447   0.00000  Uiso   1.00
C99    C     0.61790   0.12554   0.45591   0.00000  Uiso   1.00
C100   C     0.49252   0.18029   0.41915   0.00000  Uiso   1.00
C101   C     0.65086   0.14970   0.47624   0.00000  Uiso   1.00
C102   C     0.48343   0.18449   0.46055   0.00000  Uiso   1.00
C103   C     0.44606   0.20333   0.48297   0.00000  Uiso   1.00
C104   C     0.50911   0.16874   0.48037   0.00000  Uiso   1.00
C105   C     0.49509   0.16954   0.02208   0.00000  Uiso   1.00
C106   C     0.45681   0.18771   0.04309   0.00000  Uiso   1.00
C107   C     0.43352   0.20517   0.02388   0.00000  Uiso   1.00
H108   H     0.40438   0.21880   0.04121   0.00000  Uiso   1.00
H109   H     0.56430   0.15846   0.42961   0.00000  Uiso   1.00
H110   H     0.57009   0.31945   0.02981   0.00000  Uiso   1.00
H111   H     0.62543   0.13678   0.12438   0.00000  Uiso   1.00
H112   H     0.64651   0.18347   0.48164   0.00000  Uiso   1.00
H113   H     0.64748   0.13780   0.00469   0.00000  Uiso   1.00
H114   H     0.35083   0.14600   0.45704   0.00000  Uiso   1.00
H115   H     0.62207   0.09201   0.45051   0.00000  Uiso   1.00
H116   H     0.62661   0.13588   0.42593   0.00000  Uiso   1.00
H117   H     0.42910   0.29294   0.39369   0.00000  Uiso   1.00
H118   H     0.35034   0.19289   0.21440   0.00000  Uiso   1.00
H119   H     0.65115   0.14119   0.28569   0.00000  Uiso   1.00
H120   H     0.54131   0.00270   0.21582   0.00000  Uiso   1.00
H121   H     0.45724   0.33236   0.28450   0.00000  Uiso   1.00
H122   H     0.48810   0.17703   0.10103   0.00000  Uiso   1.00
H123   H     0.39192   0.23335   0.48246   0.00000  Uiso   1.00
H124   H     0.51920   0.16411   0.40083   0.00000  Uiso   1.00
H125   H     0.44295   0.18781   0.07447   0.00000  Uiso   1.00
O126   O     0.50000   0.16667   0.25000   0.00000  Uiso   1.00
O127   O     0.49027   0.12393   0.16625   0.00000  Uiso   1.00
O128   O     0.46020   0.20646   0.33749   0.00000  Uiso   1.00
O129   O     0.54421   0.17493   0.15877   0.00000  Uiso   1.00
O130   O     0.50532   0.16135   0.33749   0.00000  Uiso   1.00
O131   O     0.56233   0.03876   0.47937   0.00000  Uiso   1.00
O132   O     0.62936   0.04888   0.49959   0.00000  Uiso   1.00
O133   O     0.55973   0.01243   0.04488   0.00000  Uiso   1.00
O134   O     0.55691   0.04731   0.12567   0.00000  Uiso   1.00
O135   O     0.62706   0.06290   0.07773   0.00000  Uiso   1.00
O136   O     0.60461   0.11545   0.13944   0.00000  Uiso   1.00
O137   O     0.51182   0.08101   0.27821   0.00000  Uiso   1.00
O138   O     0.37438   0.19739   0.37859   0.00000  Uiso   1.00
O139   O     0.35435   0.24867   0.43601   0.00000  Uiso   1.00
O140   O     0.41652   0.27183   0.37600   0.00000  Uiso   1.00
O141   O     0.47914   0.26136   0.26767   0.00000  Uiso   1.00
O142   O     0.40785   0.13251   0.23607   0.00000  Uiso   1.00
O143   O     0.60119   0.19179   0.21806   0.00000  Uiso   1.00
O144   O     0.40323   0.18960   0.27820   0.00000  Uiso   1.00
O145   O     0.58773   0.15277   0.26768   0.00000  Uiso   1.00
O146   O     0.47133   0.06903   0.23607   0.00000  Uiso   1.00
O147   O     0.53771   0.25527   0.21806   0.00000  Uiso   1.00
S148   S     0.58103   0.04929   0.01384   0.00000  Uiso   1.00
S149   S     0.58807   0.08147   0.10520   0.00000  Uiso   1.00
S150   S     0.39176   0.23279   0.40374   0.00000  Uiso   1.00
Zn151  Zn    0.52577   0.14090   0.28278   0.00000  Uiso   1.00
Zn152  Zn    0.46792   0.12378   0.22258   0.00000  Uiso   1.00
Zn153  Zn    0.54500   0.19664   0.21188   0.00000  Uiso   1.00
Zn154  Zn    0.46131   0.20535   0.28277   0.00000  Uiso   1.00
C155   C     0.71912   0.16000   0.25876   0.00000  Uiso   1.00
C156   C     0.88236   0.15353   0.46003   0.00000  Uiso   1.00
C157   C     0.90489   0.13341   0.47866   0.00000  Uiso   1.00
C158   C     0.94775   0.17357   0.24115   0.00000  Uiso   1.00
C159   C     0.88625   0.12700   0.01900   0.00000  Uiso   1.00
C160   C     0.85220   0.15081   0.04142   0.00000  Uiso   1.00
C161   C     0.90134   0.09943   0.03837   0.00000  Uiso   1.00
C162   C     0.89433   0.10696   0.07979   0.00000  Uiso   1.00
C163   C     0.84346   0.15573   0.08258   0.00000  Uiso   1.00
C164   C     0.99380   0.17613   0.23742   0.00000  Uiso   1.00
C165   C     0.67371   0.15782   0.26227   0.00000  Uiso   1.00
C166   C     0.76267   0.21481   0.42345   0.00000  Uiso   1.00
C167   C     0.84749   0.32215   0.23805   0.00000  Uiso   1.00
C168   C     0.81808   0.01213   0.26217   0.00000  Uiso   1.00
C169   C     0.82253   0.05614   0.25893   0.00000  Uiso   1.00
C170   C     0.84350   0.27771   0.24135   0.00000  Uiso   1.00
C171   C     0.85541   0.14484   0.14403   0.00000  Uiso   1.00
C172   C     0.81124   0.18742   0.35647   0.00000  Uiso   1.00
C173   C     0.79957   0.19496   0.40017   0.00000  Uiso   1.00
C174   C     0.86535   0.13579   0.10132   0.00000  Uiso   1.00
C175   C     0.75359   0.21892   0.46447   0.00000  Uiso   1.00
C176   C     0.95123   0.12554   0.45591   0.00000  Uiso   1.00
C177   C     0.82585   0.18029   0.41915   0.00000  Uiso   1.00
C178   C     0.98419   0.14970   0.47624   0.00000  Uiso   1.00
C179   C     0.81676   0.18449   0.46055   0.00000  Uiso   1.00
C180   C     0.77939   0.20333   0.48297   0.00000  Uiso   1.00
C181   C     0.84244   0.16874   0.48037   0.00000  Uiso   1.00
C182   C     0.82843   0.16954   0.02208   0.00000  Uiso   1.00
C183   C     0.79015   0.18771   0.04309   0.00000  Uiso   1.00
C184   C     0.76685   0.20517   0.02388   0.00000  Uiso   1.00
H185   H     0.73772   0.21880   0.04121   0.00000  Uiso   1.00
H186   H     0.89763   0.15846   0.42961   0.00000  Uiso   1.00
H187   H     0.90342   0.31945   0.02981   0.00000  Uiso   1.00
H188   H     0.95877   0.13678   0.12438   0.00000  Uiso   1.00
H189   H     0.97984   0.18347   0.48164   0.00000  Uiso   1.00
H190   H     0.98082   0.13780   0.00469   0.00000  Uiso   1.00
H191   H     0.68416   0.14600   0.45704   0.00000  Uiso   1.00
H192   H     0.95541   0.09201   0.45051   0.00000  Uiso   1.00
H193   H     0.95995   0.13588   0.42593   0.00000  Uiso   1.00
H194   H     0.76243   0.29294   0.39369   0.00000  Uiso   1.00
H195   H     0.68368   0.19289   0.21440   0.00000  Uiso   1.00
H196   H     0.98448   0.14119   0.28569   0.00000  Uiso   1.00
H197   H     0.87464   0.00270   0.21582   0.00000  Uiso   1.00
H198   H     0.79057   0.33236   0.28450   0.00000  Uiso   1.00
H199   H     0.82144   0.17703   0.10103   0.00000  Uiso   1.00
H200   H     0.72525   0.23335   0.48246   0.00000  Uiso   1.00
H201   H     0.85253   0.16411   0.40083   0.00000  Uiso   1.00
H202   H     0.77629   0.18781   0.07447   0.00000  Uiso   1.00
O203   O     0.83333   0.16667   0.25000   0.00000  Uiso   1.00
O204   O     0.82360   0.12393   0.16625   0.00000  Uiso   1.00
O205   O     0.79354   0.20646   0.33749   0.00000  Uiso   1.00
O206   O     0.87755   0.17493   0.15877   0.00000  Uiso   1.00
O207   O     0.83865   0.16135   0.33749   0.00000  Uiso   1.00
O208   O     0.89566   0.03876   0.47937   0.00000  Uiso   1.00
O209   O     0.96270   0.04888   0.49959   0.00000  Uiso   1.00
O210   O     0.89306   0.01243   0.04488   0.00000  Uiso   1.00
O211   O     0.89024   0.04731   0.12567   0.00000  Uiso   1.00
O212   O     0.96039   0.06290   0.07773   0.00000  Uiso   1.00
O213   O     0.93794   0.11545   0.13944   0.00000  Uiso   1.00
O214   O     0.84515   0.08101   0.27821   0.00000  Uiso   1.00
O215   O     0.70771   0.19739   0.37859   0.00000  Uiso   1.00
O216   O     0.68769   0.24867   0.43601   0.00000  Uiso   1.00
O217   O     0.74985   0.27183   0.37600   0.00000  Uiso   1.00
O218   O     0.81247   0.26136   0.26767   0.00000  Uiso   1.00
O219   O     0.74119   0.13251   0.23607   0.00000  Uiso   1.00
O220   O     0.93452   0.19179   0.21806   0.00000  Uiso   1.00
O221   O     0.73656   0.18960   0.27820   0.00000  Uiso   1.00
O222   O     0.92106   0.15277   0.26768   0.00000  Uiso   1.00
O223   O     0.80467   0.06903   0.23607   0.00000  Uiso   1.00
O224   O     0.87104   0.25527   0.21806   0.00000  Uiso   1.00
S225   S     0.91437   0.04929   0.01384   0.00000  Uiso   1.00
S226   S     0.92141   0.08147   0.10520   0.00000  Uiso   1.00
S227   S     0.72510   0.23279   0.40374   0.00000  Uiso   1.00
Zn228  Zn    0.85910   0.14090   0.28278   0.00000  Uiso   1.00
Zn229  Zn    0.80125   0.12378   0.22258   0.00000  Uiso   1.00
Zn230  Zn    0.87833   0.19664   0.21188   0.00000  Uiso   1.00
Zn231  Zn    0.79465   0.20535   0.28277   0.00000  Uiso   1.00
C232   C     0.05246   0.49334   0.25876   0.00000  Uiso   1.00
C233   C     0.21570   0.48686   0.46003   0.00000  Uiso   1.00
C234   C     0.23823   0.46674   0.47866   0.00000  Uiso   1.00
C235   C     0.28108   0.50691   0.24115   0.00000  Uiso   1.00
C236   C     0.21958   0.46033   0.01900   0.00000  Uiso   1.00
C237   C     0.18553   0.48414   0.04142   0.00000  Uiso   1.00
C238   C     0.23467   0.43277   0.03837   0.00000  Uiso   1.00
C239   C     0.22767   0.44029   0.07979   0.00000  Uiso   1.00
C240   C     0.17679   0.48907   0.08258   0.00000  Uiso   1.00
C241   C     0.32714   0.50946   0.23742   0.00000  Uiso   1.00
C242   C     0.00704   0.49116   0.26227   0.00000  Uiso   1.00
C243   C     0.09600   0.54814   0.42345   0.00000  Uiso   1.00
C244   C     0.18083   0.65548   0.23805   0.00000  Uiso   1.00
C245   C     0.15141   0.34546   0.26217   0.00000  Uiso   1.00
C246   C     0.15586   0.38947   0.25893   0.00000  Uiso   1.00
C247   C     0.17684   0.61104   0.24135   0.00000  Uiso   1.00
C248   C     0.18875   0.47818   0.14403   0.00000  Uiso   1.00
C249   C     0.14457   0.52076   0.35647   0.00000  Uiso   1.00
C250   C     0.13290   0.52829   0.40017   0.00000  Uiso   1.00
C251   C     0.19868   0.46912   0.10132   0.00000  Uiso   1.00
C252   C     0.08692   0.55226   0.46447   0.00000  Uiso   1.00
C253   C     0.28456   0.45887   0.45591   0.00000  Uiso   1.00
C254   C     0.15918   0.51362   0.41915   0.00000  Uiso   1.00
C255   C     0.31752   0.48303   0.47624   0.00000  Uiso   1.00
C256   C     0.15009   0.51782   0.46055   0.00000  Uiso   1.00
C257   C     0.11273   0.53666   0.48297   0.00000  Uiso   1.00
C258   C     0.17578   0.50207   0.48037   0.00000  Uiso   1.00
C259   C     0.16176   0.50288   0.02208   0.00000  Uiso   1.00
C260   C     0.12348   0.52105   0.04309   0.00000  Uiso   1.00
C261   C     0.10019   0.53851   0.02388   0.00000  Uiso   1.00
H262   H     0.07105   0.55214   0.04121   0.00000  Uiso   1.00
H263   H     0.23096   0.49180   0.42961   0.00000  Uiso   1.00
H264   H     0.23676   0.65278   0.02981   0.00000  Uiso   1.00
H265   H     0.29210   0.47011   0.12438   0.00000  Uiso   1.00
H266   H     0.31317   0.51681   0.48164   0.00000  Uiso   1.00
H267   H     0.31415   0.47113   0.00469   0.00000  Uiso   1.00
H268   H     0.01749   0.47934   0.45704   0.00000  Uiso   1.00
H269   H     0.28874   0.42535   0.45051   0.00000  Uiso   1.00
H270   H     0.29328   0.46921   0.42593   0.00000  Uiso   1.00
H271   H     0.09577   0.62627   0.39369   0.00000  Uiso   1.00
H272   H     0.01701   0.52622   0.21440   0.00000  Uiso   1.00
H273   H     0.31781   0.47452   0.28569   0.00000  Uiso   1.00
H274   H     0.20797   0.33603   0.21582   0.00000  Uiso   1.00
H275   H     0.12390   0.66569   0.28450   0.00000  Uiso   1.00
H276   H     0.15477   0.51036   0.10103   0.00000  Uiso   1.00
H277   H     0.05858   0.56669   0.48246   0.00000  Uiso   1.00
H278   H     0.18586   0.49745   0.40083   0.00000  Uiso   1.00
H279   H     0.10962   0.52114   0.07447   0.00000  Uiso   1.00
O280   O     0.16667   0.50000   0.25000   0.00000  Uiso   1.00
O281   O     0.15693   0.45726   0.16625   0.00000  Uiso   1.00
O282   O     0.12687   0.53979   0.33749   0.00000  Uiso   1.00
O283   O     0.21088   0.50826   0.15877   0.00000  Uiso   1.00
O284   O     0.17198   0.49468   0.33749   0.00000  Uiso   1.00
O285   O     0.22899   0.37210   0.47937   0.00000  Uiso   1.00
O286   O     0.29603   0.38221   0.49959   0.00000  Uiso   1.00
O287   O     0.22639   0.34576   0.04488   0.00000  Uiso   1.00
O288   O     0.22357   0.38064   0.12567   0.00000  Uiso   1.00
O289   O     0.29373   0.39624   0.07773   0.00000  Uiso   1.00
O290   O     0.27127   0.44879   0.13944   0.00000  Uiso   1.00
O291   O     0.17849   0.41434   0.27821   0.00000  Uiso   1.00
O292   O     0.04104   0.53072   0.37859   0.00000  Uiso   1.00
O293   O     0.02102   0.58200   0.43601   0.00000  Uiso   1.00
O294   O     0.08318   0.60517   0.37600   0.00000  Uiso   1.00
O295   O     0.14581   0.59469   0.26767   0.00000  Uiso   1.00
O296   O     0.07452   0.46584   0.23607   0.00000  Uiso   1.00
O297   O     0.26785   0.52512   0.21806   0.00000  Uiso   1.00
O298   O     0.06990   0.52293   0.27820   0.00000  Uiso   1.00
O299   O     0.25440   0.48610   0.26768   0.00000  Uiso   1.00
O300   O     0.13800   0.40236   0.23607   0.00000  Uiso   1.00
O301   O     0.20437   0.58860   0.21806   0.00000  Uiso   1.00
S302   S     0.24770   0.38262   0.01384   0.00000  Uiso   1.00
S303   S     0.25474   0.41481   0.10520   0.00000  Uiso   1.00
S304   S     0.05843   0.56612   0.40374   0.00000  Uiso   1.00
Zn305  Zn    0.19244   0.47423   0.28278   0.00000  Uiso   1.00
Zn306  Zn    0.13459   0.45711   0.22258   0.00000  Uiso   1.00
Zn307  Zn    0.21166   0.52997   0.21188   0.00000  Uiso   1.00
Zn308  Zn    0.12798   0.53868   0.28277   0.00000  Uiso   1.00
C309   C     0.38579   0.49334   0.25876   0.00000  Uiso   1.00
C310   C     0.54903   0.48686   0.46003   0.00000  Uiso   1.00
C311   C     0.57156   0.46674   0.47866   0.00000  Uiso   1.00
C312   C     0.61442   0.50691   0.24115   0.00000  Uiso   1.00
C313   C     0.55292   0.46033   0.01900   0.00000  Uiso   1.00
C314   C     0.51886   0.48414   0.04142   0.00000  Uiso   1.00
C315   C     0.56801   0.43277   0.03837   0.00000  Uiso   1.00
C316   C     0.56100   0.44029   0.07979   0.00000  Uiso   1.00
C317   C     0.51013   0.48907   0.08258   0.00000  Uiso   1.00
C318   C     0.66047   0.50946   0.23742   0.00000  Uiso   1.00
C319   C     0.34038   0.49116   0.26227   0.00000  Uiso   1.00
C320   C     0.42933   0.54814   0.42345   0.00000  Uiso   1.00
C321   C     0.51416   0.65548   0.23805   0.00000  Uiso   1.00
C322   C     0.48475   0.34546   0.26217   0.00000  Uiso   1.00
C323   C     0.48919   0.38947   0.25893   0.00000  Uiso   1.00
C324   C     0.51017   0.61104   0.24135   0.00000  Uiso   1.00
C325   C     0.52208   0.47818   0.14403   0.00000  Uiso   1.00
C326   C     0.47790   0.52076   0.35647   0.00000  Uiso   1.00
C327   C     0.46623   0.52829   0.40017   0.00000  Uiso   1.00
C328   C     0.53202   0.46912   0.10132   0.00000  Uiso   1.00
C329   C     0.42026   0.55226   0.46447   0.00000  Uiso   1.00
C330   C     0.61790   0.45887   0.45591   0.00000  Uiso   1.00
C331   C     0.49252   0.51362   0.41915   0.00000  Uiso   1.00
C332   C     0.65086   0.48303   0.47624   0.00000  Uiso   1.00
C333   C     0.48343   0.51782   0.46055   0.00000  Uiso   1.00
C334   C     0.44606   0.53666   0.48297   0.00000  Uiso   1.00
C335   C     0.50911   0.50207   0.48037   0.00000  Uiso   1.00
C336   C     0.49509   0.50288   0.02208   0.00000  Uiso   1.00
C337   C     0.45681   0.52105   0.04309   0.00000  Uiso   1.00
C338   C     0.43352   0.53851   0.02388   0.00000  Uiso   1.00
H339   H     0.40438   0.55214   0.04121   0.00000  Uiso   1.00
H340   H     0.56430   0.49180   0.42961   0.00000  Uiso   1.00
H341   H     0.57009   0.65278   0.02981   0.00000  Uiso   1.00
H342   H     0.62543   0.47011   0.12438   0.00000  Uiso   1.00
H343   H     0.64651   0.51681   0.48164   0.00000  Uiso   1.00
H344   H     0.64748   0.47113   0.00469   0.00000  Uiso   1.00
H345   H     0.35083   0.47934   0.45704   0.00000  Uiso   1.00
H346   H     0.62207   0.42535   0.45051   0.00000  Uiso   1.00
H347   H     0.62661   0.46921   0.42593   0.00000  Uiso   1.00
H348   H     0.42910   0.62627   0.39369   0.00000  Uiso   1.00
H349   H     0.35034   0.52622   0.21440   0.00000  Uiso   1.00
H350   H     0.65115   0.47452   0.28569   0.00000  Uiso   1.00
H351   H     0.54131   0.33603   0.21582   0.00000  Uiso   1.00
H352   H     0.45724   0.66569   0.28450   0.00000  Uiso   1.00
H353   H     0.48810   0.51036   0.10103   0.00000  Uiso   1.00
H354   H     0.39192   0.56669   0.48246   0.00000  Uiso   1.00
H355   H     0.51920   0.49745   0.40083   0.00000  Uiso   1.00
H356   H     0.44295   0.52114   0.07447   0.00000  Uiso   1.00
O357   O     0.50000   0.50000   0.25000   0.00000  Uiso   1.00
O358   O     0.49027   0.45726   0.16625   0.00000  Uiso   1.00
O359   O     0.46020   0.53979   0.33749   0.00000  Uiso   1.00
O360   O     0.54421   0.50826   0.15877   0.00000  Uiso   1.00
O361   O     0.50532   0.49468   0.33749   0.00000  Uiso   1.00
O362   O     0.56233   0.37210   0.47937   0.00000  Uiso   1.00
O363   O     0.62936   0.38221   0.49959   0.00000  Uiso   1.00
O364   O     0.55973   0.34576   0.04488   0.00000  Uiso   1.00
O365   O     0.55691   0.38064   0.12567   0.00000  Uiso   1.00
O366   O     0.62706   0.39624   0.07773   0.00000  Uiso   1.00
O367   O     0.60461   0.44879   0.13944   0.00000  Uiso   1.00
O368   O     0.51182   0.41434   0.27821   0.00000  Uiso   1.00
O369   O     0.37438   0.53072   0.37859   0.00000  Uiso   1.00
O370   O     0.35435   0.58200   0.43601   0.00000  Uiso   1.00
O371   O     0.41652   0.60517   0.37600   0.00000  Uiso   1.00
O372   O     0.47914   0.59469   0.26767   0.00000  Uiso   1.00
O373   O     0.40785   0.46584   0.23607   0.00000  Uiso   1.00
O374   O     0.60119   0.52512   0.21806   0.00000  Uiso   1.00
O375   O     0.40323   0.52293   0.27820   0.00000  Uiso   1.00
O376   O     0.58773   0.48610   0.26768   0.00000  Uiso   1.00
O377   O     0.47133   0.40236   0.23607   0.00000  Uiso   1.00
O378   O     0.53771   0.58860   0.21806   0.00000  Uiso   1.00
S379   S     0.58103   0.38262   0.01384   0.00000  Uiso   1.00
S380   S     0.58807   0.41481   0.10520   0.00000  Uiso   1.00
S381   S     0.39176   0.56612   0.40374   0.00000  Uiso   1.00
Zn382  Zn    0.52577   0.47423   0.28278   0.00000  Uiso   1.00
Zn383  Zn    0.46792   0.45711   0.22258   0.00000  Uiso   1.00
Zn384  Zn    0.54500   0.52997   0.21188   0.00000  Uiso   1.00
Zn385  Zn    0.46131   0.53868   0.28277   0.00000  Uiso   1.00
C386   C     0.71912   0.49334   0.25876   0.00000  Uiso   1.00
C387   C     0.88236   0.48686   0.46003   0.00000  Uiso   1.00
C388   C     0.90489   0.46674   0.47866   0.00000  Uiso   1.00
C389   C     0.94775   0.50691   0.24115   0.00000  Uiso   1.00
C390   C     0.88625   0.46033   0.01900   0.00000  Uiso   1.00
C391   C     0.85220   0.48414   0.04142   0.00000  Uiso   1.00
C392   C     0.90134   0.43277   0.03837   0.00000  Uiso   1.00
C393   C     0.89433   0.44029   0.07979   0.00000  Uiso   1.00
C394   C     0.84346   0.48907   0.08258   0.00000  Uiso   1.00
C395   C     0.99380   0.50946   0.23742   0.00000  Uiso   1.00
C396   C     0.67371   0.49116   0.26227   0.00000  Uiso   1.00
C397   C     0.76267   0.54814   0.42345   0.00000  Uiso   1.00
C398   C     0.84749   0.65548   0.23805   0.00000  Uiso   1.00
C399   C     0.81808   0.34546   0.26217   0.00000  Uiso   1.00
C400   C     0.82253   0.38947   0.25893   0.00000  Uiso   1.00
C401   C     0.84350   0.61104   0.24135   0.00000  Uiso   1.00
C402   C     0.85541   0.47818   0.14403   0.00000  Uiso   1.00
C403   C     0.81124   0.52076   0.35647   0.00000  Uiso   1.00
C404   C     0.79957   0.52829   0.40017   0.00000  Uiso   1.00
C405   C     0.86535   0.46912   0.10132   0.00000  Uiso   1.00
C406   C     0.75359   0.55226   0.46447   0.00000  Uiso   1.00
C407   C     0.95123   0.45887   0.45591   0.00000  Uiso   1.00
C408   C     0.82585   0.51362   0.41915   0.00000  Uiso   1.00
C409   C     0.98419   0.48303   0.47624   0.00000  Uiso   1.00
C410   C     0.81676   0.51782   0.46055   0.00000  Uiso   1.00
C411   C     0.77939   0.53666   0.48297   0.00000  Uiso   1.00
C412   C     0.84244   0.50207   0.48037   0.00000  Uiso   1.00
C413   C     0.82843   0.50288   0.02208   0.00000  Uiso   1.00
C414   C     0.79015   0.52105   0.04309   0.00000  Uiso   1.00
C415   C     0.76685   0.53851   0.02388   0.00000  Uiso   1.00
H416   H     0.73772   0.55214   0.04121   0.00000  Uiso   1.00
H417   H     0.89763   0.49180   0.42961   0.00000  Uiso   1.00
H418   H     0.90342   0.65278   0.02981   0.00000  Uiso   1.00
H419   H     0.95877   0.47011   0.12438   0.00000  Uiso   1.00
H420   H     0.97984   0.51681   0.48164   0.00000  Uiso   1.00
H421   H     0.98082   0.47113   0.00469   0.00000  Uiso   1.00
H422   H     0.68416   0.47934   0.45704   0.00000  Uiso   1.00
H423   H     0.95541   0.42535   0.45051   0.00000  Uiso   1.00
H424   H     0.95995   0.46921   0.42593   0.00000  Uiso   1.00
H425   H     0.76243   0.62627   0.39369   0.00000  Uiso   1.00
H426   H     0.68368   0.52622   0.21440   0.00000  Uiso   1.00
H427   H     0.98448   0.47452   0.28569   0.00000  Uiso   1.00
H428   H     0.87464   0.33603   0.21582   0.00000  Uiso   1.00
H429   H     0.79057   0.66569   0.28450   0.00000  Uiso   1.00
H430   H     0.82144   0.51036   0.10103   0.00000  Uiso   1.00
H431   H     0.72525   0.56669   0.48246   0.00000  Uiso   1.00
H432   H     0.85253   0.49745   0.40083   0.00000  Uiso   1.00
H433   H     0.77629   0.52114   0.07447   0.00000  Uiso   1.00
O434   O     0.83333   0.50000   0.25000   0.00000  Uiso   1.00
O435   O     0.82360   0.45726   0.16625   0.00000  Uiso   1.00
O436   O     0.79354   0.53979   0.33749   0.00000  Uiso   1.00
O437   O     0.87755   0.50826   0.15877   0.00000  Uiso   1.00
O438   O     0.83865   0.49468   0.33749   0.00000  Uiso   1.00
O439   O     0.89566   0.37210   0.47937   0.00000  Uiso   1.00
O440   O     0.96270   0.38221   0.49959   0.00000  Uiso   1.00
O441   O     0.89306   0.34576   0.04488   0.00000  Uiso   1.00
O442   O     0.89024   0.38064   0.12567   0.00000  Uiso   1.00
O443   O     0.96039   0.39624   0.07773   0.00000  Uiso   1.00
O444   O     0.93794   0.44879   0.13944   0.00000  Uiso   1.00
O445   O     0.84515   0.41434   0.27821   0.00000  Uiso   1.00
O446   O     0.70771   0.53072   0.37859   0.00000  Uiso   1.00
O447   O     0.68769   0.58200   0.43601   0.00000  Uiso   1.00
O448   O     0.74985   0.60517   0.37600   0.00000  Uiso   1.00
O449   O     0.81247   0.59469   0.26767   0.00000  Uiso   1.00
O450   O     0.74119   0.46584   0.23607   0.00000  Uiso   1.00
O451   O     0.93452   0.52512   0.21806   0.00000  Uiso   1.00
O452   O     0.73656   0.52293   0.27820   0.00000  Uiso   1.00
O453   O     0.92106   0.48610   0.26768   0.00000  Uiso   1.00
O454   O     0.80467   0.40236   0.23607   0.00000  Uiso   1.00
O455   O     0.87104   0.58860   0.21806   0.00000  Uiso   1.00
S456   S     0.91437   0.38262   0.01384   0.00000  Uiso   1.00
S457   S     0.92141   0.41481   0.10520   0.00000  Uiso   1.00
S458   S     0.72510   0.56612   0.40374   0.00000  Uiso   1.00
Zn459  Zn    0.85910   0.47423   0.28278   0.00000  Uiso   1.00
Zn460  Zn    0.80125   0.45711   0.22258   0.00000  Uiso   1.00
Zn461  Zn    0.87833   0.52997   0.21188   0.00000  Uiso   1.00
Zn462  Zn    0.79465   0.53868   0.28277   0.00000  Uiso   1.00
C463   C     0.05246   0.82667   0.25876   0.00000  Uiso   1.00
C464   C     0.21570   0.82020   0.46003   0.00000  Uiso   1.00
C465   C     0.23823   0.80007   0.47866   0.00000  Uiso   1.00
C466   C     0.28108   0.84024   0.24115   0.00000  Uiso   1.00
C467   C     0.21958   0.79367   0.01900   0.00000  Uiso   1.00
C468   C     0.18553   0.81747   0.04142   0.00000  Uiso   1.00
C469   C     0.23467   0.76610   0.03837   0.00000  Uiso   1.00
C470   C     0.22767   0.77362   0.07979   0.00000  Uiso   1.00
C471   C     0.17679   0.82240   0.08258   0.00000  Uiso   1.00
C472   C     0.32714   0.84279   0.23742   0.00000  Uiso   1.00
C473   C     0.00704   0.82449   0.26227   0.00000  Uiso   1.00
C474   C     0.09600   0.88147   0.42345   0.00000  Uiso   1.00
C475   C     0.18083   0.98882   0.23805   0.00000  Uiso   1.00
C476   C     0.15141   0.67879   0.26217   0.00000  Uiso   1.00
C477   C     0.15586   0.72280   0.25893   0.00000  Uiso   1.00
C478   C     0.17684   0.94437   0.24135   0.00000  Uiso   1.00
C479   C     0.18875   0.81151   0.14403   0.00000  Uiso   1.00
C480   C     0.14457   0.85409   0.35647   0.00000  Uiso   1.00
C481   C     0.13290   0.86162   0.40017   0.00000  Uiso   1.00
C482   C     0.19868   0.80246   0.10132   0.00000  Uiso   1.00
C483   C     0.08692   0.88559   0.46447   0.00000  Uiso   1.00
C484   C     0.28456   0.79220   0.45591   0.00000  Uiso   1.00
C485   C     0.15918   0.84696   0.41915   0.00000  Uiso   1.00
C486   C     0.31752   0.81636   0.47624   0.00000  Uiso   1.00
C487   C     0.15009   0.85116   0.46055   0.00000  Uiso   1.00
C488   C     0.11273   0.87000   0.48297   0.00000  Uiso   1.00
C489   C     0.17578   0.83541   0.48037   0.00000  Uiso   1.00
C490   C     0.16176   0.83621   0.02208   0.00000  Uiso   1.00
C491   C     0.12348   0.85438   0.04309   0.00000  Uiso   1.00
C492   C     0.10019   0.87184   0.02388   0.00000  Uiso   1.00
H493   H     0.07105   0.88547   0.04121   0.00000  Uiso   1.00
H494   H     0.23096   0.82513   0.42961   0.00000  Uiso   1.00
H495   H     0.23676   0.98612   0.02981   0.00000  Uiso   1.00
H496   H     0.29210   0.80344   0.12438   0.00000  Uiso   1.00
H497   H     0.31317   0.85014   0.48164   0.00000  Uiso   1.00
H498   H     0.31415   0.80446   0.00469   0.00000  Uiso   1.00
H499   H     0.01749   0.81267   0.45704   0.00000  Uiso   1.00
H500   H     0.28874   0.75868   0.45051   0.00000  Uiso   1.00
H501   H     0.29328   0.80254   0.42593   0.00000  Uiso   1.00
H502   H     0.09577   0.95960   0.39369   0.00000  Uiso   1.00
H503   H     0.01701   0.85956   0.21440   0.00000  Uiso   1.00
H504   H     0.31781   0.80785   0.28569   0.00000  Uiso   1.00
H505   H     0.20797   0.66936   0.21582   0.00000  Uiso   1.00
H506   H     0.12390   0.99902   0.28450   0.00000  Uiso   1.00
H507   H     0.15477   0.84369   0.10103   0.00000  Uiso   1.00
H508   H     0.05858   0.90002   0.48246   0.00000  Uiso   1.00
H509   H     0.18586   0.83078   0.40083   0.00000  Uiso   1.00
H510   H     0.10962   0.85447   0.07447   0.00000  Uiso   1.00
O511   O     0.16667   0.83333   0.25000   0.00000  Uiso   1.00
O512   O     0.15693   0.79060   0.16625   0.00000  Uiso   1.00
O513   O     0.12687   0.87313   0.33749   0.00000  Uiso   1.00
O514   O     0.21088   0.84159   0.15877   0.00000  Uiso   1.00
O515   O     0.17198   0.82802   0.33749   0.00000  Uiso   1.00
O516   O     0.22899   0.70543   0.47937   0.00000  Uiso   1.00
O517   O     0.29603   0.71554   0.49959   0.00000  Uiso   1.00
O518   O     0.22639   0.67910   0.04488   0.00000  Uiso   1.00
O519   O     0.22357   0.71397   0.12567   0.00000  Uiso   1.00
O520   O     0.29373   0.72957   0.07773   0.00000  Uiso   1.00
O521   O     0.27127   0.78212   0.13944   0.00000  Uiso   1.00
O522   O     0.17849   0.74768   0.27821   0.00000  Uiso   1.00
O523   O     0.04104   0.86406   0.37859   0.00000  Uiso   1.00
O524   O     0.02102   0.91534   0.43601   0.00000  Uiso   1.00
O525   O     0.08318   0.93850   0.37600   0.00000  Uiso   1.00
O526   O     0.14581   0.92803   0.26767   0.00000  Uiso   1.00
O527   O     0.07452   0.79917   0.23607   0.00000  Uiso   1.00
O528   O     0.26785   0.85845   0.21806   0.00000  Uiso   1.00
O529   O     0.06990   0.85627   0.27820   0.00000  Uiso   1.00
O530   O     0.25440   0.81944   0.26768   0.00000  Uiso   1.00
O531   O     0.13800   0.73570   0.23607   0.00000  Uiso   1.00
O532   O     0.20437   0.92193   0.21806   0.00000  Uiso   1.00
S533   S     0.24770   0.71596   0.01384   0.00000  Uiso   1.00
S534   S     0.25474   0.74814   0.10520   0.00000  Uiso   1.00
S535   S     0.05843   0.89945   0.40374   0.00000  Uiso   1.00
Zn536  Zn    0.19244   0.80756   0.28278   0.00000  Uiso   1.00
Zn537  Zn    0.13459   0.79044   0.22258   0.00000  Uiso   1.00
Zn538  Zn    0.21166   0.86331   0.21188   0.00000  Uiso   1.00
Zn539  Zn    0.12798   0.87202   0.28277   0.00000  Uiso   1.00
C540   C     0.38579   0.82667   0.25876   0.00000  Uiso   1.00
C541   C     0.54903   0.82020   0.46003   0.00000  Uiso   1.00
C542   C     0.57156   0.80007   0.47866   0.00000  Uiso   1.00
C543   C     0.61442   0.84024   0.24115   0.00000  Uiso   1.00
C544   C     0.55292   0.79367   0.01900   0.00000  Uiso   1.00
C545   C     0.51886   0.81747   0.04142   0.00000  Uiso   1.00
C546   C     0.56801   0.76610   0.03837   0.00000  Uiso   1.00
C547   C     0.56100   0.77362   0.07979   0.00000  Uiso   1.00
C548   C     0.51013   0.82240   0.08258   0.00000  Uiso   1.00
C549   C     0.66047   0.84279   0.23742   0.00000  Uiso   1.00
C550   C     0.34038   0.82449   0.26227   0.00000  Uiso   1.00
C551   C     0.42933   0.88147   0.42345   0.00000  Uiso   1.00
C552   C     0.51416   0.98882   0.23805   0.00000  Uiso   1.00
C553   C     0.48475   0.67879   0.26217   0.00000  Uiso   1.00
C554   C     0.48919   0.72280   0.25893   0.00000  Uiso   1.00
C555   C     0.51017   0.94437   0.24135   0.00000  Uiso   1.00
C556   C     0.52208   0.81151   0.14403   0.00000  Uiso   1.00
C557   C     0.47790   0.85409   0.35647   0.00000  Uiso   1.00
C558   C     0.46623   0.86162   0.40017   0.00000  Uiso   1.00
C559   C     0.53202   0.80246   0.10132   0.00000  Uiso   1.00
C560   C     0.42026   0.88559   0.46447   0.00000  Uiso   1.00
C561   C     0.61790   0.79220   0.45591   0.00000  Uiso   1.00
C562   C     0.49252   0.84696   0.41915   0.00000  Uiso   1.00
C563   C     0.65086   0.81636   0.47624   0.00000  Uiso   1.00
C564   C     0.48343   0.85116   0.46055   0.00000  Uiso   1.00
C565   C     0.44606   0.87000   0.48297   0.00000  Uiso   1.00
C566   C     0.50911   0.83541   0.48037   0.00000  Uiso   1.00
C567   C     0.49509   0.83621   0.02208   0.00000  Uiso   1.00
C568   C     0.45681   0.85438   0.04309   0.00000  Uiso   1.00
C569   C     0.43352   0.87184   0.02388   0.00000  Uiso   1.00
H570   H     0.40438   0.88547   0.04121   0.00000  Uiso   1.00
H571   H     0.56430   0.82513   0.42961   0.00000  Uiso   1.00
H572   H     0.57009   0.98612   0.02981   0.00000  Uiso   1.00
H573   H     0.62543   0.80344   0.12438   0.00000  Uiso   1.00
H574   H     0.64651   0.85014   0.48164   0.00000  Uiso   1.00
H575   H     0.64748   0.80446   0.00469   0.00000  Uiso   1.00
H576   H     0.35083   0.81267   0.45704   0.00000  Uiso   1.00
H577   H     0.62207   0.75868   0.45051   0.00000  Uiso   1.00
H578   H     0.62661   0.80254   0.42593   0.00000  Uiso   1.00
H579   H     0.42910   0.95960   0.39369   0.00000  Uiso   1.00
H580   H     0.35034   0.85956   0.21440   0.00000  Uiso   1.00
H581   H     0.65115   0.80785   0.28569   0.00000  Uiso   1.00
H582   H     0.54131   0.66936   0.21582   0.00000  Uiso   1.00
H583   H     0.45724   0.99902   0.28450   0.00000  Uiso   1.00
H584   H     0.48810   0.84369   0.10103   0.00000  Uiso   1.00
H585   H     0.39192   0.90002   0.48246   0.00000  Uiso   1.00
H586   H     0.51920   0.83078   0.40083   0.00000  Uiso   1.00
H587   H     0.44295   0.85447   0.07447   0.00000  Uiso   1.00
O588   O     0.50000   0.83333   0.25000   0.00000  Uiso   1.00
O589   O     0.49027   0.79060   0.16625   0.00000  Uiso   1.00
O590   O     0.46020   0.87313   0.33749   0.00000  Uiso   1.00
O591   O     0.54421   0.84159   0.15877   0.00000  Uiso   1.00
O592   O     0.50532   0.82802   0.33749   0.00000  Uiso   1.00
O593   O     0.56233   0.70543   0.47937   0.00000  Uiso   1.00
O594   O     0.62936   0.71554   0.49959   0.00000  Uiso   1.00
O595   O     0.55973   0.67910   0.04488   0.00000  Uiso   1.00
O596   O     0.55691   0.71397   0.12567   0.00000  Uiso   1.00
O597   O     0.62706   0.72957   0.07773   0.00000  Uiso   1.00
O598   O     0.60461   0.78212   0.13944   0.00000  Uiso   1.00
O599   O     0.51182   0.74768   0.27821   0.00000  Uiso   1.00
O600   O     0.37438   0.86406   0.37859   0.00000  Uiso   1.00
O601   O     0.35435   0.91534   0.43601   0.00000  Uiso   1.00
O602   O     0.41652   0.93850   0.37600   0.00000  Uiso   1.00
O603   O     0.47914   0.92803   0.26767   0.00000  Uiso   1.00
O604   O     0.40785   0.79917   0.23607   0.00000  Uiso   1.00
O605   O     0.60119   0.85845   0.21806   0.00000  Uiso   1.00
O606   O     0.40323   0.85627   0.27820   0.00000  Uiso   1.00
O607   O     0.58773   0.81944   0.26768   0.00000  Uiso   1.00
O608   O     0.47133   0.73570   0.23607   0.00000  Uiso   1.00
O609   O     0.53771   0.92193   0.21806   0.00000  Uiso   1.00
S610   S     0.58103   0.71596   0.01384   0.00000  Uiso   1.00
S611   S     0.58807   0.74814   0.10520   0.00000  Uiso   1.00
S612   S     0.39176   0.89945   0.40374   0.00000  Uiso   1.00
Zn613  Zn    0.52577   0.80756   0.28278   0.00000  Uiso   1.00
Zn614  Zn    0.46792   0.79044   0.22258   0.00000  Uiso   1.00
Zn615  Zn    0.54500   0.86331   0.21188   0.00000  Uiso   1.00
Zn616  Zn    0.46131   0.87202   0.28277   0.00000  Uiso   1.00
C617   C     0.71912   0.82667   0.25876   0.00000  Uiso   1.00
C618   C     0.88236   0.82020   0.46003   0.00000  Uiso   1.00
C619   C     0.90489   0.80007   0.47866   0.00000  Uiso   1.00
C620   C     0.94775   0.84024   0.24115   0.00000  Uiso   1.00
C621   C     0.88625   0.79367   0.01900   0.00000  Uiso   1.00
C622   C     0.85220   0.81747   0.04142   0.00000  Uiso   1.00
C623   C     0.90134   0.76610   0.03837   0.00000  Uiso   1.00
C624   C     0.89433   0.77362   0.07979   0.00000  Uiso   1.00
C625   C     0.84346   0.82240   0.08258   0.00000  Uiso   1.00
C626   C     0.99380   0.84279   0.23742   0.00000  Uiso   1.00
C627   C     0.67371   0.82449   0.26227   0.00000  Uiso   1.00
C628   C     0.76267   0.88147   0.42345   0.00000  Uiso   1.00
C629   C     0.84749   0.98882   0.23805   0.00000  Uiso   1.00
C630   C     0.81808   0.67879   0.26217   0.00000  Uiso   1.00
C631   C     0.82253   0.72280   0.25893   0.00000  Uiso   1.00
C632   C     0.84350   0.94437   0.24135   0.00000  Uiso   1.00
C633   C     0.85541   0.81151   0.14403   0.00000  Uiso   1.00
C634   C     0.81124   0.85409   0.35647   0.00000  Uiso   1.00
C635   C     0.79957   0.86162   0.40017   0.00000  Uiso   1.00
C636   C     0.86535   0.80246   0.10132   0.00000  Uiso   1.00
C637   C     0.75359   0.88559   0.46447   0.00000  Uiso   1.00
C638   C     0.95123   0.79220   0.45591   0.00000  Uiso   1.00
C639   C     0.82585   0.84696   0.41915   0.00000  Uiso   1.00
C640   C     0.98419   0.81636   0.47624   0.00000  Uiso   1.00
C641   C     0.81676   0.85116   0.46055   0.00000  Uiso   1.00
C642   C     0.77939   0.87000   0.48297   0.00000  Uiso   1.00
C643   C     0.84244   0.83541   0.48037   0.00000  Uiso   1.00
C644   C     0.82843   0.83621   0.02208   0.00000  Uiso   1.00
C645   C     0.79015   0.85438   0.04309   0.00000  Uiso   1.00
C646   C     0.76685   0.87184   0.02388   0.00000  Uiso   1.00
H647   H     0.73772   0.88547   0.04121   0.00000  Uiso   1.00
H648   H     0.89763   0.82513   0.42961   0.00000  Uiso   1.00
H649   H     0.90342   0.98612   0.02981   0.00000  Uiso   1.00
H650   H     0.95877   0.80344   0.12438   0.00000  Uiso   1.00
H651   H     0.97984   0.85014   0.48164   0.00000  Uiso   1.00
H652   H     0.98082   0.80446   0.00469   0.00000  Uiso   1.00
H653   H     0.68416   0.81267   0.45704   0.00000  Uiso   1.00
H654   H     0.95541   0.75868   0.45051   0.00000  Uiso   1.00
H655   H     0.95995   0.80254   0.42593   0.00000  Uiso   1.00
H656   H     0.76243   0.95960   0.39369   0.00000  Uiso   1.00
H657   H     0.68368   0.85956   0.21440   0.00000  Uiso   1.00
H658   H     0.98448   0.80785   0.28569   0.00000  Uiso   1.00
H659   H     0.87464   0.66936   0.21582   0.00000  Uiso   1.00
H660   H     0.79057   0.99902   0.28450   0.00000  Uiso   1.00
H661   H     0.82144   0.84369   0.10103   0.00000  Uiso   1.00
H662   H     0.72525   0.90002   0.48246   0.00000  Uiso   1.00
H663   H     0.85253   0.83078   0.40083   0.00000  Uiso   1.00
H664   H     0.77629   0.85447   0.07447   0.00000  Uiso   1.00
O665   O     0.83333   0.83333   0.25000   0.00000  Uiso   1.00
O666   O     0.82360   0.79060   0.16625   0.00000  Uiso   1.00
O667   O     0.79354   0.87313   0.33749   0.00000  Uiso   1.00
O668   O     0.87755   0.84159   0.15877   0.00000  Uiso   1.00
O669   O     0.83865   0.82802   0.33749   0.00000  Uiso   1.00
O670   O     0.89566   0.70543   0.47937   0.00000  Uiso   1.00
O671   O     0.96270   0.71554   0.49959   0.00000  Uiso   1.00
O672   O     0.89306   0.67910   0.04488   0.00000  Uiso   1.00
O673   O     0.89024   0.71397   0.12567   0.00000  Uiso   1.00
O674   O     0.96039   0.72957   0.07773   0.00000  Uiso   1.00
O675   O     0.93794   0.78212   0.13944   0.00000  Uiso   1.00
O676   O     0.84515   0.74768   0.27821   0.00000  Uiso   1.00
O677   O     0.70771   0.86406   0.37859   0.00000  Uiso   1.00
O678   O     0.68769   0.91534   0.43601   0.00000  Uiso   1.00
O679   O     0.74985   0.93850   0.37600   0.00000  Uiso   1.00
O680   O     0.81247   0.92803   0.26767   0.00000  Uiso   1.00
O681   O     0.74119   0.79917   0.23607   0.00000  Uiso   1.00
O682   O     0.93452   0.85845   0.21806   0.00000  Uiso   1.00
O683   O     0.73656   0.85627   0.27820   0.00000  Uiso   1.00
O684   O     0.92106   0.81944   0.26768   0.00000  Uiso   1.00
O685   O     0.80467   0.73570   0.23607   0.00000  Uiso   1.00
O686   O     0.87104   0.92193   0.21806   0.00000  Uiso   1.00
S687   S     0.91437   0.71596   0.01384   0.00000  Uiso   1.00
S688   S     0.92141   0.74814   0.10520   0.00000  Uiso   1.00
S689   S     0.72510   0.89945   0.40374   0.00000  Uiso   1.00
Zn690  Zn    0.85910   0.80756   0.28278   0.00000  Uiso   1.00
Zn691  Zn    0.80125   0.79044   0.22258   0.00000  Uiso   1.00
Zn692  Zn    0.87833   0.86331   0.21188   0.00000  Uiso   1.00
Zn693  Zn    0.79465   0.87202   0.28277   0.00000  Uiso   1.00
C694   C     0.05246   0.16000   0.75876   0.00000  Uiso   1.00
C695   C     0.21570   0.15353   0.96003   0.00000  Uiso   1.00
C696   C     0.23823   0.13341   0.97866   0.00000  Uiso   1.00
C697   C     0.28108   0.17357   0.74115   0.00000  Uiso   1.00
C698   C     0.21958   0.12700   0.51900   0.00000  Uiso   1.00
C699   C     0.18553   0.15081   0.54142   0.00000  Uiso   1.00
C700   C     0.23467   0.09943   0.53837   0.00000  Uiso   1.00
C701   C     0.22767   0.10696   0.57979   0.00000  Uiso   1.00
C702   C     0.17679   0.15573   0.58258   0.00000  Uiso   1.00
C703   C     0.32714   0.17613   0.73742   0.00000  Uiso   1.00
C704   C     0.00704   0.15782   0.76227   0.00000  Uiso   1.00
C705   C     0.09600   0.21481   0.92345   0.00000  Uiso   1.00
C706   C     0.18083   0.32215   0.73805   0.00000  Uiso   1.00
C707   C     0.15141   0.01213   0.76217   0.00000  Uiso   1.00
C708   C     0.15586   0.05614   0.75893   0.00000  Uiso   1.00
C709   C     0.17684   0.27771   0.74135   0.00000  Uiso   1.00
C710   C     0.18875   0.14484   0.64403   0.00000  Uiso   1.00
C711   C     0.14457   0.18742   0.85647   0.00000  Uiso   1.00
C712   C     0.13290   0.19496   0.90017   0.00000  Uiso   1.00
C713   C     0.19868   0.13579   0.60132   0.00000  Uiso   1.00
C714   C     0.08692   0.21892   0.96447   0.00000  Uiso   1.00
C715   C     0.28456   0.12554   0.95591   0.00000  Uiso   1.00
C716   C     0.15918   0.18029   0.91915   0.00000  Uiso   1.00
C717   C     0.31752   0.14970   0.97624   0.00000  Uiso   1.00
C718   C     0.15009   0.18449   0.96055   0.00000  Uiso   1.00
C719   C     0.11273   0.20333   0.98297   0.00000  Uiso   1.00
C720   C     0.17578   0.16874   0.98037   0.00000  Uiso   1.00
C721   C     0.16176   0.16954   0.52208   0.00000  Uiso   1.00
C722   C     0.12348   0.18771   0.54309   0.00000  Uiso   1.00
C723   C     0.10019   0.20517   0.52388   0.00000  Uiso   1.00
H724   H     0.07105   0.21880   0.54121   0.00000  Uiso   1.00
H725   H     0.23096   0.15846   0.92961   0.00000  Uiso   1.00
H726   H     0.23676   0.31945   0.52981   0.00000  Uiso   1.00
H727   H     0.29210   0.13678   0.62438   0.00000  Uiso   1.00
H728   H     0.31317   0.18347   0.98164   0.00000  Uiso   1.00
H729   H     0.31415   0.13780   0.50469   0.00000  Uiso   1.00
H730   H     0.01749   0.14600   0.95704   0.00000  Uiso   1.00
H731   H     0.28874   0.09201   0.95051   0.00000  Uiso   1.00
H732   H     0.29328   0.13588   0.92593   0.00000  Uiso   1.00
H733   H     0.09577   0.29294   0.89369   0.00000  Uiso   1.00
H734   H     0.01701   0.19289   0.71440   0.00000  Uiso   1.00
H735   H     0.31781   0.14119   0.78569   0.00000  Uiso   1.00
H736   H     0.20797   0.00270   0.71582   0.00000  Uiso   1.00
H737   H     0.12390   0.33236   0.78450   0.00000  Uiso   1.00
H738   H     0.15477   0.17703   0.60103   0.00000  Uiso   1.00
H739   H     0.05858   0.23335   0.98246   0.00000  Uiso   1.00
H740   H     0.18586   0.16411   0.90083   0.00000  Uiso   1.00
H741   H     0.10962   0.18781   0.57447   0.00000  Uiso   1.00
O742   O     0.16667   0.16667   0.75000   0.00000  Uiso   1.00
O743   O     0.15693   0.12393   0.66625   0.00000  Uiso   1.00
O744   O     0.12687   0.20646   0.83749   0.00000  Uiso   1.00
O745   O     0.21088   0.17493   0.65877   0.00000  Uiso   1.00
O746   O     0.17198   0.16135   0.83749   0.00000  Uiso   1.00
O747   O     0.22899   0.03876   0.97937   0.00000  Uiso   1.00
O748   O     0.29603   0.04888   0.99959   0.00000  Uiso   1.00
O749   O     0.22639   0.01243   0.54488   0.00000  Uiso   1.00
O750   O     0.22357   0.04731   0.62567   0.00000  Uiso   1.00
O751   O     0.29373   0.06290   0.57773   0.00000  Uiso   1.00
O752   O     0.27127   0.11545   0.63944   0.00000  Uiso   1.00
O753   O     0.17849   0.08101   0.77821   0.00000  Uiso   1.00
O754   O     0.04104   0.19739   0.87859   0.00000  Uiso   1.00
O755   O     0.02102   0.24867   0.93601   0.00000  Uiso   1.00
O756   O     0.08318   0.27183   0.87600   0.00000  Uiso   1.00
O757   O     0.14581   0.26136   0.76767   0.00000  Uiso   1.00
O758   O     0.07452   0.13251   0.73607   0.00000  Uiso   1.00
O759   O     0.26785   0.19179   0.71806   0.00000  Uiso   1.00
O760   O     0.06990   0.18960   0.77820   0.00000  Uiso   1.00
O761   O     0.25440   0.15277   0.76768   0.00000  Uiso   1.00
O762   O     0.13800   0.06903   0.73607   0.00000  Uiso   1.00
O763   O     0.20437   0.25527   0.71806   0.00000  Uiso   1.00
S764   S     0.24770   0.04929   0.51384   0.00000  Uiso   1.00
S765   S     0.25474   0.08147   0.60520   0.00000  Uiso   1.00
S766   S     0.05843   0.23279   0.90374   0.00000  Uiso   1.00
Zn767  Zn    0.19244   0.14090   0.78278   0.00000  Uiso   1.00
Zn768  Zn    0.13459   0.12378   0.72258   0.00000  Uiso   1.00
Zn769  Zn    0.21166   0.19664   0.71188   0.00000  Uiso   1.00
Zn770  Zn    0.12798   0.20535   0.78277   0.00000  Uiso   1.00
C771   C     0.38579   0.16000   0.75876   0.00000  Uiso   1.00
C772   C     0.54903   0.15353   0.96003   0.00000  Uiso   1.00
C773   C     0.57156   0.13341   0.97866   0.00000  Uiso   1.00
C774   C     0.61442   0.17357   0.74115   0.00000  Uiso   1.00
C775   C     0.55292   0.12700   0.51900   0.00000  Uiso   1.00
C776   C     0.51886   0.15081   0.54142   0.00000  Uiso   1.00
C777   C     0.56801   0.09943   0.53837   0.00000  Uiso   1.00
C778   C     0.56100   0.10696   0.57979   0.00000  Uiso   1.00
C779   C     0.51013   0.15573   0.58258   0.00000  Uiso   1.00
C780   C     0.66047   0.17613   0.73742   0.00000  Uiso   1.00
C781   C     0.34038   0.15782   0.76227   0.00000  Uiso   1.00
C782   C     0.42933   0.21481   0.92345   0.00000  Uiso   1.00
C783   C     0.51416   0.32215   0.73805   0.00000  Uiso   1.00
C784   C     0.48475   0.01213   0.76217   0.00000  Uiso   1.00
C785   C     0.48919   0.05614   0.75893   0.00000  Uiso   1.00
C786   C     0.51017   0.27771   0.74135   0.00000  Uiso   1.00
C787   C     0.52208   0.14484   0.64403   0.00000  Uiso   1.00
C788   C     0.47790   0.18742   0.85647   0.00000  Uiso   1.00
C789   C     0.46623   0.19496   0.90017   0.00000  Uiso   1.00
C790   C     0.53202   0.13579   0.60132   0.00000  Uiso   1.00
C791   C     0.42026   0.21892   0.96447   0.00000  Uiso   1.00
C792   C     0.61790   0.12554   0.95591   0.00000  Uiso   1.00
C793   C     0.49252   0.18029   0.91915   0.00000  Uiso   1.00
C794   C     0.65086   0.14970   0.97624   0.00000  Uiso   1.00
C795   C     0.48343   0.18449   0.96055   0.00000  Uiso   1.00
C796   C     0.44606   0.20333   0.98297   0.00000  Uiso   1.00
C797   C     0.50911   0.16874   0.98037   0.00000  Uiso   1.00
C798   C     0.49509   0.16954   0.52208   0.00000  Uiso   1.00
C799   C     0.45681   0.18771   0.54309   0.00000  Uiso   1.00
C800   C     0.43352   0.20517   0.52388   0.00000  Uiso   1.00
H801   H     0.40438   0.21880   0.54121   0.00000  Uiso   1.00
H802   H     0.56430   0.15846   0.92961   0.00000  Uiso   1.00
H803   H     0.57009   0.31945   0.52981   0.00000  Uiso   1.00
H804   H     0.62543   0.13678   0.62438   0.00000  Uiso   1.00
H805   H     0.64651   0.18347   0.98164   0.00000  Uiso   1.00
H806   H     0.64748   0.13780   0.50469   0.00000  Uiso   1.00
H807   H     0.35083   0.14600   0.95704   0.00000  Uiso   1.00
H808   H     0.62207   0.09201   0.95051   0.00000  Uiso   1.00
H809   H     0.62661   0.13588   0.92593   0.00000  Uiso   1.00
H810   H     0.42910   0.29294   0.89369   0.00000  Uiso   1.00
H811   H     0.35034   0.19289   0.71440   0.00000  Uiso   1.00
H812   H     0.65115   0.14119   0.78569   0.00000  Uiso   1.00
H813   H     0.54131   0.00270   0.71582   0.00000  Uiso   1.00
H814   H     0.45724   0.33236   0.78450   0.00000  Uiso   1.00
H815   H     0.48810   0.17703   0.60103   0.00000  Uiso   1.00
H816   H     0.39192   0.23335   0.98246   0.00000  Uiso   1.00
H817   H     0.51920   0.16411   0.90083   0.00000  Uiso   1.00
H818   H     0.44295   0.18781   0.57447   0.00000  Uiso   1.00
O819   O     0.50000   0.16667   0.75000   0.00000  Uiso   1.00
O820   O     0.49027   0.12393   0.66625   0.00000  Uiso   1.00
O821   O     0.46020   0.20646   0.83749   0.00000  Uiso   1.00
O822   O     0.54421   0.17493   0.65877   0.00000  Uiso   1.00
O823   O     0.50532   0.16135   0.83749   0.00000  Uiso   1.00
O824   O     0.56233   0.03876   0.97937   0.00000  Uiso   1.00
O825   O     0.62936   0.04888   0.99959   0.00000  Uiso   1.00
O826   O     0.55973   0.01243   0.54488   0.00000  Uiso   1.00
O827   O     0.55691   0.04731   0.62567   0.00000  Uiso   1.00
O828   O     0.62706   0.06290   0.57773   0.00000  Uiso   1.00
O829   O     0.60461   0.11545   0.63944   0.00000  Uiso   1.00
O830   O     0.51182   0.08101   0.77821   0.00000  Uiso   1.00
O831   O     0.37438   0.19739   0.87859   0.00000  Uiso   1.00
O832   O     0.35435   0.24867   0.93601   0.00000  Uiso   1.00
O833   O     0.41652   0.27183   0.87600   0.00000  Uiso   1.00
O834   O     0.47914   0.26136   0.76767   0.00000  Uiso   1.00
O835   O     0.40785   0.13251   0.73607   0.00000  Uiso   1.00
O836   O     0.60119   0.19179   0.71806   0.00000  Uiso   1.00
O837   O     0.40323   0.18960   0.77820   0.00000  Uiso   1.00
O838   O     0.58773   0.15277   0.76768   0.00000  Uiso   1.00
O839   O     0.47133   0.06903   0.73607   0.00000  Uiso   1.00
O840   O     0.53771   0.25527   0.71806   0.00000  Uiso   1.00
S841   S     0.58103   0.04929   0.51384   0.00000  Uiso   1.00
S842   S     0.58807   0.08147   0.60520   0.00000  Uiso   1.00
S843   S     0.39176   0.23279   0.90374   0.00000  Uiso   1.00
Zn844  Zn    0.52577   0.14090   0.78278   0.00000  Uiso   1.00
Zn845  Zn    0.46792   0.12378   0.72258   0.00000  Uiso   1.00
Zn846  Zn    0.54500   0.19664   0.71188   0.00000  Uiso   1.00
Zn847  Zn    0.46131   0.20535   0.78277   0.00000  Uiso   1.00
C848   C     0.71912   0.16000   0.75876   0.00000  Uiso   1.00
C849   C     0.88236   0.15353   0.96003   0.00000  Uiso   1.00
C850   C     0.90489   0.13341   0.97866   0.00000  Uiso   1.00
C851   C     0.94775   0.17357   0.74115   0.00000  Uiso   1.00
C852   C     0.88625   0.12700   0.51900   0.00000  Uiso   1.00
C853   C     0.85220   0.15081   0.54142   0.00000  Uiso   1.00
C854   C     0.90134   0.09943   0.53837   0.00000  Uiso   1.00
C855   C     0.89433   0.10696   0.57979   0.00000  Uiso   1.00
C856   C     0.84346   0.15573   0.58258   0.00000  Uiso   1.00
C857   C     0.99380   0.17613   0.73742   0.00000  Uiso   1.00
C858   C     0.67371   0.15782   0.76227   0.00000  Uiso   1.00
C859   C     0.76267   0.21481   0.92345   0.00000  Uiso   1.00
C860   C     0.84749   0.32215   0.73805   0.00000  Uiso   1.00
C861   C     0.81808   0.01213   0.76217   0.00000  Uiso   1.00
C862   C     0.82253   0.05614   0.75893   0.00000  Uiso   1.00
C863   C     0.84350   0.27771   0.74135   0.00000  Uiso   1.00
C864   C     0.85541   0.14484   0.64403   0.00000  Uiso   1.00
C865   C     0.81124   0.18742   0.85647   0.00000  Uiso   1.00
C866   C     0.79957   0.19496   0.90017   0.00000  Uiso   1.00
C867   C     0.86535   0.13579   0.60132   0.00000  Uiso   1.00
C868   C     0.75359   0.21892   0.96447   0.00000  Uiso   1.00
C869   C     0.95123   0.12554   0.95591   0.00000  Uiso   1.00
C870   C     0.82585   0.18029   0.91915   0.00000  Uiso   1.00
C871   C     0.98419   0.14970   0.97624   0.00000  Uiso   1.00
C872   C     0.81676   0.18449   0.96055   0.00000  Uiso   1.00
C873   C     0.77939   0.20333   0.98297   0.00000  Uiso   1.00
C874   C     0.84244   0.16874   0.98037   0.00000  Uiso   1.00
C875   C     0.82843   0.16954   0.52208   0.00000  Uiso   1.00
C876   C     0.79015   0.18771   0.54309   0.00000  Uiso   1.00
C877   C     0.76685   0.20517   0.52388   0.00000  Uiso   1.00
H878   H     0.73772   0.21880   0.54121   0.00000  Uiso   1.00
H879   H     0.89763   0.15846   0.92961   0.00000  Uiso   1.00
H880   H     0.90342   0.31945   0.52981   0.00000  Uiso   1.00
H881   H     0.95877   0.13678   0.62438   0.00000  Uiso   1.00
H882   H     0.97984   0.18347   0.98164   0.00000  Uiso   1.00
H883   H     0.98082   0.13780   0.50469   0.00000  Uiso   1.00
H884   H     0.68416   0.14600   0.95704   0.00000  Uiso   1.00
H885   H     0.95541   0.09201   0.95051   0.00000  Uiso   1.00
H886   H     0.95995   0.13588   0.92593   0.00000  Uiso   1.00
H887   H     0.76243   0.29294   0.89369   0.00000  Uiso   1.00
H888   H     0.68368   0.19289   0.71440   0.00000  Uiso   1.00
H889   H     0.98448   0.14119   0.78569   0.00000  Uiso   1.00
H890   H     0.87464   0.00270   0.71582   0.00000  Uiso   1.00
H891   H     0.79057   0.33236   0.78450   0.00000  Uiso   1.00
H892   H     0.82144   0.17703   0.60103   0.00000  Uiso   1.00
H893   H     0.72525   0.23335   0.98246   0.00000  Uiso   1.00
H894   H     0.85253   0.16411   0.90083   0.00000  Uiso   1.00
H895   H     0.77629   0.18781   0.57447   0.00000  Uiso   1.00
O896   O     0.83333   0.16667   0.75000   0.00000  Uiso   1.00
O897   O     0.82360   0.12393   0.66625   0.00000  Uiso   1.00
O898   O     0.79354   0.20646   0.83749   0.00000  Uiso   1.00
O899   O     0.87755   0.17493   0.65877   0.00000  Uiso   1.00
O900   O     0.83865   0.16135   0.83749   0.00000  Uiso   1.00
O901   O     0.89566   0.03876   0.97937   0.00000  Uiso   1.00
O902   O     0.96270   0.04888   0.99959   0.00000  Uiso   1.00
O903   O     0.89306   0.01243   0.54488   0.00000  Uiso   1.00
O904   O     0.89024   0.04731   0.62567   0.00000  Uiso   1.00
O905   O     0.96039   0.06290   0.57773   0.00000  Uiso   1.00
O906   O     0.93794   0.11545   0.63944   0.00000  Uiso   1.00
O907   O     0.84515   0.08101   0.77821   0.00000  Uiso   1.00
O908   O     0.70771   0.19739   0.87859   0.00000  Uiso   1.00
O909   O     0.68769   0.24867   0.93601   0.00000  Uiso   1.00
O910   O     0.74985   0.27183   0.87600   0.00000  Uiso   1.00
O911   O     0.81247   0.26136   0.76767   0.00000  Uiso   1.00
O912   O     0.74119   0.13251   0.73607   0.00000  Uiso   1.00
O913   O     0.93452   0.19179   0.71806   0.00000  Uiso   1.00
O914   O     0.73656   0.18960   0.77820   0.00000  Uiso   1.00
O915   O     0.92106   0.15277   0.76768   0.00000  Uiso   1.00
O916   O     0.80467   0.06903   0.73607   0.00000  Uiso   1.00
O917   O     0.87104   0.25527   0.71806   0.00000  Uiso   1.00
S918   S     0.91437   0.04929   0.51384   0.00000  Uiso   1.00
S919   S     0.92141   0.08147   0.60520   0.00000  Uiso   1.00
S920   S     0.72510   0.23279   0.90374   0.00000  Uiso   1.00
Zn921  Zn    0.85910   0.14090   0.78278   0.00000  Uiso   1.00
Zn922  Zn    0.80125   0.12378   0.72258   0.00000  Uiso   1.00
Zn923  Zn    0.87833   0.19664   0.71188   0.00000  Uiso   1.00
Zn924  Zn    0.79465   0.20535   0.78277   0.00000  Uiso   1.00
C925   C     0.05246   0.49334   0.75876   0.00000  Uiso   1.00
C926   C     0.21570   0.48686   0.96003   0.00000  Uiso   1.00
C927   C     0.23823   0.46674   0.97866   0.00000  Uiso   1.00
C928   C     0.28108   0.50691   0.74115   0.00000  Uiso   1.00
C929   C     0.21958   0.46033   0.51900   0.00000  Uiso   1.00
C930   C     0.18553   0.48414   0.54142   0.00000  Uiso   1.00
C931   C     0.23467   0.43277   0.53837   0.00000  Uiso   1.00
C932   C     0.22767   0.44029   0.57979   0.00000  Uiso   1.00
C933   C     0.17679   0.48907   0.58258   0.00000  Uiso   1.00
C934   C     0.32714   0.50946   0.73742   0.00000  Uiso   1.00
C935   C     0.00704   0.49116   0.76227   0.00000  Uiso   1.00
C936   C     0.09600   0.54814   0.92345   0.00000  Uiso   1.00
C937   C     0.18083   0.65548   0.73805   0.00000  Uiso   1.00
C938   C     0.15141   0.34546   0.76217   0.00000  Uiso   1.00
C939   C     0.15586   0.38947   0.75893   0.00000  Uiso   1.00
C940   C     0.17684   0.61104   0.74135   0.00000  Uiso   1.00
C941   C     0.18875   0.47818   0.64403   0.00000  Uiso   1.00
C942   C     0.14457   0.52076   0.85647   0.00000  Uiso   1.00
C943   C     0.13290   0.52829   0.90017   0.00000  Uiso   1.00
C944   C     0.19868   0.46912   0.60132   0.00000  Uiso   1.00
C945   C     0.08692   0.55226   0.96447   0.00000  Uiso   1.00
C946   C     0.28456   0.45887   0.95591   0.00000  Uiso   1.00
C947   C     0.15918   0.51362   0.91915   0.00000  Uiso   1.00
C948   C     0.31752   0.48303   0.97624   0.00000  Uiso   1.00
C949   C     0.15009   0.51782   0.96055   0.00000  Uiso   1.00
C950   C     0.11273   0.53666   0.98297   0.00000  Uiso   1.00
C951   C     0.17578   0.50207   0.98037   0.00000  Uiso   1.00
C952   C     0.16176   0.50288   0.52208   0.00000  Uiso   1.00
C953   C     0.12348   0.52105   0.54309   0.00000  Uiso   1.00
C954   C     0.10019   0.53851   0.52388   0.00000  Uiso   1.00
H955   H     0.07105   0.55214   0.54121   0.00000  Uiso   1.00
H956   H     0.23096   0.49180   0.92961   0.00000  Uiso   1.00
H957   H     0.23676   0.65278   0.52981   0.00000  Uiso   1.00
H958   H     0.29210   0.47011   0.62438   0.00000  Uiso   1.00
H959   H     0.31317   0.51681   0.98164   0.00000  Uiso   1.00
H960   H     0.31415   0.47113   0.50469   0.00000  Uiso   1.00
H961   H     0.01749   0.47934   0.95704   0.00000  Uiso   1.00
H962   H     0.28874   0.42535   0.95051   0.00000  Uiso   1.00
H963   H     0.29328   0.46921   0.92593   0.00000  Uiso   1.00
H964   H     0.09577   0.62627   0.89369   0.00000  Uiso   1.00
H965   H     0.01701   0.52622   0.71440   0.00000  Uiso   1.00
H966   H     0.31781   0.47452   0.78569   0.00000  Uiso   1.00
H967   H     0.20797   0.33603   0.71582   0.00000  Uiso   1.00
H968   H     0.12390   0.66569   0.78450   0.00000  Uiso   1.00
H969   H     0.15477   0.51036   0.60103   0.00000  Uiso   1.00
H970   H     0.05858   0.56669   0.98246   0.00000  Uiso   1.00
H971   H     0.18586   0.49745   0.90083   0.00000  Uiso   1.00
H972   H     0.10962   0.52114   0.57447   0.00000  Uiso   1.00
O973   O     0.16667   0.50000   0.75000   0.00000  Uiso   1.00
O974   O     0.15693   0.45726   0.66625   0.00000  Uiso   1.00
O975   O     0.12687   0.53979   0.83749   0.00000  Uiso   1.00
O976   O     0.21088   0.50826   0.65877   0.00000  Uiso   1.00
O977   O     0.17198   0.49468   0.83749   0.00000  Uiso   1.00
O978   O     0.22899   0.37210   0.97937   0.00000  Uiso   1.00
O979   O     0.29603   0.38221   0.99959   0.00000  Uiso   1.00
O980   O     0.22639   0.34576   0.54488   0.00000  Uiso   1.00
O981   O     0.22357   0.38064   0.62567   0.00000  Uiso   1.00
O982   O     0.29373   0.39624   0.57773   0.00000  Uiso   1.00
O983   O     0.27127   0.44879   0.63944   0.00000  Uiso   1.00
O984   O     0.17849   0.41434   0.77821   0.00000  Uiso   1.00
O985   O     0.04104   0.53072   0.87859   0.00000  Uiso   1.00
O986   O     0.02102   0.58200   0.93601   0.00000  Uiso   1.00
O987   O     0.08318   0.60517   0.87600   0.00000  Uiso   1.00
O988   O     0.14581   0.59469   0.76767   0.00000  Uiso   1.00
O989   O     0.07452   0.46584   0.73607   0.00000  Uiso   1.00
O990   O     0.26785   0.52512   0.71806   0.00000  Uiso   1.00
O991   O     0.06990   0.52293   0.77820   0.00000  Uiso   1.00
O992   O     0.25440   0.48610   0.76768   0.00000  Uiso   1.00
O993   O     0.13800   0.40236   0.73607   0.00000  Uiso   1.00
O994   O     0.20437   0.58860   0.71806   0.00000  Uiso   1.00
S995   S     0.24770   0.38262   0.51384   0.00000  Uiso   1.00
S996   S     0.25474   0.41481   0.60520   0.00000  Uiso   1.00
S997   S     0.05843   0.56612   0.90374   0.00000  Uiso   1.00
Zn998  Zn    0.19244   0.47423   0.78278   0.00000  Uiso   1.00
Zn999  Zn    0.13459   0.45711   0.72258   0.00000  Uiso   1.00
Zn1000 Zn    0.21166   0.52997   0.71188   0.00000  Uiso   1.00
Zn1001 Zn    0.12798   0.53868   0.78277   0.00000  Uiso   1.00
C1002  C     0.38579   0.49334   0.75876   0.00000  Uiso   1.00
C1003  C     0.54903   0.48686   0.96003   0.00000  Uiso   1.00
C1004  C     0.57156   0.46674   0.97866   0.00000  Uiso   1.00
C1005  C     0.61442   0.50691   0.74115   0.00000  Uiso   1.00
C1006  C     0.55292   0.46033   0.51900   0.00000  Uiso   1.00
C1007  C     0.51886   0.48414   0.54142   0.00000  Uiso   1.00
C1008  C     0.56801   0.43277   0.53837   0.00000  Uiso   1.00
C1009  C     0.56100   0.44029   0.57979   0.00000  Uiso   1.00
C1010  C     0.51013   0.48907   0.58258   0.00000  Uiso   1.00
C1011  C     0.66047   0.50946   0.73742   0.00000  Uiso   1.00
C1012  C     0.34038   0.49116   0.76227   0.00000  Uiso   1.00
C1013  C     0.42933   0.54814   0.92345   0.00000  Uiso   1.00
C1014  C     0.51416   0.65548   0.73805   0.00000  Uiso   1.00
C1015  C     0.48475   0.34546   0.76217   0.00000  Uiso   1.00
C1016  C     0.48919   0.38947   0.75893   0.00000  Uiso   1.00
C1017  C     0.51017   0.61104   0.74135   0.00000  Uiso   1.00
C1018  C     0.52208   0.47818   0.64403   0.00000  Uiso   1.00
C1019  C     0.47790   0.52076   0.85647   0.00000  Uiso   1.00
C1020  C     0.46623   0.52829   0.90017   0.00000  Uiso   1.00
C1021  C     0.53202   0.46912   0.60132   0.00000  Uiso   1.00
C1022  C     0.42026   0.55226   0.96447   0.00000  Uiso   1.00
C1023  C     0.61790   0.45887   0.95591   0.00000  Uiso   1.00
C1024  C     0.49252   0.51362   0.91915   0.00000  Uiso   1.00
C1025  C     0.65086   0.48303   0.97624   0.00000  Uiso   1.00
C1026  C     0.48343   0.51782   0.96055   0.00000  Uiso   1.00
C1027  C     0.44606   0.53666   0.98297   0.00000  Uiso   1.00
C1028  C     0.50911   0.50207   0.98037   0.00000  Uiso   1.00
C1029  C     0.49509   0.50288   0.52208   0.00000  Uiso   1.00
C1030  C     0.45681   0.52105   0.54309   0.00000  Uiso   1.00
C1031  C     0.43352   0.53851   0.52388   0.00000  Uiso   1.00
H1032  H     0.40438   0.55214   0.54121   0.00000  Uiso   1.00
H1033  H     0.56430   0.49180   0.92961   0.00000  Uiso   1.00
H1034  H     0.57009   0.65278   0.52981   0.00000  Uiso   1.00
H1035  H     0.62543   0.47011   0.62438   0.00000  Uiso   1.00
H1036  H     0.64651   0.51681   0.98164   0.00000  Uiso   1.00
H1037  H     0.64748   0.47113   0.50469   0.00000  Uiso   1.00
H1038  H     0.35083   0.47934   0.95704   0.00000  Uiso   1.00
H1039  H     0.62207   0.42535   0.95051   0.00000  Uiso   1.00
H1040  H     0.62661   0.46921   0.92593   0.00000  Uiso   1.00
H1041  H     0.42910   0.62627   0.89369   0.00000  Uiso   1.00
H1042  H     0.35034   0.52622   0.71440   0.00000  Uiso   1.00
H1043  H     0.65115   0.47452   0.78569   0.00000  Uiso   1.00
H1044  H     0.54131   0.33603   0.71582   0.00000  Uiso   1.00
H1045  H     0.45724   0.66569   0.78450   0.00000  Uiso   1.00
H1046  H     0.48810   0.51036   0.60103   0.00000  Uiso   1.00
H1047  H     0.39192   0.56669   0.98246   0.00000  Uiso   1.00
H1048  H     0.51920   0.49745   0.90083   0.00000  Uiso   1.00
H1049  H     0.44295   0.52114   0.57447   0.00000  Uiso   1.00
O1050  O     0.50000   0.50000   0.75000   0.00000  Uiso   1.00
O1051  O     0.49027   0.45726   0.66625   0.00000  Uiso   1.00
O1052  O     0.46020   0.53979   0.83749   0.00000  Uiso   1.00
O1053  O     0.54421   0.50826   0.65877   0.00000  Uiso   1.00
O1054  O     0.50532   0.49468   0.83749   0.00000  Uiso   1.00
O1055  O     0.56233   0.37210   0.97937   0.00000  Uiso   1.00
O1056  O     0.62936   0.38221   0.99959   0.00000  Uiso   1.00
O1057  O     0.55973   0.34576   0.54488   0.00000  Uiso   1.00
O1058  O     0.55691   0.38064   0.62567   0.00000  Uiso   1.00
O1059  O     0.62706   0.39624   0.57773   0.00000  Uiso   1.00
O1060  O     0.60461   0.44879   0.63944   0.00000  Uiso   1.00
O1061  O     0.51182   0.41434   0.77821   0.00000  Uiso   1.00
O1062  O     0.37438   0.53072   0.87859   0.00000  Uiso   1.00
O1063  O     0.35435   0.58200   0.93601   0.00000  Uiso   1.00
O1064  O     0.41652   0.60517   0.87600   0.00000  Uiso   1.00
O1065  O     0.47914   0.59469   0.76767   0.00000  Uiso   1.00
O1066  O     0.40785   0.46584   0.73607   0.00000  Uiso   1.00
O1067  O     0.60119   0.52512   0.71806   0.00000  Uiso   1.00
O1068  O     0.40323   0.52293   0.77820   0.00000  Uiso   1.00
O1069  O     0.58773   0.48610   0.76768   0.00000  Uiso   1.00
O1070  O     0.47133   0.40236   0.73607   0.00000  Uiso   1.00
O1071  O     0.53771   0.58860   0.71806   0.00000  Uiso   1.00
S1072  S     0.58103   0.38262   0.51384   0.00000  Uiso   1.00
S1073  S     0.58807   0.41481   0.60520   0.00000  Uiso   1.00
S1074  S     0.39176   0.56612   0.90374   0.00000  Uiso   1.00
Zn1075 Zn    0.52577   0.47423   0.78278   0.00000  Uiso   1.00
Zn1076 Zn    0.46792   0.45711   0.72258   0.00000  Uiso   1.00
Zn1077 Zn    0.54500   0.52997   0.71188   0.00000  Uiso   1.00
Zn1078 Zn    0.46131   0.53868   0.78277   0.00000  Uiso   1.00
C1079  C     0.71912   0.49334   0.75876   0.00000  Uiso   1.00
C1080  C     0.88236   0.48686   0.96003   0.00000  Uiso   1.00
C1081  C     0.90489   0.46674   0.97866   0.00000  Uiso   1.00
C1082  C     0.94775   0.50691   0.74115   0.00000  Uiso   1.00
C1083  C     0.88625   0.46033   0.51900   0.00000  Uiso   1.00
C1084  C     0.85220   0.48414   0.54142   0.00000  Uiso   1.00
C1085  C     0.90134   0.43277   0.53837   0.00000  Uiso   1.00
C1086  C     0.89433   0.44029   0.57979   0.00000  Uiso   1.00
C1087  C     0.84346   0.48907   0.58258   0.00000  Uiso   1.00
C1088  C     0.99380   0.50946   0.73742   0.00000  Uiso   1.00
C1089  C     0.67371   0.49116   0.76227   0.00000  Uiso   1.00
C1090  C     0.76267   0.54814   0.92345   0.00000  Uiso   1.00
C1091  C     0.84749   0.65548   0.73805   0.00000  Uiso   1.00
C1092  C     0.81808   0.34546   0.76217   0.00000  Uiso   1.00
C1093  C     0.82253   0.38947   0.75893   0.00000  Uiso   1.00
C1094  C     0.84350   0.61104   0.74135   0.00000  Uiso   1.00
C1095  C     0.85541   0.47818   0.64403   0.00000  Uiso   1.00
C1096  C     0.81124   0.52076   0.85647   0.00000  Uiso   1.00
C1097  C     0.79957   0.52829   0.90017   0.00000  Uiso   1.00
C1098  C     0.86535   0.46912   0.60132   0.00000  Uiso   1.00
C1099  C     0.75359   0.55226   0.96447   0.00000  Uiso   1.00
C1100  C     0.95123   0.45887   0.95591   0.00000  Uiso   1.00
C1101  C     0.82585   0.51362   0.91915   0.00000  Uiso   1.00
C1102  C     0.98419   0.48303   0.97624   0.00000  Uiso   1.00
C1103  C     0.81676   0.51782   0.96055   0.00000  Uiso   1.00
C1104  C     0.77939   0.53666   0.98297   0.00000  Uiso   1.00
C1105  C     0.84244   0.50207   0.98037   0.00000  Uiso   1.00
C1106  C     0.82843   0.50288   0.52208   0.00000  Uiso   1.00
C1107  C     0.79015   0.52105   0.54309   0.00000  Uiso   1.00
C1108  C     0.76685   0.53851   0.52388   0.00000  Uiso   1.00
H1109  H     0.73772   0.55214   0.54121   0.00000  Uiso   1.00
H1110  H     0.89763   0.49180   0.92961   0.00000  Uiso   1.00
H1111  H     0.90342   0.65278   0.52981   0.00000  Uiso   1.00
H1112  H     0.95877   0.47011   0.62438   0.00000  Uiso   1.00
H1113  H     0.97984   0.51681   0.98164   0.00000  Uiso   1.00
H1114  H     0.98082   0.47113   0.50469   0.00000  Uiso   1.00
H1115  H     0.68416   0.47934   0.95704   0.00000  Uiso   1.00
H1116  H     0.95541   0.42535   0.95051   0.00000  Uiso   1.00
H1117  H     0.95995   0.46921   0.92593   0.00000  Uiso   1.00
H1118  H     0.76243   0.62627   0.89369   0.00000  Uiso   1.00
H1119  H     0.68368   0.52622   0.71440   0.00000  Uiso   1.00
H1120  H     0.98448   0.47452   0.78569   0.00000  Uiso   1.00
H1121  H     0.87464   0.33603   0.71582   0.00000  Uiso   1.00
H1122  H     0.79057   0.66569   0.78450   0.00000  Uiso   1.00
H1123  H     0.82144   0.51036   0.60103   0.00000  Uiso   1.00
H1124  H     0.72525   0.56669   0.98246   0.00000  Uiso   1.00
H1125  H     0.85253   0.49745   0.90083   0.00000  Uiso   1.00
H1126  H     0.77629   0.52114   0.57447   0.00000  Uiso   1.00
O1127  O     0.83333   0.50000   0.75000   0.00000  Uiso   1.00
O1128  O     0.82360   0.45726   0.66625   0.00000  Uiso   1.00
O1129  O     0.79354   0.53979   0.83749   0.00000  Uiso   1.00
O1130  O     0.87755   0.50826   0.65877   0.00000  Uiso   1.00
O1131  O     0.83865   0.49468   0.83749   0.00000  Uiso   1.00
O1132  O     0.89566   0.37210   0.97937   0.00000  Uiso   1.00
O1133  O     0.96270   0.38221   0.99959   0.00000  Uiso   1.00
O1134  O     0.89306   0.34576   0.54488   0.00000  Uiso   1.00
O1135  O     0.89024   0.38064   0.62567   0.00000  Uiso   1.00
O1136  O     0.96039   0.39624   0.57773   0.00000  Uiso   1.00
O1137  O     0.93794   0.44879   0.63944   0.00000  Uiso   1.00
O1138  O     0.84515   0.41434   0.77821   0.00000  Uiso   1.00
O1139  O     0.70771   0.53072   0.87859   0.00000  Uiso   1.00
O1140  O     0.68769   0.58200   0.93601   0.00000  Uiso   1.00
O1141  O     0.74985   0.60517   0.87600   0.00000  Uiso   1.00
O1142  O     0.81247   0.59469   0.76767   0.00000  Uiso   1.00
O1143  O     0.74119   0.46584   0.73607   0.00000  Uiso   1.00
O1144  O     0.93452   0.52512   0.71806   0.00000  Uiso   1.00
O1145  O     0.73656   0.52293   0.77820   0.00000  Uiso   1.00
O1146  O     0.92106   0.48610   0.76768   0.00000  Uiso   1.00
O1147  O     0.80467   0.40236   0.73607   0.00000  Uiso   1.00
O1148  O     0.87104   0.58860   0.71806   0.00000  Uiso   1.00
S1149  S     0.91437   0.38262   0.51384   0.00000  Uiso   1.00
S1150  S     0.92141   0.41481   0.60520   0.00000  Uiso   1.00
S1151  S     0.72510   0.56612   0.90374   0.00000  Uiso   1.00
Zn1152 Zn    0.85910   0.47423   0.78278   0.00000  Uiso   1.00
Zn1153 Zn    0.80125   0.45711   0.72258   0.00000  Uiso   1.00
Zn1154 Zn    0.87833   0.52997   0.71188   0.00000  Uiso   1.00
Zn1155 Zn    0.79465   0.53868   0.78277   0.00000  Uiso   1.00
C1156  C     0.05246   0.82667   0.75876   0.00000  Uiso   1.00
C1157  C     0.21570   0.82020   0.96003   0.00000  Uiso   1.00
C1158  C     0.23823   0.80007   0.97866   0.00000  Uiso   1.00
C1159  C     0.28108   0.84024   0.74115   0.00000  Uiso   1.00
C1160  C     0.21958   0.79367   0.51900   0.00000  Uiso   1.00
C1161  C     0.18553   0.81747   0.54142   0.00000  Uiso   1.00
C1162  C     0.23467   0.76610   0.53837   0.00000  Uiso   1.00
C1163  C     0.22767   0.77362   0.57979   0.00000  Uiso   1.00
C1164  C     0.17679   0.82240   0.58258   0.00000  Uiso   1.00
C1165  C     0.32714   0.84279   0.73742   0.00000  Uiso   1.00
C1166  C     0.00704   0.82449   0.76227   0.00000  Uiso   1.00
C1167  C     0.09600   0.88147   0.92345   0.00000  Uiso   1.00
C1168  C     0.18083   0.98882   0.73805   0.00000  Uiso   1.00
C1169  C     0.15141   0.67879   0.76217   0.00000  Uiso   1.00
C1170  C     0.15586   0.72280   0.75893   0.00000  Uiso   1.00
C1171  C     0.17684   0.94437   0.74135   0.00000  Uiso   1.00
C1172  C     0.18875   0.81151   0.64403   0.00000  Uiso   1.00
C1173  C     0.14457   0.85409   0.85647   0.00000  Uiso   1.00
C1174  C     0.13290   0.86162   0.90017   0.00000  Uiso   1.00
C1175  C     0.19868   0.80246   0.60132   0.00000  Uiso   1.00
C1176  C     0.08692   0.88559   0.96447   0.00000  Uiso   1.00
C1177  C     0.28456   0.79220   0.95591   0.00000  Uiso   1.00
C1178  C     0.15918   0.84696   0.91915   0.00000  Uiso   1.00
C1179  C     0.31752   0.81636   0.97624   0.00000  Uiso   1.00
C1180  C     0.15009   0.85116   0.96055   0.00000  Uiso   1.00
C1181  C     0.11273   0.87000   0.98297   0.00000  Uiso   1.00
C1182  C     0.17578   0.83541   0.98037   0.00000  Uiso   1.00
C1183  C     0.16176   0.83621   0.52208   0.00000  Uiso   1.00
C1184  C     0.12348   0.85438   0.54309   0.00000  Uiso   1.00
C1185  C     0.10019   0.87184   0.52388   0.00000  Uiso   1.00
H1186  H     0.07105   0.88547   0.54121   0.00000  Uiso   1.00
H1187  H     0.23096   0.82513   0.92961   0.00000  Uiso   1.00
H1188  H     0.23676   0.98612   0.52981   0.00000  Uiso   1.00
H1189  H     0.29210   0.80344   0.62438   0.00000  Uiso   1.00
H1190  H     0.31317   0.85014   0.98164   0.00000  Uiso   1.00
H1191  H     0.31415   0.80446   0.50469   0.00000  Uiso   1.00
H1192  H     0.01749   0.81267   0.95704   0.00000  Uiso   1.00
H1193  H     0.28874   0.75868   0.95051   0.00000  Uiso   1.00
H1194  H     0.29328   0.80254   0.92593   0.00000  Uiso   1.00
H1195  H     0.09577   0.95960   0.89369   0.00000  Uiso   1.00
H1196  H     0.01701   0.85956   0.71440   0.00000  Uiso   1.00
H1197  H     0.31781   0.80785   0.78569   0.00000  Uiso   1.00
H1198  H     0.20797   0.66936   0.71582   0.00000  Uiso   1.00
H1199  H     0.12390   0.99902   0.78450   0.00000  Uiso   1.00
H1200  H     0.15477   0.84369   0.60103   0.00000  Uiso   1.00
H1201  H     0.05858   0.90002   0.98246   0.00000  Uiso   1.00
H1202  H     0.18586   0.83078   0.90083   0.00000  Uiso   1.00
H1203  H     0.10962   0.85447   0.57447   0.00000  Uiso   1.00
O1204  O     0.16667   0.83333   0.75000   0.00000  Uiso   1.00
O1205  O     0.15693   0.79060   0.66625   0.00000  Uiso   1.00
O1206  O     0.12687   0.87313   0.83749   0.00000  Uiso   1.00
O1207  O     0.21088   0.84159   0.65877   0.00000  Uiso   1.00
O1208  O     0.17198   0.82802   0.83749   0.00000  Uiso   1.00
O1209  O     0.22899   0.70543   0.97937   0.00000  Uiso   1.00
O1210  O     0.29603   0.71554   0.99959   0.00000  Uiso   1.00
O1211  O     0.22639   0.67910   0.54488   0.00000  Uiso   1.00
O1212  O     0.22357   0.71397   0.62567   0.00000  Uiso   1.00
O1213  O     0.29373   0.72957   0.57773   0.00000  Uiso   1.00
O1214  O     0.27127   0.78212   0.63944   0.00000  Uiso   1.00
O1215  O     0.17849   0.74768   0.77821   0.00000  Uiso   1.00
O1216  O     0.04104   0.86406   0.87859   0.00000  Uiso   1.00
O1217  O     0.02102   0.91534   0.93601   0.00000  Uiso   1.00
O1218  O     0.08318   0.93850   0.87600   0.00000  Uiso   1.00
O1219  O     0.14581   0.92803   0.76767   0.00000  Uiso   1.00
O1220  O     0.07452   0.79917   0.73607   0.00000  Uiso   1.00
O1221  O     0.26785   0.85845   0.71806   0.00000  Uiso   1.00
O1222  O     0.06990   0.85627   0.77820   0.00000  Uiso   1.00
O1223  O     0.25440   0.81944   0.76768   0.00000  Uiso   1.00
O1224  O     0.13800   0.73570   0.73607   0.00000  Uiso   1.00
O1225  O     0.20437   0.92193   0.71806   0.00000  Uiso   1.00
S1226  S     0.24770   0.71596   0.51384   0.00000  Uiso   1.00
S1227  S     0.25474   0.74814   0.60520   0.00000  Uiso   1.00
S1228  S     0.05843   0.89945   0.90374   0.00000  Uiso   1.00
Zn1229 Zn    0.19244   0.80756   0.78278   0.00000  Uiso   1.00
Zn1230 Zn    0.13459   0.79044   0.72258   0.00000  Uiso   1.00
Zn1231 Zn    0.21166   0.86331   0.71188   0.00000  Uiso   1.00
Zn1232 Zn    0.12798   0.87202   0.78277   0.00000  Uiso   1.00
C1233  C     0.38579   0.82667   0.75876   0.00000  Uiso   1.00
C1234  C     0.54903   0.82020   0.96003   0.00000  Uiso   1.00
C1235  C     0.57156   0.80007   0.97866   0.00000  Uiso   1.00
C1236  C     0.61442   0.84024   0.74115   0.00000  Uiso   1.00
C1237  C     0.55292   0.79367   0.51900   0.00000  Uiso   1.00
C1238  C     0.51886   0.81747   0.54142   0.00000  Uiso   1.00
C1239  C     0.56801   0.76610   0.53837   0.00000  Uiso   1.00
C1240  C     0.56100   0.77362   0.57979   0.00000  Uiso   1.00
C1241  C     0.51013   0.82240   0.58258   0.00000  Uiso   1.00
C1242  C     0.66047   0.84279   0.73742   0.00000  Uiso   1.00
C1243  C     0.34038   0.82449   0.76227   0.00000  Uiso   1.00
C1244  C     0.42933   0.88147   0.92345   0.00000  Uiso   1.00
C1245  C     0.51416   0.98882   0.73805   0.00000  Uiso   1.00
C1246  C     0.48475   0.67879   0.76217   0.00000  Uiso   1.00
C1247  C     0.48919   0.72280   0.75893   0.00000  Uiso   1.00
C1248  C     0.51017   0.94437   0.74135   0.00000  Uiso   1.00
C1249  C     0.52208   0.81151   0.64403   0.00000  Uiso   1.00
C1250  C     0.47790   0.85409   0.85647   0.00000  Uiso   1.00
C1251  C     0.46623   0.86162   0.90017   0.00000  Uiso   1.00
C1252  C     0.53202   0.80246   0.60132   0.00000  Uiso   1.00
C1253  C     0.42026   0.88559   0.96447   0.00000  Uiso   1.00
C1254  C     0.61790   0.79220   0.95591   0.00000  Uiso   1.00
C1255  C     0.49252   0.84696   0.91915   0.00000  Uiso   1.00
C1256  C     0.65086   0.81636   0.97624   0.00000  Uiso   1.00
C1257  C     0.48343   0.85116   0.96055   0.00000  Uiso   1.00
C1258  C     0.44606   0.87000   0.98297   0.00000  Uiso   1.00
C1259  C     0.50911   0.83541   0.98037   0.00000  Uiso   1.00
C1260  C     0.49509   0.83621   0.52208   0.00000  Uiso   1.00
C1261  C     0.45681   0.85438   0.54309   0.00000  Uiso   1.00
C1262  C     0.43352   0.87184   0.52388   0.00000  Uiso   1.00
H1263  H     0.40438   0.88547   0.54121   0.00000  Uiso   1.00
H1264  H     0.56430   0.82513   0.92961   0.00000  Uiso   1.00
H1265  H     0.57009   0.98612   0.52981   0.00000  Uiso   1.00
H1266  H     0.62543   0.80344   0.62438   0.00000  Uiso   1.00
H1267  H     0.64651   0.85014   0.98164   0.00000  Uiso   1.00
H1268  H     0.64748   0.80446   0.50469   0.00000  Uiso   1.00
H1269  H     0.35083   0.81267   0.95704   0.00000  Uiso   1.00
H1270  H     0.62207   0.75868   0.95051   0.00000  Uiso   1.00
H1271  H     0.62661   0.80254   0.92593   0.00000  Uiso   1.00
H1272  H     0.42910   0.95960   0.89369   0.00000  Uiso   1.00
H1273  H     0.35034   0.85956   0.71440   0.00000  Uiso   1.00
H1274  H     0.65115   0.80785   0.78569   0.00000  Uiso   1.00
H1275  H     0.54131   0.66936   0.71582   0.00000  Uiso   1.00
H1276  H     0.45724   0.99902   0.78450   0.00000  Uiso   1.00
H1277  H     0.48810   0.84369   0.60103   0.00000  Uiso   1.00
H1278  H     0.39192   0.90002   0.98246   0.00000  Uiso   1.00
H1279  H     0.51920   0.83078   0.90083   0.00000  Uiso   1.00
H1280  H     0.44295   0.85447   0.57447   0.00000  Uiso   1.00
O1281  O     0.50000   0.83333   0.75000   0.00000  Uiso   1.00
O1282  O     0.49027   0.79060   0.66625   0.00000  Uiso   1.00
O1283  O     0.46020   0.87313   0.83749   0.00000  Uiso   1.00
O1284  O     0.54421   0.84159   0.65877   0.00000  Uiso   1.00
O1285  O     0.50532   0.82802   0.83749   0.00000  Uiso   1.00
O1286  O     0.56233   0.70543   0.97937   0.00000  Uiso   1.00
O1287  O     0.62936   0.71554   0.99959   0.00000  Uiso   1.00
O1288  O     0.55973   0.67910   0.54488   0.00000  Uiso   1.00
O1289  O     0.55691   0.71397   0.62567   0.00000  Uiso   1.00
O1290  O     0.62706   0.72957   0.57773   0.00000  Uiso   1.00
O1291  O     0.60461   0.78212   0.63944   0.00000  Uiso   1.00
O1292  O     0.51182   0.74768   0.77821   0.00000  Uiso   1.00
O1293  O     0.37438   0.86406   0.87859   0.00000  Uiso   1.00
O1294  O     0.35435   0.91534   0.93601   0.00000  Uiso   1.00
O1295  O     0.41652   0.93850   0.87600   0.00000  Uiso   1.00
O1296  O     0.47914   0.92803   0.76767   0.00000  Uiso   1.00
O1297  O     0.40785   0.79917   0.73607   0.00000  Uiso   1.00
O1298  O     0.60119   0.85845   0.71806   0.00000  Uiso   1.00
O1299  O     0.40323   0.85627   0.77820   0.00000  Uiso   1.00
O1300  O     0.58773   0.81944   0.76768   0.00000  Uiso   1.00
O1301  O     0.47133   0.73570   0.73607   0.00000  Uiso   1.00
O1302  O     0.53771   0.92193   0.71806   0.00000  Uiso   1.00
S1303  S     0.58103   0.71596   0.51384   0.00000  Uiso   1.00
S1304  S     0.58807   0.74814   0.60520   0.00000  Uiso   1.00
S1305  S     0.39176   0.89945   0.90374   0.00000  Uiso   1.00
Zn1306 Zn    0.52577   0.80756   0.78278   0.00000  Uiso   1.00
Zn1307 Zn    0.46792   0.79044   0.72258   0.00000  Uiso   1.00
Zn1308 Zn    0.54500   0.86331   0.71188   0.00000  Uiso   1.00
Zn1309 Zn    0.46131   0.87202   0.78277   0.00000  Uiso   1.00
C1310  C     0.71912   0.82667   0.75876   0.00000  Uiso   1.00
C1311  C     0.88236   0.82020   0.96003   0.00000  Uiso   1.00
C1312  C     0.90489   0.80007   0.97866   0.00000  Uiso   1.00
C1313  C     0.94775   0.84024   0.74115   0.00000  Uiso   1.00
C1314  C     0.88625   0.79367   0.51900   0.00000  Uiso   1.00
C1315  C     0.85220   0.81747   0.54142   0.00000  Uiso   1.00
C1316  C     0.90134   0.76610   0.53837   0.00000  Uiso   1.00
C1317  C     0.89433   0.77362   0.57979   0.00000  Uiso   1.00
C1318  C     0.84346   0.82240   0.58258   0.00000  Uiso   1.00
C1319  C     0.99380   0.84279   0.73742   0.00000  Uiso   1.00
C1320  C     0.67371   0.82449   0.76227   0.00000  Uiso   1.00
C1321  C     0.76267   0.88147   0.92345   0.00000  Uiso   1.00
C1322  C     0.84749   0.98882   0.73805   0.00000  Uiso   1.00
C1323  C     0.81808   0.67879   0.76217   0.00000  Uiso   1.00
C1324  C     0.82253   0.72280   0.75893   0.00000  Uiso   1.00
C1325  C     0.84350   0.94437   0.74135   0.00000  Uiso   1.00
C1326  C     0.85541   0.81151   0.64403   0.00000  Uiso   1.00
C1327  C     0.81124   0.85409   0.85647   0.00000  Uiso   1.00
C1328  C     0.79957   0.86162   0.90017   0.00000  Uiso   1.00
C1329  C     0.86535   0.80246   0.60132   0.00000  Uiso   1.00
C1330  C     0.75359   0.88559   0.96447   0.00000  Uiso   1.00
C1331  C     0.95123   0.79220   0.95591   0.00000  Uiso   1.00
C1332  C     0.82585   0.84696   0.91915   0.00000  Uiso   1.00
C1333  C     0.98419   0.81636   0.97624   0.00000  Uiso   1.00
C1334  C     0.81676   0.85116   0.96055   0.00000  Uiso   1.00
C1335  C     0.77939   0.87000   0.98297   0.00000  Uiso   1.00
C1336  C     0.84244   0.83541   0.98037   0.00000  Uiso   1.00
C1337  C     0.82843   0.83621   0.52208   0.00000  Uiso   1.00
C1338  C     0.79015   0.85438   0.54309   0.00000  Uiso   1.00
C1339  C     0.76685   0.87184   0.52388   0.00000  Uiso   1.00
H1340  H     0.73772   0.88547   0.54121   0.00000  Uiso   1.00
H1341  H     0.89763   0.82513   0.92961   0.00000  Uiso   1.00
H1342  H     0.90342   0.98612   0.52981   0.00000  Uiso   1.00
H1343  H     0.95877   0.80344   0.62438   0.00000  Uiso   1.00
H1344  H     0.97984   0.85014   0.98164   0.00000  Uiso   1.00
H1345  H     0.98082   0.80446   0.50469   0.00000  Uiso   1.00
H1346  H     0.68416   0.81267   0.95704   0.00000  Uiso   1.00
H1347  H     0.95541   0.75868   0.95051   0.00000  Uiso   1.00
H1348  H     0.95995   0.80254   0.92593   0.00000  Uiso   1.00
H1349  H     0.76243   0.95960   0.89369   0.00000  Uiso   1.00
H1350  H     0.68368   0.85956   0.71440   0.00000  Uiso   1.00
H1351  H     0.98448   0.80785   0.78569   0.00000  Uiso   1.00
H1352  H     0.87464   0.66936   0.71582   0.00000  Uiso   1.00
H1353  H     0.79057   0.99902   0.78450   0.00000  Uiso   1.00
H1354  H     0.82144   0.84369   0.60103   0.00000  Uiso   1.00
H1355  H     0.72525   0.90002   0.98246   0.00000  Uiso   1.00
H1356  H     0.85253   0.83078   0.90083   0.00000  Uiso   1.00
H1357  H     0.77629   0.85447   0.57447   0.00000  Uiso   1.00
O1358  O     0.83333   0.83333   0.75000   0.00000  Uiso   1.00
O1359  O     0.82360   0.79060   0.66625   0.00000  Uiso   1.00
O1360  O     0.79354   0.87313   0.83749   0.00000  Uiso   1.00
O1361  O     0.87755   0.84159   0.65877   0.00000  Uiso   1.00
O1362  O     0.83865   0.82802   0.83749   0.00000  Uiso   1.00
O1363  O     0.89566   0.70543   0.97937   0.00000  Uiso   1.00
O1364  O     0.96270   0.71554   0.99959   0.00000  Uiso   1.00
O1365  O     0.89306   0.67910   0.54488   0.00000  Uiso   1.00
O1366  O     0.89024   0.71397   0.62567   0.00000  Uiso   1.00
O1367  O     0.96039   0.72957   0.57773   0.00000  Uiso   1.00
O1368  O     0.93794   0.78212   0.63944   0.00000  Uiso   1.00
O1369  O     0.84515   0.74768   0.77821   0.00000  Uiso   1.00
O1370  O     0.70771   0.86406   0.87859   0.00000  Uiso   1.00
O1371  O     0.68769   0.91534   0.93601   0.00000  Uiso   1.00
O1372  O     0.74985   0.93850   0.87600   0.00000  Uiso   1.00
O1373  O     0.81247   0.92803   0.76767   0.00000  Uiso   1.00
O1374  O     0.74119   0.79917   0.73607   0.00000  Uiso   1.00
O1375  O     0.93452   0.85845   0.71806   0.00000  Uiso   1.00
O1376  O     0.73656   0.85627   0.77820   0.00000  Uiso   1.00
O1377  O     0.92106   0.81944   0.76768   0.00000  Uiso   1.00
O1378  O     0.80467   0.73570   0.73607   0.00000  Uiso   1.00
O1379  O     0.87104   0.92193   0.71806   0.00000  Uiso   1.00
S1380  S     0.91437   0.71596   0.51384   0.00000  Uiso   1.00
S1381  S     0.92141   0.74814   0.60520   0.00000  Uiso   1.00
S1382  S     0.72510   0.89945   0.90374   0.00000  Uiso   1.00
Zn1383 Zn    0.85910   0.80756   0.78278   0.00000  Uiso   1.00
Zn1384 Zn    0.80125   0.79044   0.72258   0.00000  Uiso   1.00
Zn1385 Zn    0.87833   0.86331   0.71188   0.00000  Uiso   1.00
Zn1386 Zn    0.79465   0.87202   0.78277   0.00000  Uiso   1.00
loop_
_geom_bond_atom_site_label_1
_geom_bond_atom_site_label_2
_geom_bond_distance
_geom_bond_site_symmetry_2
_ccdc_geom_bond_type
C1     C11     1.436   .     S
C1     O65     1.268   .     A
C1     O67     1.268   .     A
C2     H32     1.077   .     S
C2     C27     1.410   .     A
C2     C3      1.401   .     A
C3     C22     1.525   .     S
C3     C698    1.421   .     S
C4     O68     1.278   .     A
C4     C10     1.454   .     S
C4     O66     1.282   .     A
C5     C7      1.426   .     A
C5     C6      1.421   .     A
C5     C696    1.421   1_554 S
C6     C9      1.402   .     A
C6     C28     1.422   .     A
C7     C8      1.419   .     A
C7     S71     1.783   .     S
C8     S72     1.787   .     S
C8     C20     1.409   .     A
C9     H45     1.079   .     S
C9     C20     1.385   .     A
C10    C88     1.335   .     S
C10    H118    1.088   .     S
C11    C164    1.335   1_455 S
C11    H196    1.086   1_455 S
C12    C21     1.397   .     A
C12    C19     1.426   .     A
C12    S73     1.780   .     S
C13    C16     1.451   .     S
C13    C245    1.331   .     S
C13    H274    1.088   .     S
C14    C15     1.435   .     S
C14    C475    1.331   1_545 S
C14    H506    1.086   1_545 S
C15    O60     1.277   .     A
C15    O69     1.277   .     A
C16    O70     1.267   .     A
C16    O64     1.268   .     A
C17    C20     1.458   .     S
C17    O52     1.272   .     A
C17    O50     1.274   .     A
C18    C19     1.486   .     S
C18    O53     1.294   .     A
C18    O51     1.277   .     A
C19    C23     1.405   .     A
C21    C26     1.396   .     A
C21    H46     1.083   .     S
C22    H38     1.101   .     S
C22    C24     1.529   .     S
C22    H39     1.112   .     S
C23    H47     1.076   .     S
C23    C25     1.410   .     A
C24    H35     1.110   .     S
C24    H729    1.109   .     S
C24    H114    1.110   .     S
C25    C26     1.413   .     A
C25    C27     1.429   .     A
C26    C723    1.391   .     S
C27    C721    1.420   .     S
C28    C29     1.414   .     A
C28    C720    1.420   1_554 S
C29    H48     1.077   .     S
C29    C30     1.383   .     A
C30    H31     1.085   .     S
C30    C719    1.391   1_554 S
H33    O287    0.991   .     S
H34    O59     0.991   .     S
H36    C717    1.109   1_554 S
H37    C178    1.110   1_455 S
H40    O63     0.991   .     S
H41    C164    1.088   1_455 S
H42    C88     1.086   .     S
H43    C475    1.088   1_545 S
H44    C245    1.086   .     S
O49    Zn75    1.942   .     S
O49    Zn76    1.930   .     S
O49    Zn77    1.926   .     S
O49    Zn74    1.961   .     S
O50    Zn75    1.927   .     S
O51    Zn77    1.939   .     S
O52    Zn76    1.932   .     S
O53    Zn74    1.921   .     S
O54    S764    1.504   .     S
O55    S764    1.503   .     S
O56    S71     1.682   .     S
O56    H495    0.991   1_545 S
O57    S72     1.503   .     D
O58    S72     1.502   .     D
O59    S72     1.682   .     S
O60    Zn74    1.928   .     S
O61    S73     1.503   .     D
O62    S73     1.504   .     D
O63    S73     1.682   .     S
O64    Zn77    1.931   .     S
O65    Zn75    1.923   .     S
O66    Zn76    1.935   .     S
O67    Zn77    1.930   .     S
O68    Zn74    1.920   .     S
O69    Zn75    1.937   .     S
O70    Zn76    1.929   .     S
S71    O747    1.504   1_554 S
S71    O748    1.503   1_554 S
C78    C88     1.436   .     S
C78    O142    1.268   .     A
C78    O144    1.268   .     A
C79    H109    1.077   .     S
C79    C104    1.410   .     A
C79    C80     1.401   .     A
C80    C99     1.525   .     S
C80    C775    1.421   .     S
C81    O145    1.278   .     A
C81    C87     1.454   .     S
C81    O143    1.282   .     A
C82    C84     1.426   .     A
C82    C83     1.421   .     A
C82    C773    1.421   1_554 S
C83    C86     1.402   .     A
C83    C105    1.422   .     A
C84    C85     1.419   .     A
C84    S148    1.783   .     S
C85    S149    1.787   .     S
C85    C97     1.409   .     A
C86    H122    1.079   .     S
C86    C97     1.385   .     A
C87    C165    1.335   .     S
C87    H195    1.088   .     S
C89    C98     1.397   .     A
C89    C96     1.426   .     A
C89    S150    1.780   .     S
C90    C93     1.451   .     S
C90    C322    1.331   .     S
C90    H351    1.088   .     S
C91    C92     1.435   .     S
C91    C552    1.331   1_545 S
C91    H583    1.086   1_545 S
C92    O137    1.277   .     A
C92    O146    1.277   .     A
C93    O147    1.267   .     A
C93    O141    1.268   .     A
C94    C97     1.458   .     S
C94    O129    1.272   .     A
C94    O127    1.274   .     A
C95    C96     1.486   .     S
C95    O130    1.294   .     A
C95    O128    1.277   .     A
C96    C100    1.405   .     A
C98    C103    1.396   .     A
C98    H123    1.083   .     S
C99    H115    1.101   .     S
C99    C101    1.529   .     S
C99    H116    1.112   .     S
C100   H124    1.076   .     S
C100   C102    1.410   .     A
C101   H112    1.110   .     S
C101   H806    1.109   .     S
C101   H191    1.110   .     S
C102   C103    1.413   .     A
C102   C104    1.429   .     A
C103   C800    1.391   .     S
C104   C798    1.420   .     S
C105   C106    1.414   .     A
C105   C797    1.420   1_554 S
C106   H125    1.077   .     S
C106   C107    1.383   .     A
C107   H108    1.085   .     S
C107   C796    1.391   1_554 S
H110   O364    0.991   .     S
H111   O136    0.991   .     S
H113   C794    1.109   1_554 S
H117   O140    0.991   .     S
H119   C165    1.086   .     S
H120   C552    1.088   1_545 S
H121   C322    1.086   .     S
O126   Zn152   1.942   .     S
O126   Zn153   1.930   .     S
O126   Zn154   1.926   .     S
O126   Zn151   1.961   .     S
O127   Zn152   1.927   .     S
O128   Zn154   1.939   .     S
O129   Zn153   1.932   .     S
O130   Zn151   1.921   .     S
O131   S841    1.504   .     S
O132   S841    1.503   .     S
O133   S148    1.682   .     S
O133   H572    0.991   1_545 S
O134   S149    1.503   .     D
O135   S149    1.502   .     D
O136   S149    1.682   .     S
O137   Zn151   1.928   .     S
O138   S150    1.503   .     D
O139   S150    1.504   .     D
O140   S150    1.682   .     S
O141   Zn154   1.931   .     S
O142   Zn152   1.923   .     S
O143   Zn153   1.935   .     S
O144   Zn154   1.930   .     S
O145   Zn151   1.920   .     S
O146   Zn152   1.937   .     S
O147   Zn153   1.929   .     S
S148   O824    1.504   1_554 S
S148   O825    1.503   1_554 S
C155   C165    1.436   .     S
C155   O219    1.268   .     A
C155   O221    1.268   .     A
C156   H186    1.077   .     S
C156   C181    1.410   .     A
C156   C157    1.401   .     A
C157   C176    1.525   .     S
C157   C852    1.421   .     S
C158   O222    1.278   .     A
C158   C164    1.454   .     S
C158   O220    1.282   .     A
C159   C161    1.426   .     A
C159   C160    1.421   .     A
C159   C850    1.421   1_554 S
C160   C163    1.402   .     A
C160   C182    1.422   .     A
C161   C162    1.419   .     A
C161   S225    1.783   .     S
C162   S226    1.787   .     S
C162   C174    1.409   .     A
C163   H199    1.079   .     S
C163   C174    1.385   .     A
C164   C11     1.335   1_655 S
C164   H41     1.088   1_655 S
C166   C175    1.397   .     A
C166   C173    1.426   .     A
C166   S227    1.780   .     S
C167   C170    1.451   .     S
C167   C399    1.331   .     S
C167   H428    1.088   .     S
C168   C169    1.435   .     S
C168   C629    1.331   1_545 S
C168   H660    1.086   1_545 S
C169   O214    1.277   .     A
C169   O223    1.277   .     A
C170   O224    1.267   .     A
C170   O218    1.268   .     A
C171   C174    1.458   .     S
C171   O206    1.272   .     A
C171   O204    1.274   .     A
C172   C173    1.486   .     S
C172   O207    1.294   .     A
C172   O205    1.277   .     A
C173   C177    1.405   .     A
C175   C180    1.396   .     A
C175   H200    1.083   .     S
C176   H192    1.101   .     S
C176   C178    1.529   .     S
C176   H193    1.112   .     S
C177   H201    1.076   .     S
C177   C179    1.410   .     A
C178   H189    1.110   .     S
C178   H883    1.109   .     S
C178   H37     1.110   1_655 S
C179   C180    1.413   .     A
C179   C181    1.429   .     A
C180   C877    1.391   .     S
C181   C875    1.420   .     S
C182   C183    1.414   .     A
C182   C874    1.420   1_554 S
C183   H202    1.077   .     S
C183   C184    1.383   .     A
C184   H185    1.085   .     S
C184   C873    1.391   1_554 S
H187   O441    0.991   .     S
H188   O213    0.991   .     S
H190   C871    1.109   1_554 S
H194   O217    0.991   .     S
H196   C11     1.086   1_655 S
H197   C629    1.088   1_545 S
H198   C399    1.086   .     S
O203   Zn229   1.942   .     S
O203   Zn230   1.930   .     S
O203   Zn231   1.926   .     S
O203   Zn228   1.961   .     S
O204   Zn229   1.927   .     S
O205   Zn231   1.939   .     S
O206   Zn230   1.932   .     S
O207   Zn228   1.921   .     S
O208   S918    1.504   .     S
O209   S918    1.503   .     S
O210   S225    1.682   .     S
O210   H649    0.991   1_545 S
O211   S226    1.503   .     D
O212   S226    1.502   .     D
O213   S226    1.682   .     S
O214   Zn228   1.928   .     S
O215   S227    1.503   .     D
O216   S227    1.504   .     D
O217   S227    1.682   .     S
O218   Zn231   1.931   .     S
O219   Zn229   1.923   .     S
O220   Zn230   1.935   .     S
O221   Zn231   1.930   .     S
O222   Zn228   1.920   .     S
O223   Zn229   1.937   .     S
O224   Zn230   1.929   .     S
S225   O901    1.504   1_554 S
S225   O902    1.503   1_554 S
C232   C242    1.436   .     S
C232   O296    1.268   .     A
C232   O298    1.268   .     A
C233   H263    1.077   .     S
C233   C258    1.410   .     A
C233   C234    1.401   .     A
C234   C253    1.525   .     S
C234   C929    1.421   .     S
C235   O299    1.278   .     A
C235   C241    1.454   .     S
C235   O297    1.282   .     A
C236   C238    1.426   .     A
C236   C237    1.421   .     A
C236   C927    1.421   1_554 S
C237   C240    1.402   .     A
C237   C259    1.422   .     A
C238   C239    1.419   .     A
C238   S302    1.783   .     S
C239   S303    1.787   .     S
C239   C251    1.409   .     A
C240   H276    1.079   .     S
C240   C251    1.385   .     A
C241   C319    1.335   .     S
C241   H349    1.088   .     S
C242   C395    1.335   1_455 S
C242   H427    1.086   1_455 S
C243   C252    1.397   .     A
C243   C250    1.426   .     A
C243   S304    1.780   .     S
C244   C247    1.451   .     S
C244   C476    1.331   .     S
C244   H505    1.088   .     S
C245   C246    1.435   .     S
C246   O291    1.277   .     A
C246   O300    1.277   .     A
C247   O301    1.267   .     A
C247   O295    1.268   .     A
C248   C251    1.458   .     S
C248   O283    1.272   .     A
C248   O281    1.274   .     A
C249   C250    1.486   .     S
C249   O284    1.294   .     A
C249   O282    1.277   .     A
C250   C254    1.405   .     A
C252   C257    1.396   .     A
C252   H277    1.083   .     S
C253   H269    1.101   .     S
C253   C255    1.529   .     S
C253   H270    1.112   .     S
C254   H278    1.076   .     S
C254   C256    1.410   .     A
C255   H266    1.110   .     S
C255   H960    1.109   .     S
C255   H345    1.110   .     S
C256   C257    1.413   .     A
C256   C258    1.429   .     A
C257   C954    1.391   .     S
C258   C952    1.420   .     S
C259   C260    1.414   .     A
C259   C951    1.420   1_554 S
C260   H279    1.077   .     S
C260   C261    1.383   .     A
C261   H262    1.085   .     S
C261   C950    1.391   1_554 S
H264   O518    0.991   .     S
H265   O290    0.991   .     S
H267   C948    1.109   1_554 S
H268   C409    1.110   1_455 S
H271   O294    0.991   .     S
H272   C395    1.088   1_455 S
H273   C319    1.086   .     S
H275   C476    1.086   .     S
O280   Zn306   1.942   .     S
O280   Zn307   1.930   .     S
O280   Zn308   1.926   .     S
O280   Zn305   1.961   .     S
O281   Zn306   1.927   .     S
O282   Zn308   1.939   .     S
O283   Zn307   1.932   .     S
O284   Zn305   1.921   .     S
O285   S995    1.504   .     S
O286   S995    1.503   .     S
O287   S302    1.682   .     S
O288   S303    1.503   .     D
O289   S303    1.502   .     D
O290   S303    1.682   .     S
O291   Zn305   1.928   .     S
O292   S304    1.503   .     D
O293   S304    1.504   .     D
O294   S304    1.682   .     S
O295   Zn308   1.931   .     S
O296   Zn306   1.923   .     S
O297   Zn307   1.935   .     S
O298   Zn308   1.930   .     S
O299   Zn305   1.920   .     S
O300   Zn306   1.937   .     S
O301   Zn307   1.929   .     S
S302   O978    1.504   1_554 S
S302   O979    1.503   1_554 S
C309   C319    1.436   .     S
C309   O373    1.268   .     A
C309   O375    1.268   .     A
C310   H340    1.077   .     S
C310   C335    1.410   .     A
C310   C311    1.401   .     A
C311   C330    1.525   .     S
C311   C1006   1.421   .     S
C312   O376    1.278   .     A
C312   C318    1.454   .     S
C312   O374    1.282   .     A
C313   C315    1.426   .     A
C313   C314    1.421   .     A
C313   C1004   1.421   1_554 S
C314   C317    1.402   .     A
C314   C336    1.422   .     A
C315   C316    1.419   .     A
C315   S379    1.783   .     S
C316   S380    1.787   .     S
C316   C328    1.409   .     A
C317   H353    1.079   .     S
C317   C328    1.385   .     A
C318   C396    1.335   .     S
C318   H426    1.088   .     S
C320   C329    1.397   .     A
C320   C327    1.426   .     A
C320   S381    1.780   .     S
C321   C324    1.451   .     S
C321   C553    1.331   .     S
C321   H582    1.088   .     S
C322   C323    1.435   .     S
C323   O368    1.277   .     A
C323   O377    1.277   .     A
C324   O378    1.267   .     A
C324   O372    1.268   .     A
C325   C328    1.458   .     S
C325   O360    1.272   .     A
C325   O358    1.274   .     A
C326   C327    1.486   .     S
C326   O361    1.294   .     A
C326   O359    1.277   .     A
C327   C331    1.405   .     A
C329   C334    1.396   .     A
C329   H354    1.083   .     S
C330   H346    1.101   .     S
C330   C332    1.529   .     S
C330   H347    1.112   .     S
C331   H355    1.076   .     S
C331   C333    1.410   .     A
C332   H343    1.110   .     S
C332   H1037   1.109   .     S
C332   H422    1.110   .     S
C333   C334    1.413   .     A
C333   C335    1.429   .     A
C334   C1031   1.391   .     S
C335   C1029   1.420   .     S
C336   C337    1.414   .     A
C336   C1028   1.420   1_554 S
C337   H356    1.077   .     S
C337   C338    1.383   .     A
C338   H339    1.085   .     S
C338   C1027   1.391   1_554 S
H341   O595    0.991   .     S
H342   O367    0.991   .     S
H344   C1025   1.109   1_554 S
H348   O371    0.991   .     S
H350   C396    1.086   .     S
H352   C553    1.086   .     S
O357   Zn383   1.942   .     S
O357   Zn384   1.930   .     S
O357   Zn385   1.926   .     S
O357   Zn382   1.961   .     S
O358   Zn383   1.927   .     S
O359   Zn385   1.939   .     S
O360   Zn384   1.932   .     S
O361   Zn382   1.921   .     S
O362   S1072   1.504   .     S
O363   S1072   1.503   .     S
O364   S379    1.682   .     S
O365   S380    1.503   .     D
O366   S380    1.502   .     D
O367   S380    1.682   .     S
O368   Zn382   1.928   .     S
O369   S381    1.503   .     D
O370   S381    1.504   .     D
O371   S381    1.682   .     S
O372   Zn385   1.931   .     S
O373   Zn383   1.923   .     S
O374   Zn384   1.935   .     S
O375   Zn385   1.930   .     S
O376   Zn382   1.920   .     S
O377   Zn383   1.937   .     S
O378   Zn384   1.929   .     S
S379   O1055   1.504   1_554 S
S379   O1056   1.503   1_554 S
C386   C396    1.436   .     S
C386   O450    1.268   .     A
C386   O452    1.268   .     A
C387   H417    1.077   .     S
C387   C412    1.410   .     A
C387   C388    1.401   .     A
C388   C407    1.525   .     S
C388   C1083   1.421   .     S
C389   O453    1.278   .     A
C389   C395    1.454   .     S
C389   O451    1.282   .     A
C390   C392    1.426   .     A
C390   C391    1.421   .     A
C390   C1081   1.421   1_554 S
C391   C394    1.402   .     A
C391   C413    1.422   .     A
C392   C393    1.419   .     A
C392   S456    1.783   .     S
C393   S457    1.787   .     S
C393   C405    1.409   .     A
C394   H430    1.079   .     S
C394   C405    1.385   .     A
C395   C242    1.335   1_655 S
C395   H272    1.088   1_655 S
C397   C406    1.397   .     A
C397   C404    1.426   .     A
C397   S458    1.780   .     S
C398   C401    1.451   .     S
C398   C630    1.331   .     S
C398   H659    1.088   .     S
C399   C400    1.435   .     S
C400   O445    1.277   .     A
C400   O454    1.277   .     A
C401   O455    1.267   .     A
C401   O449    1.268   .     A
C402   C405    1.458   .     S
C402   O437    1.272   .     A
C402   O435    1.274   .     A
C403   C404    1.486   .     S
C403   O438    1.294   .     A
C403   O436    1.277   .     A
C404   C408    1.405   .     A
C406   C411    1.396   .     A
C406   H431    1.083   .     S
C407   H423    1.101   .     S
C407   C409    1.529   .     S
C407   H424    1.112   .     S
C408   H432    1.076   .     S
C408   C410    1.410   .     A
C409   H420    1.110   .     S
C409   H1114   1.109   .     S
C409   H268    1.110   1_655 S
C410   C411    1.413   .     A
C410   C412    1.429   .     A
C411   C1108   1.391   .     S
C412   C1106   1.420   .     S
C413   C414    1.414   .     A
C413   C1105   1.420   1_554 S
C414   H433    1.077   .     S
C414   C415    1.383   .     A
C415   H416    1.085   .     S
C415   C1104   1.391   1_554 S
H418   O672    0.991   .     S
H419   O444    0.991   .     S
H421   C1102   1.109   1_554 S
H425   O448    0.991   .     S
H427   C242    1.086   1_655 S
H429   C630    1.086   .     S
O434   Zn460   1.942   .     S
O434   Zn461   1.930   .     S
O434   Zn462   1.926   .     S
O434   Zn459   1.961   .     S
O435   Zn460   1.927   .     S
O436   Zn462   1.939   .     S
O437   Zn461   1.932   .     S
O438   Zn459   1.921   .     S
O439   S1149   1.504   .     S
O440   S1149   1.503   .     S
O441   S456    1.682   .     S
O442   S457    1.503   .     D
O443   S457    1.502   .     D
O444   S457    1.682   .     S
O445   Zn459   1.928   .     S
O446   S458    1.503   .     D
O447   S458    1.504   .     D
O448   S458    1.682   .     S
O449   Zn462   1.931   .     S
O450   Zn460   1.923   .     S
O451   Zn461   1.935   .     S
O452   Zn462   1.930   .     S
O453   Zn459   1.920   .     S
O454   Zn460   1.937   .     S
O455   Zn461   1.929   .     S
S456   O1132   1.504   1_554 S
S456   O1133   1.503   1_554 S
C463   C473    1.436   .     S
C463   O527    1.268   .     A
C463   O529    1.268   .     A
C464   H494    1.077   .     S
C464   C489    1.410   .     A
C464   C465    1.401   .     A
C465   C484    1.525   .     S
C465   C1160   1.421   .     S
C466   O530    1.278   .     A
C466   C472    1.454   .     S
C466   O528    1.282   .     A
C467   C469    1.426   .     A
C467   C468    1.421   .     A
C467   C1158   1.421   1_554 S
C468   C471    1.402   .     A
C468   C490    1.422   .     A
C469   C470    1.419   .     A
C469   S533    1.783   .     S
C470   S534    1.787   .     S
C470   C482    1.409   .     A
C471   H507    1.079   .     S
C471   C482    1.385   .     A
C472   C550    1.335   .     S
C472   H580    1.088   .     S
C473   C626    1.335   1_455 S
C473   H658    1.086   1_455 S
C474   C483    1.397   .     A
C474   C481    1.426   .     A
C474   S535    1.780   .     S
C475   C478    1.451   .     S
C475   C14     1.331   1_565 S
C475   H43     1.088   1_565 S
C476   C477    1.435   .     S
C477   O522    1.277   .     A
C477   O531    1.277   .     A
C478   O532    1.267   .     A
C478   O526    1.268   .     A
C479   C482    1.458   .     S
C479   O514    1.272   .     A
C479   O512    1.274   .     A
C480   C481    1.486   .     S
C480   O515    1.294   .     A
C480   O513    1.277   .     A
C481   C485    1.405   .     A
C483   C488    1.396   .     A
C483   H508    1.083   .     S
C484   H500    1.101   .     S
C484   C486    1.529   .     S
C484   H501    1.112   .     S
C485   H509    1.076   .     S
C485   C487    1.410   .     A
C486   H497    1.110   .     S
C486   H1191   1.109   .     S
C486   H576    1.110   .     S
C487   C488    1.413   .     A
C487   C489    1.429   .     A
C488   C1185   1.391   .     S
C489   C1183   1.420   .     S
C490   C491    1.414   .     A
C490   C1182   1.420   1_554 S
C491   H510    1.077   .     S
C491   C492    1.383   .     A
C492   H493    1.085   .     S
C492   C1181   1.391   1_554 S
H495   O56     0.991   1_565 S
H496   O521    0.991   .     S
H498   C1179   1.109   1_554 S
H499   C640    1.110   1_455 S
H502   O525    0.991   .     S
H503   C626    1.088   1_455 S
H504   C550    1.086   .     S
H506   C14     1.086   1_565 S
O511   Zn537   1.942   .     S
O511   Zn538   1.930   .     S
O511   Zn539   1.926   .     S
O511   Zn536   1.961   .     S
O512   Zn537   1.927   .     S
O513   Zn539   1.939   .     S
O514   Zn538   1.932   .     S
O515   Zn536   1.921   .     S
O516   S1226   1.504   .     S
O517   S1226   1.503   .     S
O518   S533    1.682   .     S
O519   S534    1.503   .     D
O520   S534    1.502   .     D
O521   S534    1.682   .     S
O522   Zn536   1.928   .     S
O523   S535    1.503   .     D
O524   S535    1.504   .     D
O525   S535    1.682   .     S
O526   Zn539   1.931   .     S
O527   Zn537   1.923   .     S
O528   Zn538   1.935   .     S
O529   Zn539   1.930   .     S
O530   Zn536   1.920   .     S
O531   Zn537   1.937   .     S
O532   Zn538   1.929   .     S
S533   O1209   1.504   1_554 S
S533   O1210   1.503   1_554 S
C540   C550    1.436   .     S
C540   O604    1.268   .     A
C540   O606    1.268   .     A
C541   H571    1.077   .     S
C541   C566    1.410   .     A
C541   C542    1.401   .     A
C542   C561    1.525   .     S
C542   C1237   1.421   .     S
C543   O607    1.278   .     A
C543   C549    1.454   .     S
C543   O605    1.282   .     A
C544   C546    1.426   .     A
C544   C545    1.421   .     A
C544   C1235   1.421   1_554 S
C545   C548    1.402   .     A
C545   C567    1.422   .     A
C546   C547    1.419   .     A
C546   S610    1.783   .     S
C547   S611    1.787   .     S
C547   C559    1.409   .     A
C548   H584    1.079   .     S
C548   C559    1.385   .     A
C549   C627    1.335   .     S
C549   H657    1.088   .     S
C551   C560    1.397   .     A
C551   C558    1.426   .     A
C551   S612    1.780   .     S
C552   C555    1.451   .     S
C552   C91     1.331   1_565 S
C552   H120    1.088   1_565 S
C553   C554    1.435   .     S
C554   O599    1.277   .     A
C554   O608    1.277   .     A
C555   O609    1.267   .     A
C555   O603    1.268   .     A
C556   C559    1.458   .     S
C556   O591    1.272   .     A
C556   O589    1.274   .     A
C557   C558    1.486   .     S
C557   O592    1.294   .     A
C557   O590    1.277   .     A
C558   C562    1.405   .     A
C560   C565    1.396   .     A
C560   H585    1.083   .     S
C561   H577    1.101   .     S
C561   C563    1.529   .     S
C561   H578    1.112   .     S
C562   H586    1.076   .     S
C562   C564    1.410   .     A
C563   H574    1.110   .     S
C563   H1268   1.109   .     S
C563   H653    1.110   .     S
C564   C565    1.413   .     A
C564   C566    1.429   .     A
C565   C1262   1.391   .     S
C566   C1260   1.420   .     S
C567   C568    1.414   .     A
C567   C1259   1.420   1_554 S
C568   H587    1.077   .     S
C568   C569    1.383   .     A
C569   H570    1.085   .     S
C569   C1258   1.391   1_554 S
H572   O133    0.991   1_565 S
H573   O598    0.991   .     S
H575   C1256   1.109   1_554 S
H579   O602    0.991   .     S
H581   C627    1.086   .     S
H583   C91     1.086   1_565 S
O588   Zn614   1.942   .     S
O588   Zn615   1.930   .     S
O588   Zn616   1.926   .     S
O588   Zn613   1.961   .     S
O589   Zn614   1.927   .     S
O590   Zn616   1.939   .     S
O591   Zn615   1.932   .     S
O592   Zn613   1.921   .     S
O593   S1303   1.504   .     S
O594   S1303   1.503   .     S
O595   S610    1.682   .     S
O596   S611    1.503   .     D
O597   S611    1.502   .     D
O598   S611    1.682   .     S
O599   Zn613   1.928   .     S
O600   S612    1.503   .     D
O601   S612    1.504   .     D
O602   S612    1.682   .     S
O603   Zn616   1.931   .     S
O604   Zn614   1.923   .     S
O605   Zn615   1.935   .     S
O606   Zn616   1.930   .     S
O607   Zn613   1.920   .     S
O608   Zn614   1.937   .     S
O609   Zn615   1.929   .     S
S610   O1286   1.504   1_554 S
S610   O1287   1.503   1_554 S
C617   C627    1.436   .     S
C617   O681    1.268   .     A
C617   O683    1.268   .     A
C618   H648    1.077   .     S
C618   C643    1.410   .     A
C618   C619    1.401   .     A
C619   C638    1.525   .     S
C619   C1314   1.421   .     S
C620   O684    1.278   .     A
C620   C626    1.454   .     S
C620   O682    1.282   .     A
C621   C623    1.426   .     A
C621   C622    1.421   .     A
C621   C1312   1.421   1_554 S
C622   C625    1.402   .     A
C622   C644    1.422   .     A
C623   C624    1.419   .     A
C623   S687    1.783   .     S
C624   S688    1.787   .     S
C624   C636    1.409   .     A
C625   H661    1.079   .     S
C625   C636    1.385   .     A
C626   C473    1.335   1_655 S
C626   H503    1.088   1_655 S
C628   C637    1.397   .     A
C628   C635    1.426   .     A
C628   S689    1.780   .     S
C629   C632    1.451   .     S
C629   C168    1.331   1_565 S
C629   H197    1.088   1_565 S
C630   C631    1.435   .     S
C631   O676    1.277   .     A
C631   O685    1.277   .     A
C632   O686    1.267   .     A
C632   O680    1.268   .     A
C633   C636    1.458   .     S
C633   O668    1.272   .     A
C633   O666    1.274   .     A
C634   C635    1.486   .     S
C634   O669    1.294   .     A
C634   O667    1.277   .     A
C635   C639    1.405   .     A
C637   C642    1.396   .     A
C637   H662    1.083   .     S
C638   H654    1.101   .     S
C638   C640    1.529   .     S
C638   H655    1.112   .     S
C639   H663    1.076   .     S
C639   C641    1.410   .     A
C640   H651    1.110   .     S
C640   H1345   1.109   .     S
C640   H499    1.110   1_655 S
C641   C642    1.413   .     A
C641   C643    1.429   .     A
C642   C1339   1.391   .     S
C643   C1337   1.420   .     S
C644   C645    1.414   .     A
C644   C1336   1.420   1_554 S
C645   H664    1.077   .     S
C645   C646    1.383   .     A
C646   H647    1.085   .     S
C646   C1335   1.391   1_554 S
H649   O210    0.991   1_565 S
H650   O675    0.991   .     S
H652   C1333   1.109   1_554 S
H656   O679    0.991   .     S
H658   C473    1.086   1_655 S
H660   C168    1.086   1_565 S
O665   Zn691   1.942   .     S
O665   Zn692   1.930   .     S
O665   Zn693   1.926   .     S
O665   Zn690   1.961   .     S
O666   Zn691   1.927   .     S
O667   Zn693   1.939   .     S
O668   Zn692   1.932   .     S
O669   Zn690   1.921   .     S
O670   S1380   1.504   .     S
O671   S1380   1.503   .     S
O672   S687    1.682   .     S
O673   S688    1.503   .     D
O674   S688    1.502   .     D
O675   S688    1.682   .     S
O676   Zn690   1.928   .     S
O677   S689    1.503   .     D
O678   S689    1.504   .     D
O679   S689    1.682   .     S
O680   Zn693   1.931   .     S
O681   Zn691   1.923   .     S
O682   Zn692   1.935   .     S
O683   Zn693   1.930   .     S
O684   Zn690   1.920   .     S
O685   Zn691   1.937   .     S
O686   Zn692   1.929   .     S
S687   O1363   1.504   1_554 S
S687   O1364   1.503   1_554 S
C694   C704    1.436   .     S
C694   O758    1.268   .     A
C694   O760    1.268   .     A
C695   H725    1.077   .     S
C695   C720    1.410   .     A
C695   C696    1.401   .     A
C696   C715    1.525   .     S
C696   C5      1.421   1_556 S
C697   O761    1.278   .     A
C697   C703    1.454   .     S
C697   O759    1.282   .     A
C698   C700    1.426   .     A
C698   C699    1.421   .     A
C699   C702    1.402   .     A
C699   C721    1.422   .     A
C700   C701    1.419   .     A
C700   S764    1.783   .     S
C701   S765    1.787   .     S
C701   C713    1.409   .     A
C702   H738    1.079   .     S
C702   C713    1.385   .     A
C703   C781    1.335   .     S
C703   H811    1.088   .     S
C704   C857    1.335   1_455 S
C704   H889    1.086   1_455 S
C705   C714    1.397   .     A
C705   C712    1.426   .     A
C705   S766    1.780   .     S
C706   C709    1.451   .     S
C706   C938    1.331   .     S
C706   H967    1.088   .     S
C707   C708    1.435   .     S
C707   C1168   1.331   1_545 S
C707   H1199   1.086   1_545 S
C708   O753    1.277   .     A
C708   O762    1.277   .     A
C709   O763    1.267   .     A
C709   O757    1.268   .     A
C710   C713    1.458   .     S
C710   O745    1.272   .     A
C710   O743    1.274   .     A
C711   C712    1.486   .     S
C711   O746    1.294   .     A
C711   O744    1.277   .     A
C712   C716    1.405   .     A
C714   C719    1.396   .     A
C714   H739    1.083   .     S
C715   H731    1.101   .     S
C715   C717    1.529   .     S
C715   H732    1.112   .     S
C716   H740    1.076   .     S
C716   C718    1.410   .     A
C717   H728    1.110   .     S
C717   H36     1.109   1_556 S
C717   H807    1.110   .     S
C718   C719    1.413   .     A
C718   C720    1.429   .     A
C719   C30     1.391   1_556 S
C720   C28     1.420   1_556 S
C721   C722    1.414   .     A
C722   H741    1.077   .     S
C722   C723    1.383   .     A
C723   H724    1.085   .     S
H726   O980    0.991   .     S
H727   O752    0.991   .     S
H730   C871    1.110   1_455 S
H733   O756    0.991   .     S
H734   C857    1.088   1_455 S
H735   C781    1.086   .     S
H736   C1168   1.088   1_545 S
H737   C938    1.086   .     S
O742   Zn768   1.942   .     S
O742   Zn769   1.930   .     S
O742   Zn770   1.926   .     S
O742   Zn767   1.961   .     S
O743   Zn768   1.927   .     S
O744   Zn770   1.939   .     S
O745   Zn769   1.932   .     S
O746   Zn767   1.921   .     S
O747   S71     1.504   1_556 S
O748   S71     1.503   1_556 S
O749   S764    1.682   .     S
O749   H1188   0.991   1_545 S
O750   S765    1.503   .     D
O751   S765    1.502   .     D
O752   S765    1.682   .     S
O753   Zn767   1.928   .     S
O754   S766    1.503   .     D
O755   S766    1.504   .     D
O756   S766    1.682   .     S
O757   Zn770   1.931   .     S
O758   Zn768   1.923   .     S
O759   Zn769   1.935   .     S
O760   Zn770   1.930   .     S
O761   Zn767   1.920   .     S
O762   Zn768   1.937   .     S
O763   Zn769   1.929   .     S
C771   C781    1.436   .     S
C771   O835    1.268   .     A
C771   O837    1.268   .     A
C772   H802    1.077   .     S
C772   C797    1.410   .     A
C772   C773    1.401   .     A
C773   C792    1.525   .     S
C773   C82     1.421   1_556 S
C774   O838    1.278   .     A
C774   C780    1.454   .     S
C774   O836    1.282   .     A
C775   C777    1.426   .     A
C775   C776    1.421   .     A
C776   C779    1.402   .     A
C776   C798    1.422   .     A
C777   C778    1.419   .     A
C777   S841    1.783   .     S
C778   S842    1.787   .     S
C778   C790    1.409   .     A
C779   H815    1.079   .     S
C779   C790    1.385   .     A
C780   C858    1.335   .     S
C780   H888    1.088   .     S
C782   C791    1.397   .     A
C782   C789    1.426   .     A
C782   S843    1.780   .     S
C783   C786    1.451   .     S
C783   C1015   1.331   .     S
C783   H1044   1.088   .     S
C784   C785    1.435   .     S
C784   C1245   1.331   1_545 S
C784   H1276   1.086   1_545 S
C785   O830    1.277   .     A
C785   O839    1.277   .     A
C786   O840    1.267   .     A
C786   O834    1.268   .     A
C787   C790    1.458   .     S
C787   O822    1.272   .     A
C787   O820    1.274   .     A
C788   C789    1.486   .     S
C788   O823    1.294   .     A
C788   O821    1.277   .     A
C789   C793    1.405   .     A
C791   C796    1.396   .     A
C791   H816    1.083   .     S
C792   H808    1.101   .     S
C792   C794    1.529   .     S
C792   H809    1.112   .     S
C793   H817    1.076   .     S
C793   C795    1.410   .     A
C794   H805    1.110   .     S
C794   H113    1.109   1_556 S
C794   H884    1.110   .     S
C795   C796    1.413   .     A
C795   C797    1.429   .     A
C796   C107    1.391   1_556 S
C797   C105    1.420   1_556 S
C798   C799    1.414   .     A
C799   H818    1.077   .     S
C799   C800    1.383   .     A
C800   H801    1.085   .     S
H803   O1057   0.991   .     S
H804   O829    0.991   .     S
H810   O833    0.991   .     S
H812   C858    1.086   .     S
H813   C1245   1.088   1_545 S
H814   C1015   1.086   .     S
O819   Zn845   1.942   .     S
O819   Zn846   1.930   .     S
O819   Zn847   1.926   .     S
O819   Zn844   1.961   .     S
O820   Zn845   1.927   .     S
O821   Zn847   1.939   .     S
O822   Zn846   1.932   .     S
O823   Zn844   1.921   .     S
O824   S148    1.504   1_556 S
O825   S148    1.503   1_556 S
O826   S841    1.682   .     S
O826   H1265   0.991   1_545 S
O827   S842    1.503   .     D
O828   S842    1.502   .     D
O829   S842    1.682   .     S
O830   Zn844   1.928   .     S
O831   S843    1.503   .     D
O832   S843    1.504   .     D
O833   S843    1.682   .     S
O834   Zn847   1.931   .     S
O835   Zn845   1.923   .     S
O836   Zn846   1.935   .     S
O837   Zn847   1.930   .     S
O838   Zn844   1.920   .     S
O839   Zn845   1.937   .     S
O840   Zn846   1.929   .     S
C848   C858    1.436   .     S
C848   O912    1.268   .     A
C848   O914    1.268   .     A
C849   H879    1.077   .     S
C849   C874    1.410   .     A
C849   C850    1.401   .     A
C850   C869    1.525   .     S
C850   C159    1.421   1_556 S
C851   O915    1.278   .     A
C851   C857    1.454   .     S
C851   O913    1.282   .     A
C852   C854    1.426   .     A
C852   C853    1.421   .     A
C853   C856    1.402   .     A
C853   C875    1.422   .     A
C854   C855    1.419   .     A
C854   S918    1.783   .     S
C855   S919    1.787   .     S
C855   C867    1.409   .     A
C856   H892    1.079   .     S
C856   C867    1.385   .     A
C857   C704    1.335   1_655 S
C857   H734    1.088   1_655 S
C859   C868    1.397   .     A
C859   C866    1.426   .     A
C859   S920    1.780   .     S
C860   C863    1.451   .     S
C860   C1092   1.331   .     S
C860   H1121   1.088   .     S
C861   C862    1.435   .     S
C861   C1322   1.331   1_545 S
C861   H1353   1.086   1_545 S
C862   O907    1.277   .     A
C862   O916    1.277   .     A
C863   O917    1.267   .     A
C863   O911    1.268   .     A
C864   C867    1.458   .     S
C864   O899    1.272   .     A
C864   O897    1.274   .     A
C865   C866    1.486   .     S
C865   O900    1.294   .     A
C865   O898    1.277   .     A
C866   C870    1.405   .     A
C868   C873    1.396   .     A
C868   H893    1.083   .     S
C869   H885    1.101   .     S
C869   C871    1.529   .     S
C869   H886    1.112   .     S
C870   H894    1.076   .     S
C870   C872    1.410   .     A
C871   H882    1.110   .     S
C871   H190    1.109   1_556 S
C871   H730    1.110   1_655 S
C872   C873    1.413   .     A
C872   C874    1.429   .     A
C873   C184    1.391   1_556 S
C874   C182    1.420   1_556 S
C875   C876    1.414   .     A
C876   H895    1.077   .     S
C876   C877    1.383   .     A
C877   H878    1.085   .     S
H880   O1134   0.991   .     S
H881   O906    0.991   .     S
H887   O910    0.991   .     S
H889   C704    1.086   1_655 S
H890   C1322   1.088   1_545 S
H891   C1092   1.086   .     S
O896   Zn922   1.942   .     S
O896   Zn923   1.930   .     S
O896   Zn924   1.926   .     S
O896   Zn921   1.961   .     S
O897   Zn922   1.927   .     S
O898   Zn924   1.939   .     S
O899   Zn923   1.932   .     S
O900   Zn921   1.921   .     S
O901   S225    1.504   1_556 S
O902   S225    1.503   1_556 S
O903   S918    1.682   .     S
O903   H1342   0.991   1_545 S
O904   S919    1.503   .     D
O905   S919    1.502   .     D
O906   S919    1.682   .     S
O907   Zn921   1.928   .     S
O908   S920    1.503   .     D
O909   S920    1.504   .     D
O910   S920    1.682   .     S
O911   Zn924   1.931   .     S
O912   Zn922   1.923   .     S
O913   Zn923   1.935   .     S
O914   Zn924   1.930   .     S
O915   Zn921   1.920   .     S
O916   Zn922   1.937   .     S
O917   Zn923   1.929   .     S
C925   C935    1.436   .     S
C925   O989    1.268   .     A
C925   O991    1.268   .     A
C926   H956    1.077   .     S
C926   C951    1.410   .     A
C926   C927    1.401   .     A
C927   C946    1.525   .     S
C927   C236    1.421   1_556 S
C928   O992    1.278   .     A
C928   C934    1.454   .     S
C928   O990    1.282   .     A
C929   C931    1.426   .     A
C929   C930    1.421   .     A
C930   C933    1.402   .     A
C930   C952    1.422   .     A
C931   C932    1.419   .     A
C931   S995    1.783   .     S
C932   S996    1.787   .     S
C932   C944    1.409   .     A
C933   H969    1.079   .     S
C933   C944    1.385   .     A
C934   C1012   1.335   .     S
C934   H1042   1.088   .     S
C935   C1088   1.335   1_455 S
C935   H1120   1.086   1_455 S
C936   C945    1.397   .     A
C936   C943    1.426   .     A
C936   S997    1.780   .     S
C937   C940    1.451   .     S
C937   C1169   1.331   .     S
C937   H1198   1.088   .     S
C938   C939    1.435   .     S
C939   O984    1.277   .     A
C939   O993    1.277   .     A
C940   O994    1.267   .     A
C940   O988    1.268   .     A
C941   C944    1.458   .     S
C941   O976    1.272   .     A
C941   O974    1.274   .     A
C942   C943    1.486   .     S
C942   O977    1.294   .     A
C942   O975    1.277   .     A
C943   C947    1.405   .     A
C945   C950    1.396   .     A
C945   H970    1.083   .     S
C946   H962    1.101   .     S
C946   C948    1.529   .     S
C946   H963    1.112   .     S
C947   H971    1.076   .     S
C947   C949    1.410   .     A
C948   H959    1.110   .     S
C948   H267    1.109   1_556 S
C948   H1038   1.110   .     S
C949   C950    1.413   .     A
C949   C951    1.429   .     A
C950   C261    1.391   1_556 S
C951   C259    1.420   1_556 S
C952   C953    1.414   .     A
C953   H972    1.077   .     S
C953   C954    1.383   .     A
C954   H955    1.085   .     S
H957   O1211   0.991   .     S
H958   O983    0.991   .     S
H961   C1102   1.110   1_455 S
H964   O987    0.991   .     S
H965   C1088   1.088   1_455 S
H966   C1012   1.086   .     S
H968   C1169   1.086   .     S
O973   Zn999   1.942   .     S
O973   Zn1000  1.930   .     S
O973   Zn1001  1.926   .     S
O973   Zn998   1.961   .     S
O974   Zn999   1.927   .     S
O975   Zn1001  1.939   .     S
O976   Zn1000  1.932   .     S
O977   Zn998   1.921   .     S
O978   S302    1.504   1_556 S
O979   S302    1.503   1_556 S
O980   S995    1.682   .     S
O981   S996    1.503   .     D
O982   S996    1.502   .     D
O983   S996    1.682   .     S
O984   Zn998   1.928   .     S
O985   S997    1.503   .     D
O986   S997    1.504   .     D
O987   S997    1.682   .     S
O988   Zn1001  1.931   .     S
O989   Zn999   1.923   .     S
O990   Zn1000  1.935   .     S
O991   Zn1001  1.930   .     S
O992   Zn998   1.920   .     S
O993   Zn999   1.937   .     S
O994   Zn1000  1.929   .     S
C1002  C1012   1.436   .     S
C1002  O1066   1.268   .     A
C1002  O1068   1.268   .     A
C1003  H1033   1.077   .     S
C1003  C1028   1.410   .     A
C1003  C1004   1.401   .     A
C1004  C1023   1.525   .     S
C1004  C313    1.421   1_556 S
C1005  O1069   1.278   .     A
C1005  C1011   1.454   .     S
C1005  O1067   1.282   .     A
C1006  C1008   1.426   .     A
C1006  C1007   1.421   .     A
C1007  C1010   1.402   .     A
C1007  C1029   1.422   .     A
C1008  C1009   1.419   .     A
C1008  S1072   1.783   .     S
C1009  S1073   1.787   .     S
C1009  C1021   1.409   .     A
C1010  H1046   1.079   .     S
C1010  C1021   1.385   .     A
C1011  C1089   1.335   .     S
C1011  H1119   1.088   .     S
C1013  C1022   1.397   .     A
C1013  C1020   1.426   .     A
C1013  S1074   1.780   .     S
C1014  C1017   1.451   .     S
C1014  C1246   1.331   .     S
C1014  H1275   1.088   .     S
C1015  C1016   1.435   .     S
C1016  O1061   1.277   .     A
C1016  O1070   1.277   .     A
C1017  O1071   1.267   .     A
C1017  O1065   1.268   .     A
C1018  C1021   1.458   .     S
C1018  O1053   1.272   .     A
C1018  O1051   1.274   .     A
C1019  C1020   1.486   .     S
C1019  O1054   1.294   .     A
C1019  O1052   1.277   .     A
C1020  C1024   1.405   .     A
C1022  C1027   1.396   .     A
C1022  H1047   1.083   .     S
C1023  H1039   1.101   .     S
C1023  C1025   1.529   .     S
C1023  H1040   1.112   .     S
C1024  H1048   1.076   .     S
C1024  C1026   1.410   .     A
C1025  H1036   1.110   .     S
C1025  H344    1.109   1_556 S
C1025  H1115   1.110   .     S
C1026  C1027   1.413   .     A
C1026  C1028   1.429   .     A
C1027  C338    1.391   1_556 S
C1028  C336    1.420   1_556 S
C1029  C1030   1.414   .     A
C1030  H1049   1.077   .     S
C1030  C1031   1.383   .     A
C1031  H1032   1.085   .     S
H1034  O1288   0.991   .     S
H1035  O1060   0.991   .     S
H1041  O1064   0.991   .     S
H1043  C1089   1.086   .     S
H1045  C1246   1.086   .     S
O1050  Zn1076  1.942   .     S
O1050  Zn1077  1.930   .     S
O1050  Zn1078  1.926   .     S
O1050  Zn1075  1.961   .     S
O1051  Zn1076  1.927   .     S
O1052  Zn1078  1.939   .     S
O1053  Zn1077  1.932   .     S
O1054  Zn1075  1.921   .     S
O1055  S379    1.504   1_556 S
O1056  S379    1.503   1_556 S
O1057  S1072   1.682   .     S
O1058  S1073   1.503   .     D
O1059  S1073   1.502   .     D
O1060  S1073   1.682   .     S
O1061  Zn1075  1.928   .     S
O1062  S1074   1.503   .     D
O1063  S1074   1.504   .     D
O1064  S1074   1.682   .     S
O1065  Zn1078  1.931   .     S
O1066  Zn1076  1.923   .     S
O1067  Zn1077  1.935   .     S
O1068  Zn1078  1.930   .     S
O1069  Zn1075  1.920   .     S
O1070  Zn1076  1.937   .     S
O1071  Zn1077  1.929   .     S
C1079  C1089   1.436   .     S
C1079  O1143   1.268   .     A
C1079  O1145   1.268   .     A
C1080  H1110   1.077   .     S
C1080  C1105   1.410   .     A
C1080  C1081   1.401   .     A
C1081  C1100   1.525   .     S
C1081  C390    1.421   1_556 S
C1082  O1146   1.278   .     A
C1082  C1088   1.454   .     S
C1082  O1144   1.282   .     A
C1083  C1085   1.426   .     A
C1083  C1084   1.421   .     A
C1084  C1087   1.402   .     A
C1084  C1106   1.422   .     A
C1085  C1086   1.419   .     A
C1085  S1149   1.783   .     S
C1086  S1150   1.787   .     S
C1086  C1098   1.409   .     A
C1087  H1123   1.079   .     S
C1087  C1098   1.385   .     A
C1088  C935    1.335   1_655 S
C1088  H965    1.088   1_655 S
C1090  C1099   1.397   .     A
C1090  C1097   1.426   .     A
C1090  S1151   1.780   .     S
C1091  C1094   1.451   .     S
C1091  C1323   1.331   .     S
C1091  H1352   1.088   .     S
C1092  C1093   1.435   .     S
C1093  O1138   1.277   .     A
C1093  O1147   1.277   .     A
C1094  O1148   1.267   .     A
C1094  O1142   1.268   .     A
C1095  C1098   1.458   .     S
C1095  O1130   1.272   .     A
C1095  O1128   1.274   .     A
C1096  C1097   1.486   .     S
C1096  O1131   1.294   .     A
C1096  O1129   1.277   .     A
C1097  C1101   1.405   .     A
C1099  C1104   1.396   .     A
C1099  H1124   1.083   .     S
C1100  H1116   1.101   .     S
C1100  C1102   1.529   .     S
C1100  H1117   1.112   .     S
C1101  H1125   1.076   .     S
C1101  C1103   1.410   .     A
C1102  H1113   1.110   .     S
C1102  H421    1.109   1_556 S
C1102  H961    1.110   1_655 S
C1103  C1104   1.413   .     A
C1103  C1105   1.429   .     A
C1104  C415    1.391   1_556 S
C1105  C413    1.420   1_556 S
C1106  C1107   1.414   .     A
C1107  H1126   1.077   .     S
C1107  C1108   1.383   .     A
C1108  H1109   1.085   .     S
H1111  O1365   0.991   .     S
H1112  O1137   0.991   .     S
H1118  O1141   0.991   .     S
H1120  C935    1.086   1_655 S
H1122  C1323   1.086   .     S
O1127  Zn1153  1.942   .     S
O1127  Zn1154  1.930   .     S
O1127  Zn1155  1.926   .     S
O1127  Zn1152  1.961   .     S
O1128  Zn1153  1.927   .     S
O1129  Zn1155  1.939   .     S
O1130  Zn1154  1.932   .     S
O1131  Zn1152  1.921   .     S
O1132  S456    1.504   1_556 S
O1133  S456    1.503   1_556 S
O1134  S1149   1.682   .     S
O1135  S1150   1.503   .     D
O1136  S1150   1.502   .     D
O1137  S1150   1.682   .     S
O1138  Zn1152  1.928   .     S
O1139  S1151   1.503   .     D
O1140  S1151   1.504   .     D
O1141  S1151   1.682   .     S
O1142  Zn1155  1.931   .     S
O1143  Zn1153  1.923   .     S
O1144  Zn1154  1.935   .     S
O1145  Zn1155  1.930   .     S
O1146  Zn1152  1.920   .     S
O1147  Zn1153  1.937   .     S
O1148  Zn1154  1.929   .     S
C1156  C1166   1.436   .     S
C1156  O1220   1.268   .     A
C1156  O1222   1.268   .     A
C1157  H1187   1.077   .     S
C1157  C1182   1.410   .     A
C1157  C1158   1.401   .     A
C1158  C1177   1.525   .     S
C1158  C467    1.421   1_556 S
C1159  O1223   1.278   .     A
C1159  C1165   1.454   .     S
C1159  O1221   1.282   .     A
C1160  C1162   1.426   .     A
C1160  C1161   1.421   .     A
C1161  C1164   1.402   .     A
C1161  C1183   1.422   .     A
C1162  C1163   1.419   .     A
C1162  S1226   1.783   .     S
C1163  S1227   1.787   .     S
C1163  C1175   1.409   .     A
C1164  H1200   1.079   .     S
C1164  C1175   1.385   .     A
C1165  C1243   1.335   .     S
C1165  H1273   1.088   .     S
C1166  C1319   1.335   1_455 S
C1166  H1351   1.086   1_455 S
C1167  C1176   1.397   .     A
C1167  C1174   1.426   .     A
C1167  S1228   1.780   .     S
C1168  C1171   1.451   .     S
C1168  C707    1.331   1_565 S
C1168  H736    1.088   1_565 S
C1169  C1170   1.435   .     S
C1170  O1215   1.277   .     A
C1170  O1224   1.277   .     A
C1171  O1225   1.267   .     A
C1171  O1219   1.268   .     A
C1172  C1175   1.458   .     S
C1172  O1207   1.272   .     A
C1172  O1205   1.274   .     A
C1173  C1174   1.486   .     S
C1173  O1208   1.294   .     A
C1173  O1206   1.277   .     A
C1174  C1178   1.405   .     A
C1176  C1181   1.396   .     A
C1176  H1201   1.083   .     S
C1177  H1193   1.101   .     S
C1177  C1179   1.529   .     S
C1177  H1194   1.112   .     S
C1178  H1202   1.076   .     S
C1178  C1180   1.410   .     A
C1179  H1190   1.110   .     S
C1179  H498    1.109   1_556 S
C1179  H1269   1.110   .     S
C1180  C1181   1.413   .     A
C1180  C1182   1.429   .     A
C1181  C492    1.391   1_556 S
C1182  C490    1.420   1_556 S
C1183  C1184   1.414   .     A
C1184  H1203   1.077   .     S
C1184  C1185   1.383   .     A
C1185  H1186   1.085   .     S
H1188  O749    0.991   1_565 S
H1189  O1214   0.991   .     S
H1192  C1333   1.110   1_455 S
H1195  O1218   0.991   .     S
H1196  C1319   1.088   1_455 S
H1197  C1243   1.086   .     S
H1199  C707    1.086   1_565 S
O1204  Zn1230  1.942   .     S
O1204  Zn1231  1.930   .     S
O1204  Zn1232  1.926   .     S
O1204  Zn1229  1.961   .     S
O1205  Zn1230  1.927   .     S
O1206  Zn1232  1.939   .     S
O1207  Zn1231  1.932   .     S
O1208  Zn1229  1.921   .     S
O1209  S533    1.504   1_556 S
O1210  S533    1.503   1_556 S
O1211  S1226   1.682   .     S
O1212  S1227   1.503   .     D
O1213  S1227   1.502   .     D
O1214  S1227   1.682   .     S
O1215  Zn1229  1.928   .     S
O1216  S1228   1.503   .     D
O1217  S1228   1.504   .     D
O1218  S1228   1.682   .     S
O1219  Zn1232  1.931   .     S
O1220  Zn1230  1.923   .     S
O1221  Zn1231  1.935   .     S
O1222  Zn1232  1.930   .     S
O1223  Zn1229  1.920   .     S
O1224  Zn1230  1.937   .     S
O1225  Zn1231  1.929   .     S
C1233  C1243   1.436   .     S
C1233  O1297   1.268   .     A
C1233  O1299   1.268   .     A
C1234  H1264   1.077   .     S
C1234  C1259   1.410   .     A
C1234  C1235   1.401   .     A
C1235  C1254   1.525   .     S
C1235  C544    1.421   1_556 S
C1236  O1300   1.278   .     A
C1236  C1242   1.454   .     S
C1236  O1298   1.282   .     A
C1237  C1239   1.426   .     A
C1237  C1238   1.421   .     A
C1238  C1241   1.402   .     A
C1238  C1260   1.422   .     A
C1239  C1240   1.419   .     A
C1239  S1303   1.783   .     S
C1240  S1304   1.787   .     S
C1240  C1252   1.409   .     A
C1241  H1277   1.079   .     S
C1241  C1252   1.385   .     A
C1242  C1320   1.335   .     S
C1242  H1350   1.088   .     S
C1244  C1253   1.397   .     A
C1244  C1251   1.426   .     A
C1244  S1305   1.780   .     S
C1245  C1248   1.451   .     S
C1245  C784    1.331   1_565 S
C1245  H813    1.088   1_565 S
C1246  C1247   1.435   .     S
C1247  O1292   1.277   .     A
C1247  O1301   1.277   .     A
C1248  O1302   1.267   .     A
C1248  O1296   1.268   .     A
C1249  C1252   1.458   .     S
C1249  O1284   1.272   .     A
C1249  O1282   1.274   .     A
C1250  C1251   1.486   .     S
C1250  O1285   1.294   .     A
C1250  O1283   1.277   .     A
C1251  C1255   1.405   .     A
C1253  C1258   1.396   .     A
C1253  H1278   1.083   .     S
C1254  H1270   1.101   .     S
C1254  C1256   1.529   .     S
C1254  H1271   1.112   .     S
C1255  H1279   1.076   .     S
C1255  C1257   1.410   .     A
C1256  H1267   1.110   .     S
C1256  H575    1.109   1_556 S
C1256  H1346   1.110   .     S
C1257  C1258   1.413   .     A
C1257  C1259   1.429   .     A
C1258  C569    1.391   1_556 S
C1259  C567    1.420   1_556 S
C1260  C1261   1.414   .     A
C1261  H1280   1.077   .     S
C1261  C1262   1.383   .     A
C1262  H1263   1.085   .     S
H1265  O826    0.991   1_565 S
H1266  O1291   0.991   .     S
H1272  O1295   0.991   .     S
H1274  C1320   1.086   .     S
H1276  C784    1.086   1_565 S
O1281  Zn1307  1.942   .     S
O1281  Zn1308  1.930   .     S
O1281  Zn1309  1.926   .     S
O1281  Zn1306  1.961   .     S
O1282  Zn1307  1.927   .     S
O1283  Zn1309  1.939   .     S
O1284  Zn1308  1.932   .     S
O1285  Zn1306  1.921   .     S
O1286  S610    1.504   1_556 S
O1287  S610    1.503   1_556 S
O1288  S1303   1.682   .     S
O1289  S1304   1.503   .     D
O1290  S1304   1.502   .     D
O1291  S1304   1.682   .     S
O1292  Zn1306  1.928   .     S
O1293  S1305   1.503   .     D
O1294  S1305   1.504   .     D
O1295  S1305   1.682   .     S
O1296  Zn1309  1.931   .     S
O1297  Zn1307  1.923   .     S
O1298  Zn1308  1.935   .     S
O1299  Zn1309  1.930   .     S
O1300  Zn1306  1.920   .     S
O1301  Zn1307  1.937   .     S
O1302  Zn1308  1.929   .     S
C1310  C1320   1.436   .     S
C1310  O1374   1.268   .     A
C1310  O1376   1.268   .     A
C1311  H1341   1.077   .     S
C1311  C1336   1.410   .     A
C1311  C1312   1.401   .     A
C1312  C1331   1.525   .     S
C1312  C621    1.421   1_556 S
C1313  O1377   1.278   .     A
C1313  C1319   1.454   .     S
C1313  O1375   1.282   .     A
C1314  C1316   1.426   .     A
C1314  C1315   1.421   .     A
C1315  C1318   1.402   .     A
C1315  C1337   1.422   .     A
C1316  C1317   1.419   .     A
C1316  S1380   1.783   .     S
C1317  S1381   1.787   .     S
C1317  C1329   1.409   .     A
C1318  H1354   1.079   .     S
C1318  C1329   1.385   .     A
C1319  C1166   1.335   1_655 S
C1319  H1196   1.088   1_655 S
C1321  C1330   1.397   .     A
C1321  C1328   1.426   .     A
C1321  S1382   1.780   .     S
C1322  C1325   1.451   .     S
C1322  C861    1.331   1_565 S
C1322  H890    1.088   1_565 S
C1323  C1324   1.435   .     S
C1324  O1369   1.277   .     A
C1324  O1378   1.277   .     A
C1325  O1379   1.267   .     A
C1325  O1373   1.268   .     A
C1326  C1329   1.458   .     S
C1326  O1361   1.272   .     A
C1326  O1359   1.274   .     A
C1327  C1328   1.486   .     S
C1327  O1362   1.294   .     A
C1327  O1360   1.277   .     A
C1328  C1332   1.405   .     A
C1330  C1335   1.396   .     A
C1330  H1355   1.083   .     S
C1331  H1347   1.101   .     S
C1331  C1333   1.529   .     S
C1331  H1348   1.112   .     S
C1332  H1356   1.076   .     S
C1332  C1334   1.410   .     A
C1333  H1344   1.110   .     S
C1333  H652    1.109   1_556 S
C1333  H1192   1.110   1_655 S
C1334  C1335   1.413   .     A
C1334  C1336   1.429   .     A
C1335  C646    1.391   1_556 S
C1336  C644    1.420   1_556 S
C1337  C1338   1.414   .     A
C1338  H1357   1.077   .     S
C1338  C1339   1.383   .     A
C1339  H1340   1.085   .     S
H1342  O903    0.991   1_565 S
H1343  O1368   0.991   .     S
H1349  O1372   0.991   .     S
H1351  C1166   1.086   1_655 S
H1353  C861    1.086   1_565 S
O1358  Zn1384  1.942   .     S
O1358  Zn1385  1.930   .     S
O1358  Zn1386  1.926   .     S
O1358  Zn1383  1.961   .     S
O1359  Zn1384  1.927   .     S
O1360  Zn1386  1.939   .     S
O1361  Zn1385  1.932   .     S
O1362  Zn1383  1.921   .     S
O1363  S687    1.504   1_556 S
O1364  S687    1.503   1_556 S
O1365  S1380   1.682   .     S
O1366  S1381   1.503   .     D
O1367  S1381   1.502   .     D
O1368  S1381   1.682   .     S
O1369  Zn1383  1.928   .     S
O1370  S1382   1.503   .     D
O1371  S1382   1.504   .     D
O1372  S1382   1.682   .     S
O1373  Zn1386  1.931   .     S
O1374  Zn1384  1.923   .     S
O1375  Zn1385  1.935   .     S
O1376  Zn1386  1.930   .     S
O1377  Zn1383  1.920   .     S
O1378  Zn1384  1.937   .     S
O1379  Zn1385  1.929   .     S
