data_str_m1_o5_o17_pcu_sym.82
_audit_creation_date              2020-01-03
_audit_creation_method            'Materials Studio'
_symmetry_space_group_name_H-M    'P1'
_symmetry_Int_Tables_number       1
_symmetry_cell_setting            triclinic
loop_
_symmetry_equiv_pos_as_xyz
  x,y,z
_cell_length_a                    31.7634
_cell_length_b                    31.7635
_cell_length_c                    34.5441
_cell_angle_alpha                 90.0000
_cell_angle_beta                  89.9999
_cell_angle_gamma                 89.9813
loop_
_atom_site_label
_atom_site_type_symbol
_atom_site_fract_x
_atom_site_fract_y
_atom_site_fract_z
_atom_site_U_iso_or_equiv
_atom_site_adp_type
_atom_site_occupancy
C1     C     0.25003   0.49999   0.35607   0.00000  Uiso   1.00
C2     C     0.33001   0.41999   0.75000   0.00000  Uiso   1.00
C3     C     0.00103   0.32721   0.02029   0.00000  Uiso   1.00
C4     C     0.17288   0.49735   0.97967   0.00000  Uiso   1.00
C5     C     0.32712   0.00264   0.02033   0.00000  Uiso   1.00
C6     C     0.00260   0.32713   0.97967   0.00000  Uiso   1.00
C7     C     0.49741   0.17287   0.02033   0.00000  Uiso   1.00
C8     C     0.13146   0.21915   0.44889   0.00000  Uiso   1.00
C9     C     0.36852   0.28080   0.55109   0.00000  Uiso   1.00
C10    C     0.28088   0.36853   0.44889   0.00000  Uiso   1.00
C11    C     0.21914   0.13147   0.55110   0.00000  Uiso   1.00
C12    C     0.37371   0.28921   0.44903   0.00000  Uiso   1.00
C13    C     0.41998   0.16998   0.25000   0.00000  Uiso   1.00
C14    C     0.12627   0.21076   0.55101   0.00000  Uiso   1.00
C15    C     0.21070   0.12626   0.44903   0.00000  Uiso   1.00
C16    C     0.28932   0.37374   0.55097   0.00000  Uiso   1.00
C17    C     0.37627   0.46073   0.94904   0.00000  Uiso   1.00
C18    C     0.12373   0.03926   0.05096   0.00000  Uiso   1.00
C19    C     0.03936   0.12376   0.94902   0.00000  Uiso   1.00
C20    C     0.46064   0.37624   0.05096   0.00000  Uiso   1.00
C21    C     0.11852   0.03082   0.94889   0.00000  Uiso   1.00
C22    C     0.38148   0.46917   0.05111   0.00000  Uiso   1.00
C23    C     0.46910   0.38146   0.94888   0.00000  Uiso   1.00
C24    C     0.08002   0.33002   0.75000   0.00000  Uiso   1.00
C25    C     0.03093   0.11855   0.05111   0.00000  Uiso   1.00
C26    C     0.33001   0.41999   0.25000   0.00000  Uiso   1.00
C27    C     0.16999   0.08001   0.75000   0.00000  Uiso   1.00
C28    C     0.08002   0.33002   0.25000   0.00000  Uiso   1.00
C29    C     0.41998   0.16998   0.75000   0.00000  Uiso   1.00
C30    C     0.16998   0.41998   0.75000   0.00000  Uiso   1.00
C31    C     0.33002   0.08002   0.25000   0.00000  Uiso   1.00
C32    C     0.41999   0.33001   0.75000   0.00000  Uiso   1.00
C33    C     0.24997   0.00001   0.64393   0.00000  Uiso   1.00
C34    C     0.08001   0.16999   0.25000   0.00000  Uiso   1.00
C35    C     0.33002   0.08002   0.75000   0.00000  Uiso   1.00
C36    C     0.16998   0.41998   0.25000   0.00000  Uiso   1.00
C37    C     0.08001   0.16999   0.75000   0.00000  Uiso   1.00
C38    C     0.41999   0.33001   0.25000   0.00000  Uiso   1.00
C39    C     0.13833   0.38833   0.25000   0.00000  Uiso   1.00
C40    C     0.36167   0.11167   0.75000   0.00000  Uiso   1.00
C41    C     0.11166   0.13833   0.25000   0.00000  Uiso   1.00
C42    C     0.38833   0.36166   0.75000   0.00000  Uiso   1.00
C43    C     0.36167   0.11167   0.25000   0.00000  Uiso   1.00
C44    C     0.00001   0.24997   0.35607   0.00000  Uiso   1.00
C45    C     0.13833   0.38833   0.75000   0.00000  Uiso   1.00
C46    C     0.38833   0.36166   0.25000   0.00000  Uiso   1.00
C47    C     0.11166   0.13833   0.75000   0.00000  Uiso   1.00
C48    C     0.13833   0.11166   0.75000   0.00000  Uiso   1.00
C49    C     0.36166   0.38833   0.25000   0.00000  Uiso   1.00
C50    C     0.11167   0.36167   0.75000   0.00000  Uiso   1.00
C51    C     0.38833   0.13833   0.25000   0.00000  Uiso   1.00
C52    C     0.36166   0.38833   0.75000   0.00000  Uiso   1.00
C53    C     0.13833   0.11166   0.25000   0.00000  Uiso   1.00
C54    C     0.38833   0.13833   0.75000   0.00000  Uiso   1.00
C55    C     0.49999   0.25003   0.64393   0.00000  Uiso   1.00
C56    C     0.11167   0.36167   0.25000   0.00000  Uiso   1.00
C57    C     0.46201   0.24748   0.41879   0.00000  Uiso   1.00
C58    C     0.03799   0.25251   0.58121   0.00000  Uiso   1.00
C59    C     0.25249   0.03799   0.41879   0.00000  Uiso   1.00
C60    C     0.24752   0.46201   0.58121   0.00000  Uiso   1.00
C61    C     0.03805   0.25297   0.41880   0.00000  Uiso   1.00
C62    C     0.46195   0.24701   0.58120   0.00000  Uiso   1.00
C63    C     0.24704   0.46194   0.41880   0.00000  Uiso   1.00
C64    C     0.25297   0.03806   0.58120   0.00000  Uiso   1.00
C65    C     0.21194   0.49703   0.91880   0.00000  Uiso   1.00
C66    C     0.49997   0.25001   0.85607   0.00000  Uiso   1.00
C67    C     0.28806   0.00296   0.08120   0.00000  Uiso   1.00
C68    C     0.00295   0.28806   0.91880   0.00000  Uiso   1.00
C69    C     0.49706   0.21194   0.08120   0.00000  Uiso   1.00
C70    C     0.28799   0.00250   0.91879   0.00000  Uiso   1.00
C71    C     0.21201   0.49750   0.08121   0.00000  Uiso   1.00
C72    C     0.49753   0.21201   0.91879   0.00000  Uiso   1.00
C73    C     0.00247   0.28799   0.08121   0.00000  Uiso   1.00
C74    C     0.00004   0.25013   0.39852   0.00000  Uiso   1.00
C75    C     0.49996   0.24986   0.60147   0.00000  Uiso   1.00
C76    C     0.24986   0.49996   0.39852   0.00000  Uiso   1.00
C77    C     0.00003   0.24999   0.14393   0.00000  Uiso   1.00
C78    C     0.25015   0.00003   0.60148   0.00000  Uiso   1.00
C79    C     0.24996   0.49986   0.89852   0.00000  Uiso   1.00
C80    C     0.25004   0.00014   0.10147   0.00000  Uiso   1.00
C81    C     0.00014   0.25004   0.89853   0.00000  Uiso   1.00
C82    C     0.49986   0.24996   0.10147   0.00000  Uiso   1.00
C83    C     0.03861   0.25202   0.45931   0.00000  Uiso   1.00
C84    C     0.46140   0.24795   0.54069   0.00000  Uiso   1.00
C85    C     0.24799   0.46139   0.45931   0.00000  Uiso   1.00
C86    C     0.25202   0.03860   0.54069   0.00000  Uiso   1.00
C87    C     0.46134   0.24900   0.45928   0.00000  Uiso   1.00
C88    C     0.24999   0.00003   0.85607   0.00000  Uiso   1.00
C89    C     0.03866   0.25098   0.54072   0.00000  Uiso   1.00
C90    C     0.25097   0.03866   0.45928   0.00000  Uiso   1.00
C91    C     0.24904   0.46134   0.54072   0.00000  Uiso   1.00
C92    C     0.28866   0.00097   0.95928   0.00000  Uiso   1.00
C93    C     0.21134   0.49902   0.04072   0.00000  Uiso   1.00
C94    C     0.49905   0.21134   0.95928   0.00000  Uiso   1.00
C95    C     0.00095   0.28866   0.04072   0.00000  Uiso   1.00
C96    C     0.21139   0.49797   0.95931   0.00000  Uiso   1.00
C97    C     0.28861   0.00202   0.04069   0.00000  Uiso   1.00
C98    C     0.00200   0.28861   0.95931   0.00000  Uiso   1.00
C99    C     0.25001   0.49997   0.14393   0.00000  Uiso   1.00
C100   C     0.49801   0.21139   0.04069   0.00000  Uiso   1.00
C101   C     0.49999   0.25018   0.47967   0.00000  Uiso   1.00
C102   C     0.00001   0.24979   0.52033   0.00000  Uiso   1.00
C103   C     0.24981   0.00001   0.47967   0.00000  Uiso   1.00
C104   C     0.25021   0.49999   0.52033   0.00000  Uiso   1.00
C105   C     0.25001   0.49980   0.97967   0.00000  Uiso   1.00
C106   C     0.24999   0.00019   0.02033   0.00000  Uiso   1.00
C107   C     0.00020   0.24999   0.97967   0.00000  Uiso   1.00
C108   C     0.49981   0.25001   0.02033   0.00000  Uiso   1.00
C109   C     0.07713   0.25264   0.47967   0.00000  Uiso   1.00
C110   C     0.16999   0.08001   0.25000   0.00000  Uiso   1.00
C111   C     0.42288   0.24732   0.52033   0.00000  Uiso   1.00
C112   C     0.24739   0.42287   0.47967   0.00000  Uiso   1.00
C113   C     0.25264   0.07712   0.52033   0.00000  Uiso   1.00
C114   C     0.42279   0.24887   0.47971   0.00000  Uiso   1.00
C115   C     0.07721   0.25109   0.52029   0.00000  Uiso   1.00
C116   C     0.25107   0.07721   0.47970   0.00000  Uiso   1.00
C117   C     0.24895   0.42279   0.52029   0.00000  Uiso   1.00
C118   C     0.32721   0.00108   0.97971   0.00000  Uiso   1.00
C119   C     0.17279   0.49891   0.02029   0.00000  Uiso   1.00
C120   C     0.49897   0.17279   0.97970   0.00000  Uiso   1.00
H121   H     0.43292   0.24411   0.40277   0.00000  Uiso   1.00
H122   H     0.31730   0.00519   0.09718   0.00000  Uiso   1.00
H123   H     0.00515   0.31730   0.90282   0.00000  Uiso   1.00
H124   H     0.49485   0.18269   0.09718   0.00000  Uiso   1.00
H125   H     0.31708   0.00585   0.90278   0.00000  Uiso   1.00
H126   H     0.18292   0.49415   0.09722   0.00000  Uiso   1.00
H127   H     0.49419   0.18292   0.90277   0.00000  Uiso   1.00
H128   H     0.00580   0.31709   0.09722   0.00000  Uiso   1.00
H129   H     0.14957   0.22354   0.42174   0.00000  Uiso   1.00
H130   H     0.10718   0.19457   0.44306   0.00000  Uiso   1.00
H131   H     0.15388   0.20782   0.47117   0.00000  Uiso   1.00
H132   H     0.06707   0.25590   0.59722   0.00000  Uiso   1.00
H133   H     0.39276   0.30548   0.55669   0.00000  Uiso   1.00
H134   H     0.35062   0.27645   0.57838   0.00000  Uiso   1.00
H135   H     0.34590   0.29197   0.52892   0.00000  Uiso   1.00
H136   H     0.30556   0.39279   0.44330   0.00000  Uiso   1.00
H137   H     0.27654   0.35066   0.42160   0.00000  Uiso   1.00
H138   H     0.29207   0.34591   0.47104   0.00000  Uiso   1.00
H139   H     0.22349   0.14938   0.57837   0.00000  Uiso   1.00
H140   H     0.19448   0.10722   0.55672   0.00000  Uiso   1.00
H141   H     0.20795   0.15407   0.52892   0.00000  Uiso   1.00
H142   H     0.39176   0.29918   0.42310   0.00000  Uiso   1.00
H143   H     0.25584   0.06708   0.40277   0.00000  Uiso   1.00
H144   H     0.37844   0.31280   0.47246   0.00000  Uiso   1.00
H145   H     0.33989   0.28960   0.44112   0.00000  Uiso   1.00
H146   H     0.12138   0.18711   0.52765   0.00000  Uiso   1.00
H147   H     0.10835   0.20090   0.57704   0.00000  Uiso   1.00
H148   H     0.16014   0.21033   0.55876   0.00000  Uiso   1.00
H149   H     0.20073   0.10819   0.42311   0.00000  Uiso   1.00
H150   H     0.21029   0.16008   0.44110   0.00000  Uiso   1.00
H151   H     0.18712   0.12153   0.47247   0.00000  Uiso   1.00
H152   H     0.28972   0.33993   0.55895   0.00000  Uiso   1.00
H153   H     0.29931   0.39185   0.57685   0.00000  Uiso   1.00
H154   H     0.24417   0.43292   0.59722   0.00000  Uiso   1.00
H155   H     0.31288   0.37841   0.52751   0.00000  Uiso   1.00
H156   H     0.41006   0.46037   0.94097   0.00000  Uiso   1.00
H157   H     0.35810   0.45068   0.92321   0.00000  Uiso   1.00
H158   H     0.37171   0.43719   0.97254   0.00000  Uiso   1.00
H159   H     0.14188   0.04930   0.07680   0.00000  Uiso   1.00
H160   H     0.08993   0.03963   0.05901   0.00000  Uiso   1.00
H161   H     0.12832   0.06281   0.02747   0.00000  Uiso   1.00
H162   H     0.06291   0.12839   0.97250   0.00000  Uiso   1.00
H163   H     0.04936   0.14191   0.92317   0.00000  Uiso   1.00
H164   H     0.03975   0.08996   0.94100   0.00000  Uiso   1.00
H165   H     0.06730   0.25521   0.40282   0.00000  Uiso   1.00
H166   H     0.45057   0.35800   0.07674   0.00000  Uiso   1.00
H167   H     0.43713   0.37173   0.02743   0.00000  Uiso   1.00
H168   H     0.46027   0.41001   0.05909   0.00000  Uiso   1.00
H169   H     0.10072   0.02649   0.92156   0.00000  Uiso   1.00
H170   H     0.14275   0.05554   0.94339   0.00000  Uiso   1.00
H171   H     0.09582   0.04195   0.97101   0.00000  Uiso   1.00
H172   H     0.35724   0.44445   0.05660   0.00000  Uiso   1.00
H173   H     0.39926   0.47350   0.07846   0.00000  Uiso   1.00
H174   H     0.40420   0.45805   0.02901   0.00000  Uiso   1.00
H175   H     0.44437   0.35722   0.94343   0.00000  Uiso   1.00
H176   H     0.43270   0.24477   0.59718   0.00000  Uiso   1.00
H177   H     0.47342   0.39920   0.92151   0.00000  Uiso   1.00
H178   H     0.45798   0.40421   0.97096   0.00000  Uiso   1.00
H179   H     0.02659   0.10069   0.07842   0.00000  Uiso   1.00
H180   H     0.05560   0.14281   0.05668   0.00000  Uiso   1.00
H181   H     0.04211   0.09591   0.02897   0.00000  Uiso   1.00
H182   H     0.24482   0.43270   0.40282   0.00000  Uiso   1.00
H183   H     0.25519   0.06730   0.59718   0.00000  Uiso   1.00
H184   H     0.18270   0.49481   0.90282   0.00000  Uiso   1.00
O185   O     0.25000  -0.00000   0.25000   0.00000  Uiso   1.00
O186   O     0.25000   0.46538   0.66251   0.00000  Uiso   1.00
O187   O     0.46538   0.25000   0.33749   0.00000  Uiso   1.00
O188   O     0.03461   0.25000   0.66251   0.00000  Uiso   1.00
O189   O     0.00000   0.21538   0.83749   0.00000  Uiso   1.00
O190   O     0.00000   0.28461   0.16251   0.00000  Uiso   1.00
O191   O     0.28461  -0.00000   0.83749   0.00000  Uiso   1.00
O192   O     0.21538  -0.00000   0.16251   0.00000  Uiso   1.00
O193   O     0.00000   0.28461   0.83749   0.00000  Uiso   1.00
O194   O     0.00000   0.21538   0.16251   0.00000  Uiso   1.00
O195   O     0.21538  -0.00000   0.83749   0.00000  Uiso   1.00
O196   O     0.25000  -0.00000   0.75000   0.00000  Uiso   1.00
O197   O     0.28461  -0.00000   0.16251   0.00000  Uiso   1.00
O198   O     0.20126   0.08332   0.27298   0.00000  Uiso   1.00
O199   O     0.29873   0.41668   0.72702   0.00000  Uiso   1.00
O200   O     0.41668   0.20126   0.27298   0.00000  Uiso   1.00
O201   O     0.08332   0.29873   0.72702   0.00000  Uiso   1.00
O202   O     0.29873   0.41668   0.27298   0.00000  Uiso   1.00
O203   O     0.20126   0.08332   0.72702   0.00000  Uiso   1.00
O204   O     0.08332   0.29873   0.27298   0.00000  Uiso   1.00
O205   O     0.41668   0.20126   0.72702   0.00000  Uiso   1.00
O206   O     0.20126   0.41668   0.72702   0.00000  Uiso   1.00
O207   O     0.00000   0.25000   0.25000   0.00000  Uiso   1.00
O208   O     0.29873   0.08332   0.27298   0.00000  Uiso   1.00
O209   O     0.41668   0.29873   0.72702   0.00000  Uiso   1.00
O210   O     0.08332   0.20126   0.27298   0.00000  Uiso   1.00
O211   O     0.29873   0.08332   0.72702   0.00000  Uiso   1.00
O212   O     0.20126   0.41668   0.27298   0.00000  Uiso   1.00
O213   O     0.08332   0.20126   0.72702   0.00000  Uiso   1.00
O214   O     0.41668   0.29873   0.27298   0.00000  Uiso   1.00
O215   O     0.45126   0.33332   0.77298   0.00000  Uiso   1.00
O216   O     0.04873   0.16668   0.22702   0.00000  Uiso   1.00
O217   O     0.16668   0.45126   0.77298   0.00000  Uiso   1.00
O218   O     0.00000   0.25000   0.75000   0.00000  Uiso   1.00
O219   O     0.33332   0.04873   0.22702   0.00000  Uiso   1.00
O220   O     0.04873   0.16668   0.77298   0.00000  Uiso   1.00
O221   O     0.45126   0.33332   0.22702   0.00000  Uiso   1.00
O222   O     0.33332   0.04873   0.77298   0.00000  Uiso   1.00
O223   O     0.16668   0.45126   0.22702   0.00000  Uiso   1.00
O224   O     0.45126   0.16668   0.22702   0.00000  Uiso   1.00
O225   O     0.04873   0.33332   0.77298   0.00000  Uiso   1.00
O226   O     0.16668   0.04873   0.22702   0.00000  Uiso   1.00
O227   O     0.33332   0.45126   0.77298   0.00000  Uiso   1.00
O228   O     0.04873   0.33332   0.22702   0.00000  Uiso   1.00
O229   O     0.25000   0.46538   0.33749   0.00000  Uiso   1.00
O230   O     0.45126   0.16668   0.77298   0.00000  Uiso   1.00
O231   O     0.33332   0.45126   0.22702   0.00000  Uiso   1.00
O232   O     0.16668   0.04873   0.77298   0.00000  Uiso   1.00
O233   O     0.11474   0.25852   0.46010   0.00000  Uiso   1.00
O234   O     0.38527   0.24144   0.53990   0.00000  Uiso   1.00
O235   O     0.24151   0.38526   0.46010   0.00000  Uiso   1.00
O236   O     0.25851   0.11474   0.53990   0.00000  Uiso   1.00
O237   O     0.38461   0.24785   0.46039   0.00000  Uiso   1.00
O238   O     0.11539   0.25212   0.53961   0.00000  Uiso   1.00
O239   O     0.25207   0.11539   0.46039   0.00000  Uiso   1.00
O240   O     0.25000   0.03461   0.66251   0.00000  Uiso   1.00
O241   O     0.24795   0.38461   0.53961   0.00000  Uiso   1.00
O242   O     0.36539   0.00210   0.96039   0.00000  Uiso   1.00
O243   O     0.13461   0.49790   0.03961   0.00000  Uiso   1.00
O244   O     0.49798   0.13461   0.96039   0.00000  Uiso   1.00
O245   O     0.00202   0.36539   0.03961   0.00000  Uiso   1.00
O246   O     0.13527   0.49146   0.96010   0.00000  Uiso   1.00
O247   O     0.36474   0.00853   0.03989   0.00000  Uiso   1.00
O248   O     0.00846   0.36474   0.96011   0.00000  Uiso   1.00
O249   O     0.49156   0.13526   0.03989   0.00000  Uiso   1.00
O250   O     0.03461   0.25000   0.33749   0.00000  Uiso   1.00
O251   O     0.46538   0.25000   0.66251   0.00000  Uiso   1.00
O252   O     0.25000   0.03461   0.33749   0.00000  Uiso   1.00
Zn253  Zn    0.20052  -0.00000   0.21730   0.00000  Uiso   1.00
Zn254  Zn    0.04947   0.25000   0.28270   0.00000  Uiso   1.00
Zn255  Zn    0.25000   0.45052   0.71730   0.00000  Uiso   1.00
Zn256  Zn    0.25000   0.04947   0.28270   0.00000  Uiso   1.00
Zn257  Zn    0.04947   0.25000   0.71730   0.00000  Uiso   1.00
Zn258  Zn    0.45052   0.25000   0.28270   0.00000  Uiso   1.00
Zn259  Zn    0.25000   0.04947   0.71730   0.00000  Uiso   1.00
Zn260  Zn    0.25000   0.45052   0.28270   0.00000  Uiso   1.00
Zn261  Zn    0.29947  -0.00000   0.78270   0.00000  Uiso   1.00
Zn262  Zn    0.00000   0.20052   0.21730   0.00000  Uiso   1.00
Zn263  Zn    0.00000   0.29947   0.78270   0.00000  Uiso   1.00
Zn264  Zn    0.29947  -0.00000   0.21730   0.00000  Uiso   1.00
Zn265  Zn    0.20052  -0.00000   0.78270   0.00000  Uiso   1.00
Zn266  Zn    0.00000   0.29947   0.21730   0.00000  Uiso   1.00
Zn267  Zn    0.00000   0.20052   0.78270   0.00000  Uiso   1.00
Zn268  Zn    0.45052   0.25000   0.71730   0.00000  Uiso   1.00
C269   C     0.75003   0.49999   0.35607   0.00000  Uiso   1.00
C270   C     0.83001   0.41999   0.75000   0.00000  Uiso   1.00
C271   C     0.50103   0.32721   0.02029   0.00000  Uiso   1.00
C272   C     0.67288   0.49735   0.97967   0.00000  Uiso   1.00
C273   C     0.82712   0.00264   0.02033   0.00000  Uiso   1.00
C274   C     0.50260   0.32713   0.97967   0.00000  Uiso   1.00
C275   C     0.99741   0.17287   0.02033   0.00000  Uiso   1.00
C276   C     0.63146   0.21915   0.44889   0.00000  Uiso   1.00
C277   C     0.86852   0.28080   0.55109   0.00000  Uiso   1.00
C278   C     0.78088   0.36853   0.44889   0.00000  Uiso   1.00
C279   C     0.71914   0.13147   0.55110   0.00000  Uiso   1.00
C280   C     0.87371   0.28921   0.44903   0.00000  Uiso   1.00
C281   C     0.91998   0.16998   0.25000   0.00000  Uiso   1.00
C282   C     0.62627   0.21076   0.55101   0.00000  Uiso   1.00
C283   C     0.71070   0.12626   0.44903   0.00000  Uiso   1.00
C284   C     0.78932   0.37374   0.55097   0.00000  Uiso   1.00
C285   C     0.87627   0.46073   0.94904   0.00000  Uiso   1.00
C286   C     0.62373   0.03926   0.05096   0.00000  Uiso   1.00
C287   C     0.53936   0.12376   0.94902   0.00000  Uiso   1.00
C288   C     0.96064   0.37624   0.05096   0.00000  Uiso   1.00
C289   C     0.61852   0.03082   0.94889   0.00000  Uiso   1.00
C290   C     0.88148   0.46917   0.05111   0.00000  Uiso   1.00
C291   C     0.96910   0.38146   0.94888   0.00000  Uiso   1.00
C292   C     0.58002   0.33002   0.75000   0.00000  Uiso   1.00
C293   C     0.53093   0.11855   0.05111   0.00000  Uiso   1.00
C294   C     0.83001   0.41999   0.25000   0.00000  Uiso   1.00
C295   C     0.66999   0.08001   0.75000   0.00000  Uiso   1.00
C296   C     0.58002   0.33002   0.25000   0.00000  Uiso   1.00
C297   C     0.91998   0.16998   0.75000   0.00000  Uiso   1.00
C298   C     0.66998   0.41998   0.75000   0.00000  Uiso   1.00
C299   C     0.83002   0.08002   0.25000   0.00000  Uiso   1.00
C300   C     0.91999   0.33001   0.75000   0.00000  Uiso   1.00
C301   C     0.74997   0.00001   0.64393   0.00000  Uiso   1.00
C302   C     0.58001   0.16999   0.25000   0.00000  Uiso   1.00
C303   C     0.83002   0.08002   0.75000   0.00000  Uiso   1.00
C304   C     0.66998   0.41998   0.25000   0.00000  Uiso   1.00
C305   C     0.58001   0.16999   0.75000   0.00000  Uiso   1.00
C306   C     0.91999   0.33001   0.25000   0.00000  Uiso   1.00
C307   C     0.63833   0.38833   0.25000   0.00000  Uiso   1.00
C308   C     0.86167   0.11167   0.75000   0.00000  Uiso   1.00
C309   C     0.61166   0.13833   0.25000   0.00000  Uiso   1.00
C310   C     0.88833   0.36166   0.75000   0.00000  Uiso   1.00
C311   C     0.86167   0.11167   0.25000   0.00000  Uiso   1.00
C312   C     0.50001   0.24997   0.35607   0.00000  Uiso   1.00
C313   C     0.63833   0.38833   0.75000   0.00000  Uiso   1.00
C314   C     0.88833   0.36166   0.25000   0.00000  Uiso   1.00
C315   C     0.61166   0.13833   0.75000   0.00000  Uiso   1.00
C316   C     0.63833   0.11166   0.75000   0.00000  Uiso   1.00
C317   C     0.86166   0.38833   0.25000   0.00000  Uiso   1.00
C318   C     0.61167   0.36167   0.75000   0.00000  Uiso   1.00
C319   C     0.88833   0.13833   0.25000   0.00000  Uiso   1.00
C320   C     0.86166   0.38833   0.75000   0.00000  Uiso   1.00
C321   C     0.63833   0.11166   0.25000   0.00000  Uiso   1.00
C322   C     0.88833   0.13833   0.75000   0.00000  Uiso   1.00
C323   C     0.99999   0.25003   0.64393   0.00000  Uiso   1.00
C324   C     0.61167   0.36167   0.25000   0.00000  Uiso   1.00
C325   C     0.96201   0.24748   0.41879   0.00000  Uiso   1.00
C326   C     0.53799   0.25251   0.58121   0.00000  Uiso   1.00
C327   C     0.75249   0.03799   0.41879   0.00000  Uiso   1.00
C328   C     0.74752   0.46201   0.58121   0.00000  Uiso   1.00
C329   C     0.53805   0.25297   0.41880   0.00000  Uiso   1.00
C330   C     0.96195   0.24701   0.58120   0.00000  Uiso   1.00
C331   C     0.74704   0.46194   0.41880   0.00000  Uiso   1.00
C332   C     0.75297   0.03806   0.58120   0.00000  Uiso   1.00
C333   C     0.71194   0.49703   0.91880   0.00000  Uiso   1.00
C334   C     0.99997   0.25001   0.85607   0.00000  Uiso   1.00
C335   C     0.78806   0.00296   0.08120   0.00000  Uiso   1.00
C336   C     0.50295   0.28806   0.91880   0.00000  Uiso   1.00
C337   C     0.99706   0.21194   0.08120   0.00000  Uiso   1.00
C338   C     0.78799   0.00250   0.91879   0.00000  Uiso   1.00
C339   C     0.71201   0.49750   0.08121   0.00000  Uiso   1.00
C340   C     0.99753   0.21201   0.91879   0.00000  Uiso   1.00
C341   C     0.50247   0.28799   0.08121   0.00000  Uiso   1.00
C342   C     0.50004   0.25013   0.39852   0.00000  Uiso   1.00
C343   C     0.99996   0.24986   0.60147   0.00000  Uiso   1.00
C344   C     0.74986   0.49996   0.39852   0.00000  Uiso   1.00
C345   C     0.50003   0.24999   0.14393   0.00000  Uiso   1.00
C346   C     0.75015   0.00003   0.60148   0.00000  Uiso   1.00
C347   C     0.74996   0.49986   0.89852   0.00000  Uiso   1.00
C348   C     0.75004   0.00014   0.10147   0.00000  Uiso   1.00
C349   C     0.50014   0.25004   0.89853   0.00000  Uiso   1.00
C350   C     0.99986   0.24996   0.10147   0.00000  Uiso   1.00
C351   C     0.53861   0.25202   0.45931   0.00000  Uiso   1.00
C352   C     0.96140   0.24795   0.54069   0.00000  Uiso   1.00
C353   C     0.74799   0.46139   0.45931   0.00000  Uiso   1.00
C354   C     0.75202   0.03860   0.54069   0.00000  Uiso   1.00
C355   C     0.96134   0.24900   0.45928   0.00000  Uiso   1.00
C356   C     0.74999   0.00003   0.85607   0.00000  Uiso   1.00
C357   C     0.53866   0.25098   0.54072   0.00000  Uiso   1.00
C358   C     0.75097   0.03866   0.45928   0.00000  Uiso   1.00
C359   C     0.74904   0.46134   0.54072   0.00000  Uiso   1.00
C360   C     0.78866   0.00097   0.95928   0.00000  Uiso   1.00
C361   C     0.71134   0.49902   0.04072   0.00000  Uiso   1.00
C362   C     0.99905   0.21134   0.95928   0.00000  Uiso   1.00
C363   C     0.50095   0.28866   0.04072   0.00000  Uiso   1.00
C364   C     0.71139   0.49797   0.95931   0.00000  Uiso   1.00
C365   C     0.78861   0.00202   0.04069   0.00000  Uiso   1.00
C366   C     0.50200   0.28861   0.95931   0.00000  Uiso   1.00
C367   C     0.75001   0.49997   0.14393   0.00000  Uiso   1.00
C368   C     0.99801   0.21139   0.04069   0.00000  Uiso   1.00
C369   C     0.99999   0.25018   0.47967   0.00000  Uiso   1.00
C370   C     0.50001   0.24979   0.52033   0.00000  Uiso   1.00
C371   C     0.74981   0.00001   0.47967   0.00000  Uiso   1.00
C372   C     0.75021   0.49999   0.52033   0.00000  Uiso   1.00
C373   C     0.75001   0.49980   0.97967   0.00000  Uiso   1.00
C374   C     0.74999   0.00019   0.02033   0.00000  Uiso   1.00
C375   C     0.50020   0.24999   0.97967   0.00000  Uiso   1.00
C376   C     0.99981   0.25001   0.02033   0.00000  Uiso   1.00
C377   C     0.57713   0.25264   0.47967   0.00000  Uiso   1.00
C378   C     0.66999   0.08001   0.25000   0.00000  Uiso   1.00
C379   C     0.92288   0.24732   0.52033   0.00000  Uiso   1.00
C380   C     0.74739   0.42287   0.47967   0.00000  Uiso   1.00
C381   C     0.75264   0.07712   0.52033   0.00000  Uiso   1.00
C382   C     0.92279   0.24887   0.47971   0.00000  Uiso   1.00
C383   C     0.57721   0.25109   0.52029   0.00000  Uiso   1.00
C384   C     0.75107   0.07721   0.47970   0.00000  Uiso   1.00
C385   C     0.74895   0.42279   0.52029   0.00000  Uiso   1.00
C386   C     0.82721   0.00108   0.97971   0.00000  Uiso   1.00
C387   C     0.67279   0.49891   0.02029   0.00000  Uiso   1.00
C388   C     0.99897   0.17279   0.97970   0.00000  Uiso   1.00
H389   H     0.93292   0.24411   0.40277   0.00000  Uiso   1.00
H390   H     0.81730   0.00519   0.09718   0.00000  Uiso   1.00
H391   H     0.50515   0.31730   0.90282   0.00000  Uiso   1.00
H392   H     0.99485   0.18269   0.09718   0.00000  Uiso   1.00
H393   H     0.81708   0.00585   0.90278   0.00000  Uiso   1.00
H394   H     0.68292   0.49415   0.09722   0.00000  Uiso   1.00
H395   H     0.99419   0.18292   0.90277   0.00000  Uiso   1.00
H396   H     0.50580   0.31709   0.09722   0.00000  Uiso   1.00
H397   H     0.64957   0.22354   0.42174   0.00000  Uiso   1.00
H398   H     0.60718   0.19457   0.44306   0.00000  Uiso   1.00
H399   H     0.65388   0.20782   0.47117   0.00000  Uiso   1.00
H400   H     0.56707   0.25590   0.59722   0.00000  Uiso   1.00
H401   H     0.89276   0.30548   0.55669   0.00000  Uiso   1.00
H402   H     0.85062   0.27645   0.57838   0.00000  Uiso   1.00
H403   H     0.84590   0.29197   0.52892   0.00000  Uiso   1.00
H404   H     0.80556   0.39279   0.44330   0.00000  Uiso   1.00
H405   H     0.77654   0.35066   0.42160   0.00000  Uiso   1.00
H406   H     0.79207   0.34591   0.47104   0.00000  Uiso   1.00
H407   H     0.72349   0.14938   0.57837   0.00000  Uiso   1.00
H408   H     0.69448   0.10722   0.55672   0.00000  Uiso   1.00
H409   H     0.70795   0.15407   0.52892   0.00000  Uiso   1.00
H410   H     0.89176   0.29918   0.42310   0.00000  Uiso   1.00
H411   H     0.75584   0.06708   0.40277   0.00000  Uiso   1.00
H412   H     0.87844   0.31280   0.47246   0.00000  Uiso   1.00
H413   H     0.83989   0.28960   0.44112   0.00000  Uiso   1.00
H414   H     0.62138   0.18711   0.52765   0.00000  Uiso   1.00
H415   H     0.60835   0.20090   0.57704   0.00000  Uiso   1.00
H416   H     0.66014   0.21033   0.55876   0.00000  Uiso   1.00
H417   H     0.70073   0.10819   0.42311   0.00000  Uiso   1.00
H418   H     0.71029   0.16008   0.44110   0.00000  Uiso   1.00
H419   H     0.68712   0.12153   0.47247   0.00000  Uiso   1.00
H420   H     0.78972   0.33993   0.55895   0.00000  Uiso   1.00
H421   H     0.79931   0.39185   0.57685   0.00000  Uiso   1.00
H422   H     0.74417   0.43292   0.59722   0.00000  Uiso   1.00
H423   H     0.81288   0.37841   0.52751   0.00000  Uiso   1.00
H424   H     0.91006   0.46037   0.94097   0.00000  Uiso   1.00
H425   H     0.85810   0.45068   0.92321   0.00000  Uiso   1.00
H426   H     0.87171   0.43719   0.97254   0.00000  Uiso   1.00
H427   H     0.64188   0.04930   0.07680   0.00000  Uiso   1.00
H428   H     0.58993   0.03963   0.05901   0.00000  Uiso   1.00
H429   H     0.62832   0.06281   0.02747   0.00000  Uiso   1.00
H430   H     0.56291   0.12839   0.97250   0.00000  Uiso   1.00
H431   H     0.54936   0.14191   0.92317   0.00000  Uiso   1.00
H432   H     0.53975   0.08996   0.94100   0.00000  Uiso   1.00
H433   H     0.56730   0.25521   0.40282   0.00000  Uiso   1.00
H434   H     0.95057   0.35800   0.07674   0.00000  Uiso   1.00
H435   H     0.93713   0.37173   0.02743   0.00000  Uiso   1.00
H436   H     0.96027   0.41001   0.05909   0.00000  Uiso   1.00
H437   H     0.60072   0.02649   0.92156   0.00000  Uiso   1.00
H438   H     0.64275   0.05554   0.94339   0.00000  Uiso   1.00
H439   H     0.59582   0.04195   0.97101   0.00000  Uiso   1.00
H440   H     0.85724   0.44445   0.05660   0.00000  Uiso   1.00
H441   H     0.89926   0.47350   0.07846   0.00000  Uiso   1.00
H442   H     0.90420   0.45805   0.02901   0.00000  Uiso   1.00
H443   H     0.94437   0.35722   0.94343   0.00000  Uiso   1.00
H444   H     0.93270   0.24477   0.59718   0.00000  Uiso   1.00
H445   H     0.97342   0.39920   0.92151   0.00000  Uiso   1.00
H446   H     0.95798   0.40421   0.97096   0.00000  Uiso   1.00
H447   H     0.52659   0.10069   0.07842   0.00000  Uiso   1.00
H448   H     0.55560   0.14281   0.05668   0.00000  Uiso   1.00
H449   H     0.54211   0.09591   0.02897   0.00000  Uiso   1.00
H450   H     0.74482   0.43270   0.40282   0.00000  Uiso   1.00
H451   H     0.75519   0.06730   0.59718   0.00000  Uiso   1.00
H452   H     0.68270   0.49481   0.90282   0.00000  Uiso   1.00
O453   O     0.75000  -0.00000   0.25000   0.00000  Uiso   1.00
O454   O     0.75000   0.46538   0.66251   0.00000  Uiso   1.00
O455   O     0.96538   0.25000   0.33749   0.00000  Uiso   1.00
O456   O     0.53461   0.25000   0.66251   0.00000  Uiso   1.00
O457   O     0.50000   0.21538   0.83749   0.00000  Uiso   1.00
O458   O     0.50000   0.28461   0.16251   0.00000  Uiso   1.00
O459   O     0.78461  -0.00000   0.83749   0.00000  Uiso   1.00
O460   O     0.71538  -0.00000   0.16251   0.00000  Uiso   1.00
O461   O     0.50000   0.28461   0.83749   0.00000  Uiso   1.00
O462   O     0.50000   0.21538   0.16251   0.00000  Uiso   1.00
O463   O     0.71538  -0.00000   0.83749   0.00000  Uiso   1.00
O464   O     0.75000  -0.00000   0.75000   0.00000  Uiso   1.00
O465   O     0.78461  -0.00000   0.16251   0.00000  Uiso   1.00
O466   O     0.70126   0.08332   0.27298   0.00000  Uiso   1.00
O467   O     0.79873   0.41668   0.72702   0.00000  Uiso   1.00
O468   O     0.91668   0.20126   0.27298   0.00000  Uiso   1.00
O469   O     0.58332   0.29873   0.72702   0.00000  Uiso   1.00
O470   O     0.79873   0.41668   0.27298   0.00000  Uiso   1.00
O471   O     0.70126   0.08332   0.72702   0.00000  Uiso   1.00
O472   O     0.58332   0.29873   0.27298   0.00000  Uiso   1.00
O473   O     0.91668   0.20126   0.72702   0.00000  Uiso   1.00
O474   O     0.70126   0.41668   0.72702   0.00000  Uiso   1.00
O475   O     0.50000   0.25000   0.25000   0.00000  Uiso   1.00
O476   O     0.79873   0.08332   0.27298   0.00000  Uiso   1.00
O477   O     0.91668   0.29873   0.72702   0.00000  Uiso   1.00
O478   O     0.58332   0.20126   0.27298   0.00000  Uiso   1.00
O479   O     0.79873   0.08332   0.72702   0.00000  Uiso   1.00
O480   O     0.70126   0.41668   0.27298   0.00000  Uiso   1.00
O481   O     0.58332   0.20126   0.72702   0.00000  Uiso   1.00
O482   O     0.91668   0.29873   0.27298   0.00000  Uiso   1.00
O483   O     0.95126   0.33332   0.77298   0.00000  Uiso   1.00
O484   O     0.54873   0.16668   0.22702   0.00000  Uiso   1.00
O485   O     0.66668   0.45126   0.77298   0.00000  Uiso   1.00
O486   O     0.50000   0.25000   0.75000   0.00000  Uiso   1.00
O487   O     0.83332   0.04873   0.22702   0.00000  Uiso   1.00
O488   O     0.54873   0.16668   0.77298   0.00000  Uiso   1.00
O489   O     0.95126   0.33332   0.22702   0.00000  Uiso   1.00
O490   O     0.83332   0.04873   0.77298   0.00000  Uiso   1.00
O491   O     0.66668   0.45126   0.22702   0.00000  Uiso   1.00
O492   O     0.95126   0.16668   0.22702   0.00000  Uiso   1.00
O493   O     0.54873   0.33332   0.77298   0.00000  Uiso   1.00
O494   O     0.66668   0.04873   0.22702   0.00000  Uiso   1.00
O495   O     0.83332   0.45126   0.77298   0.00000  Uiso   1.00
O496   O     0.54873   0.33332   0.22702   0.00000  Uiso   1.00
O497   O     0.75000   0.46538   0.33749   0.00000  Uiso   1.00
O498   O     0.95126   0.16668   0.77298   0.00000  Uiso   1.00
O499   O     0.83332   0.45126   0.22702   0.00000  Uiso   1.00
O500   O     0.66668   0.04873   0.77298   0.00000  Uiso   1.00
O501   O     0.61474   0.25852   0.46010   0.00000  Uiso   1.00
O502   O     0.88527   0.24144   0.53990   0.00000  Uiso   1.00
O503   O     0.74151   0.38526   0.46010   0.00000  Uiso   1.00
O504   O     0.75851   0.11474   0.53990   0.00000  Uiso   1.00
O505   O     0.88461   0.24785   0.46039   0.00000  Uiso   1.00
O506   O     0.61539   0.25212   0.53961   0.00000  Uiso   1.00
O507   O     0.75207   0.11539   0.46039   0.00000  Uiso   1.00
O508   O     0.75000   0.03461   0.66251   0.00000  Uiso   1.00
O509   O     0.74795   0.38461   0.53961   0.00000  Uiso   1.00
O510   O     0.86539   0.00210   0.96039   0.00000  Uiso   1.00
O511   O     0.63461   0.49790   0.03961   0.00000  Uiso   1.00
O512   O     0.99798   0.13461   0.96039   0.00000  Uiso   1.00
O513   O     0.50202   0.36539   0.03961   0.00000  Uiso   1.00
O514   O     0.63527   0.49146   0.96010   0.00000  Uiso   1.00
O515   O     0.86474   0.00853   0.03989   0.00000  Uiso   1.00
O516   O     0.50846   0.36474   0.96011   0.00000  Uiso   1.00
O517   O     0.99156   0.13526   0.03989   0.00000  Uiso   1.00
O518   O     0.53461   0.25000   0.33749   0.00000  Uiso   1.00
O519   O     0.96538   0.25000   0.66251   0.00000  Uiso   1.00
O520   O     0.75000   0.03461   0.33749   0.00000  Uiso   1.00
Zn521  Zn    0.70052  -0.00000   0.21730   0.00000  Uiso   1.00
Zn522  Zn    0.54947   0.25000   0.28270   0.00000  Uiso   1.00
Zn523  Zn    0.75000   0.45052   0.71730   0.00000  Uiso   1.00
Zn524  Zn    0.75000   0.04947   0.28270   0.00000  Uiso   1.00
Zn525  Zn    0.54947   0.25000   0.71730   0.00000  Uiso   1.00
Zn526  Zn    0.95052   0.25000   0.28270   0.00000  Uiso   1.00
Zn527  Zn    0.75000   0.04947   0.71730   0.00000  Uiso   1.00
Zn528  Zn    0.75000   0.45052   0.28270   0.00000  Uiso   1.00
Zn529  Zn    0.79947  -0.00000   0.78270   0.00000  Uiso   1.00
Zn530  Zn    0.50000   0.20052   0.21730   0.00000  Uiso   1.00
Zn531  Zn    0.50000   0.29947   0.78270   0.00000  Uiso   1.00
Zn532  Zn    0.79947  -0.00000   0.21730   0.00000  Uiso   1.00
Zn533  Zn    0.70052  -0.00000   0.78270   0.00000  Uiso   1.00
Zn534  Zn    0.50000   0.29947   0.21730   0.00000  Uiso   1.00
Zn535  Zn    0.50000   0.20052   0.78270   0.00000  Uiso   1.00
Zn536  Zn    0.95052   0.25000   0.71730   0.00000  Uiso   1.00
C537   C     0.25003   0.99999   0.35607   0.00000  Uiso   1.00
C538   C     0.33001   0.91999   0.75000   0.00000  Uiso   1.00
C539   C     0.00103   0.82721   0.02029   0.00000  Uiso   1.00
C540   C     0.17288   0.99735   0.97967   0.00000  Uiso   1.00
C541   C     0.32712   0.50264   0.02033   0.00000  Uiso   1.00
C542   C     0.00260   0.82713   0.97967   0.00000  Uiso   1.00
C543   C     0.49741   0.67287   0.02033   0.00000  Uiso   1.00
C544   C     0.13146   0.71915   0.44889   0.00000  Uiso   1.00
C545   C     0.36852   0.78080   0.55109   0.00000  Uiso   1.00
C546   C     0.28088   0.86853   0.44889   0.00000  Uiso   1.00
C547   C     0.21914   0.63147   0.55110   0.00000  Uiso   1.00
C548   C     0.37371   0.78921   0.44903   0.00000  Uiso   1.00
C549   C     0.41998   0.66998   0.25000   0.00000  Uiso   1.00
C550   C     0.12627   0.71076   0.55101   0.00000  Uiso   1.00
C551   C     0.21070   0.62626   0.44903   0.00000  Uiso   1.00
C552   C     0.28932   0.87374   0.55097   0.00000  Uiso   1.00
C553   C     0.37627   0.96073   0.94904   0.00000  Uiso   1.00
C554   C     0.12373   0.53926   0.05096   0.00000  Uiso   1.00
C555   C     0.03936   0.62376   0.94902   0.00000  Uiso   1.00
C556   C     0.46064   0.87624   0.05096   0.00000  Uiso   1.00
C557   C     0.11852   0.53082   0.94889   0.00000  Uiso   1.00
C558   C     0.38148   0.96917   0.05111   0.00000  Uiso   1.00
C559   C     0.46910   0.88146   0.94888   0.00000  Uiso   1.00
C560   C     0.08002   0.83002   0.75000   0.00000  Uiso   1.00
C561   C     0.03093   0.61855   0.05111   0.00000  Uiso   1.00
C562   C     0.33001   0.91999   0.25000   0.00000  Uiso   1.00
C563   C     0.16999   0.58001   0.75000   0.00000  Uiso   1.00
C564   C     0.08002   0.83002   0.25000   0.00000  Uiso   1.00
C565   C     0.41998   0.66998   0.75000   0.00000  Uiso   1.00
C566   C     0.16998   0.91998   0.75000   0.00000  Uiso   1.00
C567   C     0.33002   0.58002   0.25000   0.00000  Uiso   1.00
C568   C     0.41999   0.83001   0.75000   0.00000  Uiso   1.00
C569   C     0.24997   0.50001   0.64393   0.00000  Uiso   1.00
C570   C     0.08001   0.66999   0.25000   0.00000  Uiso   1.00
C571   C     0.33002   0.58002   0.75000   0.00000  Uiso   1.00
C572   C     0.16998   0.91998   0.25000   0.00000  Uiso   1.00
C573   C     0.08001   0.66999   0.75000   0.00000  Uiso   1.00
C574   C     0.41999   0.83001   0.25000   0.00000  Uiso   1.00
C575   C     0.13833   0.88833   0.25000   0.00000  Uiso   1.00
C576   C     0.36167   0.61167   0.75000   0.00000  Uiso   1.00
C577   C     0.11166   0.63833   0.25000   0.00000  Uiso   1.00
C578   C     0.38833   0.86166   0.75000   0.00000  Uiso   1.00
C579   C     0.36167   0.61167   0.25000   0.00000  Uiso   1.00
C580   C     0.00001   0.74997   0.35607   0.00000  Uiso   1.00
C581   C     0.13833   0.88833   0.75000   0.00000  Uiso   1.00
C582   C     0.38833   0.86166   0.25000   0.00000  Uiso   1.00
C583   C     0.11166   0.63833   0.75000   0.00000  Uiso   1.00
C584   C     0.13833   0.61166   0.75000   0.00000  Uiso   1.00
C585   C     0.36166   0.88833   0.25000   0.00000  Uiso   1.00
C586   C     0.11167   0.86167   0.75000   0.00000  Uiso   1.00
C587   C     0.38833   0.63833   0.25000   0.00000  Uiso   1.00
C588   C     0.36166   0.88833   0.75000   0.00000  Uiso   1.00
C589   C     0.13833   0.61166   0.25000   0.00000  Uiso   1.00
C590   C     0.38833   0.63833   0.75000   0.00000  Uiso   1.00
C591   C     0.49999   0.75003   0.64393   0.00000  Uiso   1.00
C592   C     0.11167   0.86167   0.25000   0.00000  Uiso   1.00
C593   C     0.46201   0.74748   0.41879   0.00000  Uiso   1.00
C594   C     0.03799   0.75251   0.58121   0.00000  Uiso   1.00
C595   C     0.25249   0.53799   0.41879   0.00000  Uiso   1.00
C596   C     0.24752   0.96201   0.58121   0.00000  Uiso   1.00
C597   C     0.03805   0.75297   0.41880   0.00000  Uiso   1.00
C598   C     0.46195   0.74701   0.58120   0.00000  Uiso   1.00
C599   C     0.24704   0.96194   0.41880   0.00000  Uiso   1.00
C600   C     0.25297   0.53806   0.58120   0.00000  Uiso   1.00
C601   C     0.21194   0.99703   0.91880   0.00000  Uiso   1.00
C602   C     0.49997   0.75001   0.85607   0.00000  Uiso   1.00
C603   C     0.28806   0.50296   0.08120   0.00000  Uiso   1.00
C604   C     0.00295   0.78806   0.91880   0.00000  Uiso   1.00
C605   C     0.49706   0.71194   0.08120   0.00000  Uiso   1.00
C606   C     0.28799   0.50250   0.91879   0.00000  Uiso   1.00
C607   C     0.21201   0.99750   0.08121   0.00000  Uiso   1.00
C608   C     0.49753   0.71201   0.91879   0.00000  Uiso   1.00
C609   C     0.00247   0.78799   0.08121   0.00000  Uiso   1.00
C610   C     0.00004   0.75013   0.39852   0.00000  Uiso   1.00
C611   C     0.49996   0.74986   0.60147   0.00000  Uiso   1.00
C612   C     0.24986   0.99996   0.39852   0.00000  Uiso   1.00
C613   C     0.00003   0.74999   0.14393   0.00000  Uiso   1.00
C614   C     0.25015   0.50003   0.60148   0.00000  Uiso   1.00
C615   C     0.24996   0.99986   0.89852   0.00000  Uiso   1.00
C616   C     0.25004   0.50014   0.10147   0.00000  Uiso   1.00
C617   C     0.00014   0.75004   0.89853   0.00000  Uiso   1.00
C618   C     0.49986   0.74996   0.10147   0.00000  Uiso   1.00
C619   C     0.03861   0.75202   0.45931   0.00000  Uiso   1.00
C620   C     0.46140   0.74795   0.54069   0.00000  Uiso   1.00
C621   C     0.24799   0.96139   0.45931   0.00000  Uiso   1.00
C622   C     0.25202   0.53860   0.54069   0.00000  Uiso   1.00
C623   C     0.46134   0.74900   0.45928   0.00000  Uiso   1.00
C624   C     0.24999   0.50003   0.85607   0.00000  Uiso   1.00
C625   C     0.03866   0.75098   0.54072   0.00000  Uiso   1.00
C626   C     0.25097   0.53866   0.45928   0.00000  Uiso   1.00
C627   C     0.24904   0.96134   0.54072   0.00000  Uiso   1.00
C628   C     0.28866   0.50097   0.95928   0.00000  Uiso   1.00
C629   C     0.21134   0.99902   0.04072   0.00000  Uiso   1.00
C630   C     0.49905   0.71134   0.95928   0.00000  Uiso   1.00
C631   C     0.00095   0.78866   0.04072   0.00000  Uiso   1.00
C632   C     0.21139   0.99797   0.95931   0.00000  Uiso   1.00
C633   C     0.28861   0.50202   0.04069   0.00000  Uiso   1.00
C634   C     0.00200   0.78861   0.95931   0.00000  Uiso   1.00
C635   C     0.25001   0.99997   0.14393   0.00000  Uiso   1.00
C636   C     0.49801   0.71139   0.04069   0.00000  Uiso   1.00
C637   C     0.49999   0.75018   0.47967   0.00000  Uiso   1.00
C638   C     0.00001   0.74979   0.52033   0.00000  Uiso   1.00
C639   C     0.24981   0.50001   0.47967   0.00000  Uiso   1.00
C640   C     0.25021   0.99999   0.52033   0.00000  Uiso   1.00
C641   C     0.25001   0.99980   0.97967   0.00000  Uiso   1.00
C642   C     0.24999   0.50019   0.02033   0.00000  Uiso   1.00
C643   C     0.00020   0.74999   0.97967   0.00000  Uiso   1.00
C644   C     0.49981   0.75001   0.02033   0.00000  Uiso   1.00
C645   C     0.07713   0.75264   0.47967   0.00000  Uiso   1.00
C646   C     0.16999   0.58001   0.25000   0.00000  Uiso   1.00
C647   C     0.42288   0.74732   0.52033   0.00000  Uiso   1.00
C648   C     0.24739   0.92287   0.47967   0.00000  Uiso   1.00
C649   C     0.25264   0.57712   0.52033   0.00000  Uiso   1.00
C650   C     0.42279   0.74887   0.47971   0.00000  Uiso   1.00
C651   C     0.07721   0.75109   0.52029   0.00000  Uiso   1.00
C652   C     0.25107   0.57721   0.47970   0.00000  Uiso   1.00
C653   C     0.24895   0.92279   0.52029   0.00000  Uiso   1.00
C654   C     0.32721   0.50108   0.97971   0.00000  Uiso   1.00
C655   C     0.17279   0.99891   0.02029   0.00000  Uiso   1.00
C656   C     0.49897   0.67279   0.97970   0.00000  Uiso   1.00
H657   H     0.43292   0.74411   0.40277   0.00000  Uiso   1.00
H658   H     0.31730   0.50519   0.09718   0.00000  Uiso   1.00
H659   H     0.00515   0.81730   0.90282   0.00000  Uiso   1.00
H660   H     0.49485   0.68269   0.09718   0.00000  Uiso   1.00
H661   H     0.31708   0.50585   0.90278   0.00000  Uiso   1.00
H662   H     0.18292   0.99415   0.09722   0.00000  Uiso   1.00
H663   H     0.49419   0.68292   0.90277   0.00000  Uiso   1.00
H664   H     0.00580   0.81709   0.09722   0.00000  Uiso   1.00
H665   H     0.14957   0.72354   0.42174   0.00000  Uiso   1.00
H666   H     0.10718   0.69457   0.44306   0.00000  Uiso   1.00
H667   H     0.15388   0.70782   0.47117   0.00000  Uiso   1.00
H668   H     0.06707   0.75590   0.59722   0.00000  Uiso   1.00
H669   H     0.39276   0.80548   0.55669   0.00000  Uiso   1.00
H670   H     0.35062   0.77645   0.57838   0.00000  Uiso   1.00
H671   H     0.34590   0.79197   0.52892   0.00000  Uiso   1.00
H672   H     0.30556   0.89279   0.44330   0.00000  Uiso   1.00
H673   H     0.27654   0.85066   0.42160   0.00000  Uiso   1.00
H674   H     0.29207   0.84591   0.47104   0.00000  Uiso   1.00
H675   H     0.22349   0.64938   0.57837   0.00000  Uiso   1.00
H676   H     0.19448   0.60722   0.55672   0.00000  Uiso   1.00
H677   H     0.20795   0.65407   0.52892   0.00000  Uiso   1.00
H678   H     0.39176   0.79918   0.42310   0.00000  Uiso   1.00
H679   H     0.25584   0.56708   0.40277   0.00000  Uiso   1.00
H680   H     0.37844   0.81280   0.47246   0.00000  Uiso   1.00
H681   H     0.33989   0.78960   0.44112   0.00000  Uiso   1.00
H682   H     0.12138   0.68711   0.52765   0.00000  Uiso   1.00
H683   H     0.10835   0.70090   0.57704   0.00000  Uiso   1.00
H684   H     0.16014   0.71033   0.55876   0.00000  Uiso   1.00
H685   H     0.20073   0.60819   0.42311   0.00000  Uiso   1.00
H686   H     0.21029   0.66008   0.44110   0.00000  Uiso   1.00
H687   H     0.18712   0.62153   0.47247   0.00000  Uiso   1.00
H688   H     0.28972   0.83993   0.55895   0.00000  Uiso   1.00
H689   H     0.29931   0.89185   0.57685   0.00000  Uiso   1.00
H690   H     0.24417   0.93292   0.59722   0.00000  Uiso   1.00
H691   H     0.31288   0.87841   0.52751   0.00000  Uiso   1.00
H692   H     0.41006   0.96037   0.94097   0.00000  Uiso   1.00
H693   H     0.35810   0.95068   0.92321   0.00000  Uiso   1.00
H694   H     0.37171   0.93719   0.97254   0.00000  Uiso   1.00
H695   H     0.14188   0.54930   0.07680   0.00000  Uiso   1.00
H696   H     0.08993   0.53963   0.05901   0.00000  Uiso   1.00
H697   H     0.12832   0.56281   0.02747   0.00000  Uiso   1.00
H698   H     0.06291   0.62839   0.97250   0.00000  Uiso   1.00
H699   H     0.04936   0.64191   0.92317   0.00000  Uiso   1.00
H700   H     0.03975   0.58996   0.94100   0.00000  Uiso   1.00
H701   H     0.06730   0.75521   0.40282   0.00000  Uiso   1.00
H702   H     0.45057   0.85800   0.07674   0.00000  Uiso   1.00
H703   H     0.43713   0.87173   0.02743   0.00000  Uiso   1.00
H704   H     0.46027   0.91001   0.05909   0.00000  Uiso   1.00
H705   H     0.10072   0.52649   0.92156   0.00000  Uiso   1.00
H706   H     0.14275   0.55554   0.94339   0.00000  Uiso   1.00
H707   H     0.09582   0.54195   0.97101   0.00000  Uiso   1.00
H708   H     0.35724   0.94445   0.05660   0.00000  Uiso   1.00
H709   H     0.39926   0.97350   0.07846   0.00000  Uiso   1.00
H710   H     0.40420   0.95805   0.02901   0.00000  Uiso   1.00
H711   H     0.44437   0.85722   0.94343   0.00000  Uiso   1.00
H712   H     0.43270   0.74477   0.59718   0.00000  Uiso   1.00
H713   H     0.47342   0.89920   0.92151   0.00000  Uiso   1.00
H714   H     0.45798   0.90421   0.97096   0.00000  Uiso   1.00
H715   H     0.02659   0.60069   0.07842   0.00000  Uiso   1.00
H716   H     0.05560   0.64281   0.05668   0.00000  Uiso   1.00
H717   H     0.04211   0.59591   0.02897   0.00000  Uiso   1.00
H718   H     0.24482   0.93270   0.40282   0.00000  Uiso   1.00
H719   H     0.25519   0.56730   0.59718   0.00000  Uiso   1.00
H720   H     0.18270   0.99481   0.90282   0.00000  Uiso   1.00
O721   O     0.25000   0.50000   0.25000   0.00000  Uiso   1.00
O722   O     0.25000   0.96538   0.66251   0.00000  Uiso   1.00
O723   O     0.46538   0.75000   0.33749   0.00000  Uiso   1.00
O724   O     0.03461   0.75000   0.66251   0.00000  Uiso   1.00
O725   O     0.00000   0.71538   0.83749   0.00000  Uiso   1.00
O726   O     0.00000   0.78461   0.16251   0.00000  Uiso   1.00
O727   O     0.28461   0.50000   0.83749   0.00000  Uiso   1.00
O728   O     0.21538   0.50000   0.16251   0.00000  Uiso   1.00
O729   O     0.00000   0.78461   0.83749   0.00000  Uiso   1.00
O730   O     0.00000   0.71538   0.16251   0.00000  Uiso   1.00
O731   O     0.21538   0.50000   0.83749   0.00000  Uiso   1.00
O732   O     0.25000   0.50000   0.75000   0.00000  Uiso   1.00
O733   O     0.28461   0.50000   0.16251   0.00000  Uiso   1.00
O734   O     0.20126   0.58332   0.27298   0.00000  Uiso   1.00
O735   O     0.29873   0.91668   0.72702   0.00000  Uiso   1.00
O736   O     0.41668   0.70126   0.27298   0.00000  Uiso   1.00
O737   O     0.08332   0.79873   0.72702   0.00000  Uiso   1.00
O738   O     0.29873   0.91668   0.27298   0.00000  Uiso   1.00
O739   O     0.20126   0.58332   0.72702   0.00000  Uiso   1.00
O740   O     0.08332   0.79873   0.27298   0.00000  Uiso   1.00
O741   O     0.41668   0.70126   0.72702   0.00000  Uiso   1.00
O742   O     0.20126   0.91668   0.72702   0.00000  Uiso   1.00
O743   O     0.00000   0.75000   0.25000   0.00000  Uiso   1.00
O744   O     0.29873   0.58332   0.27298   0.00000  Uiso   1.00
O745   O     0.41668   0.79873   0.72702   0.00000  Uiso   1.00
O746   O     0.08332   0.70126   0.27298   0.00000  Uiso   1.00
O747   O     0.29873   0.58332   0.72702   0.00000  Uiso   1.00
O748   O     0.20126   0.91668   0.27298   0.00000  Uiso   1.00
O749   O     0.08332   0.70126   0.72702   0.00000  Uiso   1.00
O750   O     0.41668   0.79873   0.27298   0.00000  Uiso   1.00
O751   O     0.45126   0.83332   0.77298   0.00000  Uiso   1.00
O752   O     0.04873   0.66668   0.22702   0.00000  Uiso   1.00
O753   O     0.16668   0.95126   0.77298   0.00000  Uiso   1.00
O754   O     0.00000   0.75000   0.75000   0.00000  Uiso   1.00
O755   O     0.33332   0.54873   0.22702   0.00000  Uiso   1.00
O756   O     0.04873   0.66668   0.77298   0.00000  Uiso   1.00
O757   O     0.45126   0.83332   0.22702   0.00000  Uiso   1.00
O758   O     0.33332   0.54873   0.77298   0.00000  Uiso   1.00
O759   O     0.16668   0.95126   0.22702   0.00000  Uiso   1.00
O760   O     0.45126   0.66668   0.22702   0.00000  Uiso   1.00
O761   O     0.04873   0.83332   0.77298   0.00000  Uiso   1.00
O762   O     0.16668   0.54873   0.22702   0.00000  Uiso   1.00
O763   O     0.33332   0.95126   0.77298   0.00000  Uiso   1.00
O764   O     0.04873   0.83332   0.22702   0.00000  Uiso   1.00
O765   O     0.25000   0.96538   0.33749   0.00000  Uiso   1.00
O766   O     0.45126   0.66668   0.77298   0.00000  Uiso   1.00
O767   O     0.33332   0.95126   0.22702   0.00000  Uiso   1.00
O768   O     0.16668   0.54873   0.77298   0.00000  Uiso   1.00
O769   O     0.11474   0.75852   0.46010   0.00000  Uiso   1.00
O770   O     0.38527   0.74144   0.53990   0.00000  Uiso   1.00
O771   O     0.24151   0.88526   0.46010   0.00000  Uiso   1.00
O772   O     0.25851   0.61474   0.53990   0.00000  Uiso   1.00
O773   O     0.38461   0.74785   0.46039   0.00000  Uiso   1.00
O774   O     0.11539   0.75212   0.53961   0.00000  Uiso   1.00
O775   O     0.25207   0.61539   0.46039   0.00000  Uiso   1.00
O776   O     0.25000   0.53461   0.66251   0.00000  Uiso   1.00
O777   O     0.24795   0.88461   0.53961   0.00000  Uiso   1.00
O778   O     0.36539   0.50210   0.96039   0.00000  Uiso   1.00
O779   O     0.13461   0.99790   0.03961   0.00000  Uiso   1.00
O780   O     0.49798   0.63461   0.96039   0.00000  Uiso   1.00
O781   O     0.00202   0.86539   0.03961   0.00000  Uiso   1.00
O782   O     0.13527   0.99146   0.96010   0.00000  Uiso   1.00
O783   O     0.36474   0.50853   0.03989   0.00000  Uiso   1.00
O784   O     0.00846   0.86474   0.96011   0.00000  Uiso   1.00
O785   O     0.49156   0.63526   0.03989   0.00000  Uiso   1.00
O786   O     0.03461   0.75000   0.33749   0.00000  Uiso   1.00
O787   O     0.46538   0.75000   0.66251   0.00000  Uiso   1.00
O788   O     0.25000   0.53461   0.33749   0.00000  Uiso   1.00
Zn789  Zn    0.20052   0.50000   0.21730   0.00000  Uiso   1.00
Zn790  Zn    0.04947   0.75000   0.28270   0.00000  Uiso   1.00
Zn791  Zn    0.25000   0.95052   0.71730   0.00000  Uiso   1.00
Zn792  Zn    0.25000   0.54947   0.28270   0.00000  Uiso   1.00
Zn793  Zn    0.04947   0.75000   0.71730   0.00000  Uiso   1.00
Zn794  Zn    0.45052   0.75000   0.28270   0.00000  Uiso   1.00
Zn795  Zn    0.25000   0.54947   0.71730   0.00000  Uiso   1.00
Zn796  Zn    0.25000   0.95052   0.28270   0.00000  Uiso   1.00
Zn797  Zn    0.29947   0.50000   0.78270   0.00000  Uiso   1.00
Zn798  Zn    0.00000   0.70052   0.21730   0.00000  Uiso   1.00
Zn799  Zn    0.00000   0.79947   0.78270   0.00000  Uiso   1.00
Zn800  Zn    0.29947   0.50000   0.21730   0.00000  Uiso   1.00
Zn801  Zn    0.20052   0.50000   0.78270   0.00000  Uiso   1.00
Zn802  Zn    0.00000   0.79947   0.21730   0.00000  Uiso   1.00
Zn803  Zn    0.00000   0.70052   0.78270   0.00000  Uiso   1.00
Zn804  Zn    0.45052   0.75000   0.71730   0.00000  Uiso   1.00
C805   C     0.75003   0.99999   0.35607   0.00000  Uiso   1.00
C806   C     0.83001   0.91999   0.75000   0.00000  Uiso   1.00
C807   C     0.50103   0.82721   0.02029   0.00000  Uiso   1.00
C808   C     0.67288   0.99735   0.97967   0.00000  Uiso   1.00
C809   C     0.82712   0.50264   0.02033   0.00000  Uiso   1.00
C810   C     0.50260   0.82713   0.97967   0.00000  Uiso   1.00
C811   C     0.99741   0.67287   0.02033   0.00000  Uiso   1.00
C812   C     0.63146   0.71915   0.44889   0.00000  Uiso   1.00
C813   C     0.86852   0.78080   0.55109   0.00000  Uiso   1.00
C814   C     0.78088   0.86853   0.44889   0.00000  Uiso   1.00
C815   C     0.71914   0.63147   0.55110   0.00000  Uiso   1.00
C816   C     0.87371   0.78921   0.44903   0.00000  Uiso   1.00
C817   C     0.91998   0.66998   0.25000   0.00000  Uiso   1.00
C818   C     0.62627   0.71076   0.55101   0.00000  Uiso   1.00
C819   C     0.71070   0.62626   0.44903   0.00000  Uiso   1.00
C820   C     0.78932   0.87374   0.55097   0.00000  Uiso   1.00
C821   C     0.87627   0.96073   0.94904   0.00000  Uiso   1.00
C822   C     0.62373   0.53926   0.05096   0.00000  Uiso   1.00
C823   C     0.53936   0.62376   0.94902   0.00000  Uiso   1.00
C824   C     0.96064   0.87624   0.05096   0.00000  Uiso   1.00
C825   C     0.61852   0.53082   0.94889   0.00000  Uiso   1.00
C826   C     0.88148   0.96917   0.05111   0.00000  Uiso   1.00
C827   C     0.96910   0.88146   0.94888   0.00000  Uiso   1.00
C828   C     0.58002   0.83002   0.75000   0.00000  Uiso   1.00
C829   C     0.53093   0.61855   0.05111   0.00000  Uiso   1.00
C830   C     0.83001   0.91999   0.25000   0.00000  Uiso   1.00
C831   C     0.66999   0.58001   0.75000   0.00000  Uiso   1.00
C832   C     0.58002   0.83002   0.25000   0.00000  Uiso   1.00
C833   C     0.91998   0.66998   0.75000   0.00000  Uiso   1.00
C834   C     0.66998   0.91998   0.75000   0.00000  Uiso   1.00
C835   C     0.83002   0.58002   0.25000   0.00000  Uiso   1.00
C836   C     0.91999   0.83001   0.75000   0.00000  Uiso   1.00
C837   C     0.74997   0.50001   0.64393   0.00000  Uiso   1.00
C838   C     0.58001   0.66999   0.25000   0.00000  Uiso   1.00
C839   C     0.83002   0.58002   0.75000   0.00000  Uiso   1.00
C840   C     0.66998   0.91998   0.25000   0.00000  Uiso   1.00
C841   C     0.58001   0.66999   0.75000   0.00000  Uiso   1.00
C842   C     0.91999   0.83001   0.25000   0.00000  Uiso   1.00
C843   C     0.63833   0.88833   0.25000   0.00000  Uiso   1.00
C844   C     0.86167   0.61167   0.75000   0.00000  Uiso   1.00
C845   C     0.61166   0.63833   0.25000   0.00000  Uiso   1.00
C846   C     0.88833   0.86166   0.75000   0.00000  Uiso   1.00
C847   C     0.86167   0.61167   0.25000   0.00000  Uiso   1.00
C848   C     0.50001   0.74997   0.35607   0.00000  Uiso   1.00
C849   C     0.63833   0.88833   0.75000   0.00000  Uiso   1.00
C850   C     0.88833   0.86166   0.25000   0.00000  Uiso   1.00
C851   C     0.61166   0.63833   0.75000   0.00000  Uiso   1.00
C852   C     0.63833   0.61166   0.75000   0.00000  Uiso   1.00
C853   C     0.86166   0.88833   0.25000   0.00000  Uiso   1.00
C854   C     0.61167   0.86167   0.75000   0.00000  Uiso   1.00
C855   C     0.88833   0.63833   0.25000   0.00000  Uiso   1.00
C856   C     0.86166   0.88833   0.75000   0.00000  Uiso   1.00
C857   C     0.63833   0.61166   0.25000   0.00000  Uiso   1.00
C858   C     0.88833   0.63833   0.75000   0.00000  Uiso   1.00
C859   C     0.99999   0.75003   0.64393   0.00000  Uiso   1.00
C860   C     0.61167   0.86167   0.25000   0.00000  Uiso   1.00
C861   C     0.96201   0.74748   0.41879   0.00000  Uiso   1.00
C862   C     0.53799   0.75251   0.58121   0.00000  Uiso   1.00
C863   C     0.75249   0.53799   0.41879   0.00000  Uiso   1.00
C864   C     0.74752   0.96201   0.58121   0.00000  Uiso   1.00
C865   C     0.53805   0.75297   0.41880   0.00000  Uiso   1.00
C866   C     0.96195   0.74701   0.58120   0.00000  Uiso   1.00
C867   C     0.74704   0.96194   0.41880   0.00000  Uiso   1.00
C868   C     0.75297   0.53806   0.58120   0.00000  Uiso   1.00
C869   C     0.71194   0.99703   0.91880   0.00000  Uiso   1.00
C870   C     0.99997   0.75001   0.85607   0.00000  Uiso   1.00
C871   C     0.78806   0.50296   0.08120   0.00000  Uiso   1.00
C872   C     0.50295   0.78806   0.91880   0.00000  Uiso   1.00
C873   C     0.99706   0.71194   0.08120   0.00000  Uiso   1.00
C874   C     0.78799   0.50250   0.91879   0.00000  Uiso   1.00
C875   C     0.71201   0.99750   0.08121   0.00000  Uiso   1.00
C876   C     0.99753   0.71201   0.91879   0.00000  Uiso   1.00
C877   C     0.50247   0.78799   0.08121   0.00000  Uiso   1.00
C878   C     0.50004   0.75013   0.39852   0.00000  Uiso   1.00
C879   C     0.99996   0.74986   0.60147   0.00000  Uiso   1.00
C880   C     0.74986   0.99996   0.39852   0.00000  Uiso   1.00
C881   C     0.50003   0.74999   0.14393   0.00000  Uiso   1.00
C882   C     0.75015   0.50003   0.60148   0.00000  Uiso   1.00
C883   C     0.74996   0.99986   0.89852   0.00000  Uiso   1.00
C884   C     0.75004   0.50014   0.10147   0.00000  Uiso   1.00
C885   C     0.50014   0.75004   0.89853   0.00000  Uiso   1.00
C886   C     0.99986   0.74996   0.10147   0.00000  Uiso   1.00
C887   C     0.53861   0.75202   0.45931   0.00000  Uiso   1.00
C888   C     0.96140   0.74795   0.54069   0.00000  Uiso   1.00
C889   C     0.74799   0.96139   0.45931   0.00000  Uiso   1.00
C890   C     0.75202   0.53860   0.54069   0.00000  Uiso   1.00
C891   C     0.96134   0.74900   0.45928   0.00000  Uiso   1.00
C892   C     0.74999   0.50003   0.85607   0.00000  Uiso   1.00
C893   C     0.53866   0.75098   0.54072   0.00000  Uiso   1.00
C894   C     0.75097   0.53866   0.45928   0.00000  Uiso   1.00
C895   C     0.74904   0.96134   0.54072   0.00000  Uiso   1.00
C896   C     0.78866   0.50097   0.95928   0.00000  Uiso   1.00
C897   C     0.71134   0.99902   0.04072   0.00000  Uiso   1.00
C898   C     0.99905   0.71134   0.95928   0.00000  Uiso   1.00
C899   C     0.50095   0.78866   0.04072   0.00000  Uiso   1.00
C900   C     0.71139   0.99797   0.95931   0.00000  Uiso   1.00
C901   C     0.78861   0.50202   0.04069   0.00000  Uiso   1.00
C902   C     0.50200   0.78861   0.95931   0.00000  Uiso   1.00
C903   C     0.75001   0.99997   0.14393   0.00000  Uiso   1.00
C904   C     0.99801   0.71139   0.04069   0.00000  Uiso   1.00
C905   C     0.99999   0.75018   0.47967   0.00000  Uiso   1.00
C906   C     0.50001   0.74979   0.52033   0.00000  Uiso   1.00
C907   C     0.74981   0.50001   0.47967   0.00000  Uiso   1.00
C908   C     0.75021   0.99999   0.52033   0.00000  Uiso   1.00
C909   C     0.75001   0.99980   0.97967   0.00000  Uiso   1.00
C910   C     0.74999   0.50019   0.02033   0.00000  Uiso   1.00
C911   C     0.50020   0.74999   0.97967   0.00000  Uiso   1.00
C912   C     0.99981   0.75001   0.02033   0.00000  Uiso   1.00
C913   C     0.57713   0.75264   0.47967   0.00000  Uiso   1.00
C914   C     0.66999   0.58001   0.25000   0.00000  Uiso   1.00
C915   C     0.92288   0.74732   0.52033   0.00000  Uiso   1.00
C916   C     0.74739   0.92287   0.47967   0.00000  Uiso   1.00
C917   C     0.75264   0.57712   0.52033   0.00000  Uiso   1.00
C918   C     0.92279   0.74887   0.47971   0.00000  Uiso   1.00
C919   C     0.57721   0.75109   0.52029   0.00000  Uiso   1.00
C920   C     0.75107   0.57721   0.47970   0.00000  Uiso   1.00
C921   C     0.74895   0.92279   0.52029   0.00000  Uiso   1.00
C922   C     0.82721   0.50108   0.97971   0.00000  Uiso   1.00
C923   C     0.67279   0.99891   0.02029   0.00000  Uiso   1.00
C924   C     0.99897   0.67279   0.97970   0.00000  Uiso   1.00
H925   H     0.93292   0.74411   0.40277   0.00000  Uiso   1.00
H926   H     0.81730   0.50519   0.09718   0.00000  Uiso   1.00
H927   H     0.50515   0.81730   0.90282   0.00000  Uiso   1.00
H928   H     0.99485   0.68269   0.09718   0.00000  Uiso   1.00
H929   H     0.81708   0.50585   0.90278   0.00000  Uiso   1.00
H930   H     0.68292   0.99415   0.09722   0.00000  Uiso   1.00
H931   H     0.99419   0.68292   0.90277   0.00000  Uiso   1.00
H932   H     0.50580   0.81709   0.09722   0.00000  Uiso   1.00
H933   H     0.64957   0.72354   0.42174   0.00000  Uiso   1.00
H934   H     0.60718   0.69457   0.44306   0.00000  Uiso   1.00
H935   H     0.65388   0.70782   0.47117   0.00000  Uiso   1.00
H936   H     0.56707   0.75590   0.59722   0.00000  Uiso   1.00
H937   H     0.89276   0.80548   0.55669   0.00000  Uiso   1.00
H938   H     0.85062   0.77645   0.57838   0.00000  Uiso   1.00
H939   H     0.84590   0.79197   0.52892   0.00000  Uiso   1.00
H940   H     0.80556   0.89279   0.44330   0.00000  Uiso   1.00
H941   H     0.77654   0.85066   0.42160   0.00000  Uiso   1.00
H942   H     0.79207   0.84591   0.47104   0.00000  Uiso   1.00
H943   H     0.72349   0.64938   0.57837   0.00000  Uiso   1.00
H944   H     0.69448   0.60722   0.55672   0.00000  Uiso   1.00
H945   H     0.70795   0.65407   0.52892   0.00000  Uiso   1.00
H946   H     0.89176   0.79918   0.42310   0.00000  Uiso   1.00
H947   H     0.75584   0.56708   0.40277   0.00000  Uiso   1.00
H948   H     0.87844   0.81280   0.47246   0.00000  Uiso   1.00
H949   H     0.83989   0.78960   0.44112   0.00000  Uiso   1.00
H950   H     0.62138   0.68711   0.52765   0.00000  Uiso   1.00
H951   H     0.60835   0.70090   0.57704   0.00000  Uiso   1.00
H952   H     0.66014   0.71033   0.55876   0.00000  Uiso   1.00
H953   H     0.70073   0.60819   0.42311   0.00000  Uiso   1.00
H954   H     0.71029   0.66008   0.44110   0.00000  Uiso   1.00
H955   H     0.68712   0.62153   0.47247   0.00000  Uiso   1.00
H956   H     0.78972   0.83993   0.55895   0.00000  Uiso   1.00
H957   H     0.79931   0.89185   0.57685   0.00000  Uiso   1.00
H958   H     0.74417   0.93292   0.59722   0.00000  Uiso   1.00
H959   H     0.81288   0.87841   0.52751   0.00000  Uiso   1.00
H960   H     0.91006   0.96037   0.94097   0.00000  Uiso   1.00
H961   H     0.85810   0.95068   0.92321   0.00000  Uiso   1.00
H962   H     0.87171   0.93719   0.97254   0.00000  Uiso   1.00
H963   H     0.64188   0.54930   0.07680   0.00000  Uiso   1.00
H964   H     0.58993   0.53963   0.05901   0.00000  Uiso   1.00
H965   H     0.62832   0.56281   0.02747   0.00000  Uiso   1.00
H966   H     0.56291   0.62839   0.97250   0.00000  Uiso   1.00
H967   H     0.54936   0.64191   0.92317   0.00000  Uiso   1.00
H968   H     0.53975   0.58996   0.94100   0.00000  Uiso   1.00
H969   H     0.56730   0.75521   0.40282   0.00000  Uiso   1.00
H970   H     0.95057   0.85800   0.07674   0.00000  Uiso   1.00
H971   H     0.93713   0.87173   0.02743   0.00000  Uiso   1.00
H972   H     0.96027   0.91001   0.05909   0.00000  Uiso   1.00
H973   H     0.60072   0.52649   0.92156   0.00000  Uiso   1.00
H974   H     0.64275   0.55554   0.94339   0.00000  Uiso   1.00
H975   H     0.59582   0.54195   0.97101   0.00000  Uiso   1.00
H976   H     0.85724   0.94445   0.05660   0.00000  Uiso   1.00
H977   H     0.89926   0.97350   0.07846   0.00000  Uiso   1.00
H978   H     0.90420   0.95805   0.02901   0.00000  Uiso   1.00
H979   H     0.94437   0.85722   0.94343   0.00000  Uiso   1.00
H980   H     0.93270   0.74477   0.59718   0.00000  Uiso   1.00
H981   H     0.97342   0.89920   0.92151   0.00000  Uiso   1.00
H982   H     0.95798   0.90421   0.97096   0.00000  Uiso   1.00
H983   H     0.52659   0.60069   0.07842   0.00000  Uiso   1.00
H984   H     0.55560   0.64281   0.05668   0.00000  Uiso   1.00
H985   H     0.54211   0.59591   0.02897   0.00000  Uiso   1.00
H986   H     0.74482   0.93270   0.40282   0.00000  Uiso   1.00
H987   H     0.75519   0.56730   0.59718   0.00000  Uiso   1.00
H988   H     0.68270   0.99481   0.90282   0.00000  Uiso   1.00
O989   O     0.75000   0.50000   0.25000   0.00000  Uiso   1.00
O990   O     0.75000   0.96538   0.66251   0.00000  Uiso   1.00
O991   O     0.96538   0.75000   0.33749   0.00000  Uiso   1.00
O992   O     0.53461   0.75000   0.66251   0.00000  Uiso   1.00
O993   O     0.50000   0.71538   0.83749   0.00000  Uiso   1.00
O994   O     0.50000   0.78461   0.16251   0.00000  Uiso   1.00
O995   O     0.78461   0.50000   0.83749   0.00000  Uiso   1.00
O996   O     0.71538   0.50000   0.16251   0.00000  Uiso   1.00
O997   O     0.50000   0.78461   0.83749   0.00000  Uiso   1.00
O998   O     0.50000   0.71538   0.16251   0.00000  Uiso   1.00
O999   O     0.71538   0.50000   0.83749   0.00000  Uiso   1.00
O1000  O     0.75000   0.50000   0.75000   0.00000  Uiso   1.00
O1001  O     0.78461   0.50000   0.16251   0.00000  Uiso   1.00
O1002  O     0.70126   0.58332   0.27298   0.00000  Uiso   1.00
O1003  O     0.79873   0.91668   0.72702   0.00000  Uiso   1.00
O1004  O     0.91668   0.70126   0.27298   0.00000  Uiso   1.00
O1005  O     0.58332   0.79873   0.72702   0.00000  Uiso   1.00
O1006  O     0.79873   0.91668   0.27298   0.00000  Uiso   1.00
O1007  O     0.70126   0.58332   0.72702   0.00000  Uiso   1.00
O1008  O     0.58332   0.79873   0.27298   0.00000  Uiso   1.00
O1009  O     0.91668   0.70126   0.72702   0.00000  Uiso   1.00
O1010  O     0.70126   0.91668   0.72702   0.00000  Uiso   1.00
O1011  O     0.50000   0.75000   0.25000   0.00000  Uiso   1.00
O1012  O     0.79873   0.58332   0.27298   0.00000  Uiso   1.00
O1013  O     0.91668   0.79873   0.72702   0.00000  Uiso   1.00
O1014  O     0.58332   0.70126   0.27298   0.00000  Uiso   1.00
O1015  O     0.79873   0.58332   0.72702   0.00000  Uiso   1.00
O1016  O     0.70126   0.91668   0.27298   0.00000  Uiso   1.00
O1017  O     0.58332   0.70126   0.72702   0.00000  Uiso   1.00
O1018  O     0.91668   0.79873   0.27298   0.00000  Uiso   1.00
O1019  O     0.95126   0.83332   0.77298   0.00000  Uiso   1.00
O1020  O     0.54873   0.66668   0.22702   0.00000  Uiso   1.00
O1021  O     0.66668   0.95126   0.77298   0.00000  Uiso   1.00
O1022  O     0.50000   0.75000   0.75000   0.00000  Uiso   1.00
O1023  O     0.83332   0.54873   0.22702   0.00000  Uiso   1.00
O1024  O     0.54873   0.66668   0.77298   0.00000  Uiso   1.00
O1025  O     0.95126   0.83332   0.22702   0.00000  Uiso   1.00
O1026  O     0.83332   0.54873   0.77298   0.00000  Uiso   1.00
O1027  O     0.66668   0.95126   0.22702   0.00000  Uiso   1.00
O1028  O     0.95126   0.66668   0.22702   0.00000  Uiso   1.00
O1029  O     0.54873   0.83332   0.77298   0.00000  Uiso   1.00
O1030  O     0.66668   0.54873   0.22702   0.00000  Uiso   1.00
O1031  O     0.83332   0.95126   0.77298   0.00000  Uiso   1.00
O1032  O     0.54873   0.83332   0.22702   0.00000  Uiso   1.00
O1033  O     0.75000   0.96538   0.33749   0.00000  Uiso   1.00
O1034  O     0.95126   0.66668   0.77298   0.00000  Uiso   1.00
O1035  O     0.83332   0.95126   0.22702   0.00000  Uiso   1.00
O1036  O     0.66668   0.54873   0.77298   0.00000  Uiso   1.00
O1037  O     0.61474   0.75852   0.46010   0.00000  Uiso   1.00
O1038  O     0.88527   0.74144   0.53990   0.00000  Uiso   1.00
O1039  O     0.74151   0.88526   0.46010   0.00000  Uiso   1.00
O1040  O     0.75851   0.61474   0.53990   0.00000  Uiso   1.00
O1041  O     0.88461   0.74785   0.46039   0.00000  Uiso   1.00
O1042  O     0.61539   0.75212   0.53961   0.00000  Uiso   1.00
O1043  O     0.75207   0.61539   0.46039   0.00000  Uiso   1.00
O1044  O     0.75000   0.53461   0.66251   0.00000  Uiso   1.00
O1045  O     0.74795   0.88461   0.53961   0.00000  Uiso   1.00
O1046  O     0.86539   0.50210   0.96039   0.00000  Uiso   1.00
O1047  O     0.63461   0.99790   0.03961   0.00000  Uiso   1.00
O1048  O     0.99798   0.63461   0.96039   0.00000  Uiso   1.00
O1049  O     0.50202   0.86539   0.03961   0.00000  Uiso   1.00
O1050  O     0.63527   0.99146   0.96010   0.00000  Uiso   1.00
O1051  O     0.86474   0.50853   0.03989   0.00000  Uiso   1.00
O1052  O     0.50846   0.86474   0.96011   0.00000  Uiso   1.00
O1053  O     0.99156   0.63526   0.03989   0.00000  Uiso   1.00
O1054  O     0.53461   0.75000   0.33749   0.00000  Uiso   1.00
O1055  O     0.96538   0.75000   0.66251   0.00000  Uiso   1.00
O1056  O     0.75000   0.53461   0.33749   0.00000  Uiso   1.00
Zn1057 Zn    0.70052   0.50000   0.21730   0.00000  Uiso   1.00
Zn1058 Zn    0.54947   0.75000   0.28270   0.00000  Uiso   1.00
Zn1059 Zn    0.75000   0.95052   0.71730   0.00000  Uiso   1.00
Zn1060 Zn    0.75000   0.54947   0.28270   0.00000  Uiso   1.00
Zn1061 Zn    0.54947   0.75000   0.71730   0.00000  Uiso   1.00
Zn1062 Zn    0.95052   0.75000   0.28270   0.00000  Uiso   1.00
Zn1063 Zn    0.75000   0.54947   0.71730   0.00000  Uiso   1.00
Zn1064 Zn    0.75000   0.95052   0.28270   0.00000  Uiso   1.00
Zn1065 Zn    0.79947   0.50000   0.78270   0.00000  Uiso   1.00
Zn1066 Zn    0.50000   0.70052   0.21730   0.00000  Uiso   1.00
Zn1067 Zn    0.50000   0.79947   0.78270   0.00000  Uiso   1.00
Zn1068 Zn    0.79947   0.50000   0.21730   0.00000  Uiso   1.00
Zn1069 Zn    0.70052   0.50000   0.78270   0.00000  Uiso   1.00
Zn1070 Zn    0.50000   0.79947   0.21730   0.00000  Uiso   1.00
Zn1071 Zn    0.50000   0.70052   0.78270   0.00000  Uiso   1.00
Zn1072 Zn    0.95052   0.75000   0.71730   0.00000  Uiso   1.00
loop_
_geom_bond_atom_site_label_1
_geom_bond_atom_site_label_2
_geom_bond_distance
_geom_bond_site_symmetry_2
_ccdc_geom_bond_type
C1     C76     1.467   .     S
C1     O229    1.273   .     A
C1     O788    1.273   .     S
C2     O227    1.276   .     A
C2     O199    1.276   .     A
C2     C52     1.422   .     S
C3     O245    1.385   .     S
C3     C95     1.413   .     A
C3     C6      1.404   1_554 S
C4     C96     1.411   .     A
C4     O246    1.385   .     S
C4     C119    1.404   1_556 S
C5     O247    1.385   .     S
C5     C97     1.411   .     A
C5     C118    1.404   1_554 S
C6     O248    1.385   .     S
C6     C98     1.411   .     A
C6     C3      1.404   1_556 S
C7     O249    1.385   .     S
C7     C100    1.411   .     A
C7     C120    1.404   1_554 S
C8     H131    1.108   .     S
C8     H130    1.116   .     S
C8     H129    1.109   .     S
C8     O233    1.413   .     S
C9     O234    1.413   .     S
C9     H135    1.108   .     S
C9     H133    1.116   .     S
C9     H134    1.109   .     S
C10    O235    1.413   .     S
C10    H137    1.109   .     S
C10    H136    1.116   .     S
C10    H138    1.108   .     S
C11    H139    1.109   .     S
C11    H140    1.116   .     S
C11    H141    1.108   .     S
C11    O236    1.413   .     S
C12    H144    1.113   .     S
C12    H145    1.109   .     S
C12    O237    1.414   .     S
C12    H142    1.109   .     S
C13    O200    1.276   .     A
C13    C51     1.422   .     S
C13    O224    1.276   .     A
C14    H148    1.109   .     S
C14    O238    1.414   .     S
C14    H147    1.109   .     S
C14    H146    1.113   .     S
C15    O239    1.414   .     S
C15    H151    1.113   .     S
C15    H149    1.109   .     S
C15    H150    1.109   .     S
C16    O241    1.414   .     S
C16    H152    1.109   .     S
C16    H155    1.113   .     S
C16    H153    1.109   .     S
C17    H157    1.109   .     S
C17    H158    1.113   .     S
C17    H156    1.109   .     S
C17    O778    1.414   .     S
C18    H161    1.113   .     S
C18    H159    1.109   .     S
C18    H160    1.109   .     S
C18    O779    1.414   1_545 S
C19    H163    1.109   .     S
C19    H164    1.109   .     S
C19    H162    1.113   .     S
C19    O512    1.414   1_455 S
C20    H167    1.113   .     S
C20    H168    1.109   .     S
C20    H166    1.109   .     S
C20    O513    1.414   .     S
C21    H170    1.116   .     S
C21    H171    1.108   .     S
C21    H169    1.109   .     S
C21    O782    1.413   1_545 S
C22    H174    1.108   .     S
C22    H173    1.109   .     S
C22    H172    1.116   .     S
C22    O783    1.413   .     S
C23    H175    1.116   .     S
C23    H178    1.108   .     S
C23    H177    1.109   .     S
C23    O516    1.413   .     S
C24    C50     1.422   .     S
C24    O201    1.276   .     A
C24    O225    1.276   .     A
C25    H179    1.109   .     S
C25    H180    1.116   .     S
C25    H181    1.108   .     S
C25    O517    1.413   1_455 S
C26    O202    1.276   .     A
C26    C49     1.422   .     S
C26    O231    1.276   .     A
C27    C48     1.422   .     S
C27    O203    1.276   .     A
C27    O232    1.276   .     A
C28    O228    1.276   .     A
C28    C56     1.422   .     S
C28    O204    1.276   .     A
C29    O230    1.276   .     A
C29    C54     1.422   .     S
C29    O205    1.276   .     A
C30    C45     1.422   .     S
C30    O206    1.276   .     A
C30    O217    1.276   .     A
C31    C43     1.422   .     S
C31    O219    1.276   .     A
C31    O208    1.276   .     A
C32    O209    1.276   .     A
C32    C42     1.422   .     S
C32    O215    1.276   .     A
C33    C78     1.467   .     S
C33    O240    1.273   .     A
C33    O722    1.273   1_545 S
C34    O210    1.276   .     A
C34    C41     1.422   .     S
C34    O216    1.276   .     A
C35    O211    1.276   .     A
C35    O222    1.276   .     A
C35    C40     1.422   .     S
C36    O223    1.276   .     A
C36    O212    1.276   .     A
C36    C39     1.422   .     S
C37    O213    1.276   .     A
C37    C47     1.422   .     S
C37    O220    1.276   .     A
C38    O221    1.276   .     A
C38    O214    1.276   .     A
C38    C46     1.422   .     S
C39    C56     1.198   .     T
C40    C54     1.198   .     T
C41    C53     1.198   .     T
C42    C52     1.198   .     T
C43    C51     1.198   .     T
C44    C74     1.467   .     S
C44    O250    1.273   .     A
C44    O455    1.273   1_455 S
C45    C50     1.198   .     T
C46    C49     1.198   .     T
C47    C48     1.198   .     T
C53    C110    1.422   .     S
C55    C75     1.467   .     S
C55    O251    1.273   .     A
C55    O456    1.273   .     S
C57    H121    1.082   .     S
C57    C87     1.400   .     A
C57    C342    1.399   .     S
C58    H132    1.082   .     S
C58    C89     1.400   .     A
C58    C343    1.399   1_455 S
C59    H143    1.082   .     S
C59    C90     1.400   .     A
C59    C612    1.399   1_545 S
C60    H154    1.082   .     S
C60    C91     1.400   .     A
C60    C614    1.399   .     S
C61    C83     1.400   .     A
C61    C74     1.399   .     A
C61    H165    1.083   .     S
C62    C75     1.399   .     A
C62    C84     1.400   .     A
C62    H176    1.083   .     S
C63    H182    1.083   .     S
C63    C85     1.400   .     A
C63    C76     1.399   .     A
C64    H183    1.083   .     S
C64    C86     1.400   .     A
C64    C78     1.399   .     A
C65    C79     1.399   .     A
C65    H184    1.083   .     S
C65    C96     1.400   .     A
C66    C349    1.467   .     S
C66    O457    1.273   .     S
C66    O461    1.273   .     S
C67    C80     1.399   .     A
C67    H122    1.083   .     S
C67    C97     1.400   .     A
C68    H123    1.083   .     S
C68    C81     1.399   .     A
C68    C98     1.400   .     A
C69    C82     1.399   .     A
C69    H124    1.083   .     S
C69    C100    1.400   .     A
C70    H125    1.082   .     S
C70    C92     1.400   .     A
C70    C615    1.399   1_545 S
C71    H126    1.082   .     S
C71    C93     1.400   .     A
C71    C616    1.399   .     S
C72    H127    1.082   .     S
C72    C94     1.400   .     A
C72    C349    1.399   .     S
C73    C95     1.400   .     A
C73    H128    1.082   .     S
C73    C350    1.399   1_455 S
C74    C325    1.399   1_455 S
C75    C326    1.399   .     S
C76    C595    1.399   .     S
C77    O190    1.273   .     A
C77    O194    1.273   .     A
C77    C350    1.467   1_455 S
C78    C596    1.399   1_545 S
C79    C606    1.399   .     S
C79    C624    1.467   .     S
C80    C607    1.399   1_545 S
C80    C635    1.467   1_545 S
C81    C340    1.399   1_455 S
C81    C334    1.467   1_455 S
C82    C345    1.467   .     S
C82    C341    1.399   .     S
C83    C109    1.411   .     A
C83    C369    1.415   1_455 S
C84    C111    1.411   .     A
C84    C370    1.415   .     S
C85    C112    1.411   .     A
C85    C639    1.415   .     S
C86    C113    1.411   .     A
C86    C640    1.415   1_545 S
C87    C114    1.413   .     A
C87    C101    1.416   .     A
C88    O191    1.273   .     A
C88    O195    1.273   .     A
C88    C615    1.467   1_545 S
C89    C115    1.413   .     A
C89    C102    1.416   .     A
C90    C116    1.413   .     A
C90    C103    1.416   .     A
C91    C104    1.416   .     A
C91    C117    1.413   .     A
C92    C118    1.413   .     A
C92    C641    1.416   1_545 S
C93    C119    1.413   .     A
C93    C642    1.416   .     S
C94    C120    1.413   .     A
C94    C375    1.416   .     S
C95    C376    1.416   1_455 S
C96    C105    1.415   .     A
C97    C106    1.415   .     A
C98    C107    1.415   .     A
C99    C616    1.467   .     S
C99    O728    1.273   .     S
C99    O733    1.273   .     S
C100   C108    1.415   .     A
C101   C351    1.415   .     S
C101   C370    1.405   .     S
C102   C352    1.415   1_455 S
C102   C369    1.405   1_455 S
C103   C621    1.415   1_545 S
C103   C640    1.405   1_545 S
C104   C622    1.415   .     S
C104   C639    1.405   .     S
C105   C628    1.416   .     S
C105   C642    1.405   1_556 S
C106   C629    1.416   1_545 S
C106   C641    1.405   1_544 S
C107   C362    1.416   1_455 S
C107   C376    1.405   1_456 S
C108   C363    1.416   .     S
C108   C375    1.405   1_554 S
C109   C115    1.404   .     A
C109   O233    1.385   .     S
C110   O226    1.276   .     A
C110   O198    1.276   .     A
C111   O234    1.385   .     S
C111   C114    1.404   .     A
C112   C117    1.404   .     A
C112   O235    1.385   .     S
C113   C116    1.404   .     A
C113   O236    1.385   .     S
C114   O237    1.385   .     S
C115   O238    1.385   .     S
C116   O239    1.385   .     S
C117   O241    1.385   .     S
C118   O242    1.385   .     S
C118   C5      1.404   1_556 S
C119   O243    1.385   .     S
C119   C4      1.404   1_554 S
C120   O244    1.385   .     S
C120   C7      1.404   1_556 S
O185   Zn256   1.935   .     S
O185   Zn253   1.935   .     S
O185   Zn264   1.935   .     S
O185   Zn796   1.935   1_545 S
O186   Zn255   1.951   .     S
O186   C569    1.273   .     S
O187   Zn258   1.951   .     S
O187   C312    1.273   .     S
O188   Zn257   1.951   .     S
O188   C323    1.273   1_455 S
O189   Zn267   1.951   .     S
O189   C334    1.273   1_455 S
O190   Zn266   1.951   .     S
O191   Zn261   1.951   .     S
O192   Zn253   1.951   .     S
O192   C635    1.273   1_545 S
O193   Zn263   1.951   .     S
O193   C334    1.273   1_455 S
O194   Zn262   1.951   .     S
O195   Zn265   1.951   .     S
O196   Zn261   1.935   .     S
O196   Zn265   1.935   .     S
O196   Zn259   1.935   .     S
O196   Zn791   1.935   1_545 S
O197   Zn264   1.951   .     S
O197   C635    1.273   1_545 S
O198   Zn256   1.914   .     S
O199   Zn255   1.914   .     S
O200   Zn258   1.915   .     S
O201   Zn257   1.915   .     S
O202   Zn260   1.914   .     S
O203   Zn259   1.914   .     S
O204   Zn254   1.915   .     S
O205   Zn268   1.915   .     S
O206   Zn255   1.915   .     S
O207   Zn254   1.935   .     S
O207   Zn262   1.935   .     S
O207   Zn266   1.935   .     S
O207   Zn526   1.935   1_455 S
O208   Zn256   1.915   .     S
O209   Zn268   1.914   .     S
O210   Zn254   1.914   .     S
O211   Zn259   1.915   .     S
O212   Zn260   1.915   .     S
O213   Zn257   1.914   .     S
O214   Zn258   1.914   .     S
O215   Zn531   1.914   .     S
O216   Zn262   1.914   .     S
O217   Zn801   1.915   .     S
O218   Zn263   1.935   .     S
O218   Zn267   1.935   .     S
O218   Zn257   1.935   .     S
O218   Zn536   1.935   1_455 S
O219   Zn264   1.915   .     S
O220   Zn267   1.914   .     S
O221   Zn534   1.914   .     S
O222   Zn261   1.915   .     S
O223   Zn789   1.915   .     S
O224   Zn530   1.915   .     S
O225   Zn263   1.915   .     S
O226   Zn253   1.914   .     S
O227   Zn797   1.914   .     S
O228   Zn266   1.915   .     S
O229   Zn260   1.951   .     S
O230   Zn535   1.915   .     S
O231   Zn800   1.914   .     S
O232   Zn265   1.914   .     S
O240   Zn259   1.951   .     S
O242   C553    1.414   1_545 S
O243   C554    1.414   .     S
O244   C287    1.414   .     S
O245   C288    1.414   1_455 S
O246   C557    1.413   .     S
O247   C558    1.413   1_545 S
O248   C291    1.413   1_455 S
O249   C293    1.413   .     S
O250   Zn254   1.951   .     S
O251   Zn268   1.951   .     S
O252   Zn256   1.951   .     S
O252   C537    1.273   1_545 S
Zn253  O759    1.915   1_545 S
Zn255  O732    1.935   .     S
Zn258  O475    1.935   .     S
Zn260  O721    1.935   .     S
Zn261  O763    1.914   1_545 S
Zn262  O492    1.915   1_455 S
Zn263  O483    1.914   1_455 S
Zn264  O767    1.914   1_545 S
Zn265  O753    1.915   1_545 S
Zn266  O489    1.914   1_455 S
Zn267  O498    1.915   1_455 S
Zn268  O486    1.935   .     S
C269   C344    1.467   .     S
C269   O497    1.273   .     A
C269   O1056   1.273   .     S
C270   O495    1.276   .     A
C270   O467    1.276   .     A
C270   C320    1.422   .     S
C271   O513    1.385   .     S
C271   C363    1.413   .     A
C271   C274    1.404   1_554 S
C272   C364    1.411   .     A
C272   O514    1.385   .     S
C272   C387    1.404   1_556 S
C273   O515    1.385   .     S
C273   C365    1.411   .     A
C273   C386    1.404   1_554 S
C274   O516    1.385   .     S
C274   C366    1.411   .     A
C274   C271    1.404   1_556 S
C275   O517    1.385   .     S
C275   C368    1.411   .     A
C275   C388    1.404   1_554 S
C276   H399    1.108   .     S
C276   H398    1.116   .     S
C276   H397    1.109   .     S
C276   O501    1.413   .     S
C277   O502    1.413   .     S
C277   H403    1.108   .     S
C277   H401    1.116   .     S
C277   H402    1.109   .     S
C278   O503    1.413   .     S
C278   H405    1.109   .     S
C278   H404    1.116   .     S
C278   H406    1.108   .     S
C279   H407    1.109   .     S
C279   H408    1.116   .     S
C279   H409    1.108   .     S
C279   O504    1.413   .     S
C280   H412    1.113   .     S
C280   H413    1.109   .     S
C280   O505    1.414   .     S
C280   H410    1.109   .     S
C281   O468    1.276   .     A
C281   C319    1.422   .     S
C281   O492    1.276   .     A
C282   H416    1.109   .     S
C282   O506    1.414   .     S
C282   H415    1.109   .     S
C282   H414    1.113   .     S
C283   O507    1.414   .     S
C283   H419    1.113   .     S
C283   H417    1.109   .     S
C283   H418    1.109   .     S
C284   O509    1.414   .     S
C284   H420    1.109   .     S
C284   H423    1.113   .     S
C284   H421    1.109   .     S
C285   H425    1.109   .     S
C285   H426    1.113   .     S
C285   H424    1.109   .     S
C285   O1046   1.414   .     S
C286   H429    1.113   .     S
C286   H427    1.109   .     S
C286   H428    1.109   .     S
C286   O1047   1.414   1_545 S
C287   H431    1.109   .     S
C287   H432    1.109   .     S
C287   H430    1.113   .     S
C288   H435    1.113   .     S
C288   H436    1.109   .     S
C288   H434    1.109   .     S
C288   O245    1.414   1_655 S
C289   H438    1.116   .     S
C289   H439    1.108   .     S
C289   H437    1.109   .     S
C289   O1050   1.413   1_545 S
C290   H442    1.108   .     S
C290   H441    1.109   .     S
C290   H440    1.116   .     S
C290   O1051   1.413   .     S
C291   H443    1.116   .     S
C291   H446    1.108   .     S
C291   H445    1.109   .     S
C291   O248    1.413   1_655 S
C292   C318    1.422   .     S
C292   O469    1.276   .     A
C292   O493    1.276   .     A
C293   H447    1.109   .     S
C293   H448    1.116   .     S
C293   H449    1.108   .     S
C294   O470    1.276   .     A
C294   C317    1.422   .     S
C294   O499    1.276   .     A
C295   C316    1.422   .     S
C295   O471    1.276   .     A
C295   O500    1.276   .     A
C296   O496    1.276   .     A
C296   C324    1.422   .     S
C296   O472    1.276   .     A
C297   O498    1.276   .     A
C297   C322    1.422   .     S
C297   O473    1.276   .     A
C298   C313    1.422   .     S
C298   O474    1.276   .     A
C298   O485    1.276   .     A
C299   C311    1.422   .     S
C299   O487    1.276   .     A
C299   O476    1.276   .     A
C300   O477    1.276   .     A
C300   C310    1.422   .     S
C300   O483    1.276   .     A
C301   C346    1.467   .     S
C301   O508    1.273   .     A
C301   O990    1.273   1_545 S
C302   O478    1.276   .     A
C302   C309    1.422   .     S
C302   O484    1.276   .     A
C303   O479    1.276   .     A
C303   O490    1.276   .     A
C303   C308    1.422   .     S
C304   O491    1.276   .     A
C304   O480    1.276   .     A
C304   C307    1.422   .     S
C305   O481    1.276   .     A
C305   C315    1.422   .     S
C305   O488    1.276   .     A
C306   O489    1.276   .     A
C306   O482    1.276   .     A
C306   C314    1.422   .     S
C307   C324    1.198   .     T
C308   C322    1.198   .     T
C309   C321    1.198   .     T
C310   C320    1.198   .     T
C311   C319    1.198   .     T
C312   C342    1.467   .     S
C312   O518    1.273   .     A
C313   C318    1.198   .     T
C314   C317    1.198   .     T
C315   C316    1.198   .     T
C321   C378    1.422   .     S
C323   C343    1.467   .     S
C323   O519    1.273   .     A
C323   O188    1.273   1_655 S
C325   H389    1.082   .     S
C325   C355    1.400   .     A
C325   C74     1.399   1_655 S
C326   H400    1.082   .     S
C326   C357    1.400   .     A
C327   H411    1.082   .     S
C327   C358    1.400   .     A
C327   C880    1.399   1_545 S
C328   H422    1.082   .     S
C328   C359    1.400   .     A
C328   C882    1.399   .     S
C329   C351    1.400   .     A
C329   C342    1.399   .     A
C329   H433    1.083   .     S
C330   C343    1.399   .     A
C330   C352    1.400   .     A
C330   H444    1.083   .     S
C331   H450    1.083   .     S
C331   C353    1.400   .     A
C331   C344    1.399   .     A
C332   H451    1.083   .     S
C332   C354    1.400   .     A
C332   C346    1.399   .     A
C333   C347    1.399   .     A
C333   H452    1.083   .     S
C333   C364    1.400   .     A
C334   C81     1.467   1_655 S
C334   O189    1.273   1_655 S
C334   O193    1.273   1_655 S
C335   C348    1.399   .     A
C335   H390    1.083   .     S
C335   C365    1.400   .     A
C336   H391    1.083   .     S
C336   C349    1.399   .     A
C336   C366    1.400   .     A
C337   C350    1.399   .     A
C337   H392    1.083   .     S
C337   C368    1.400   .     A
C338   H393    1.082   .     S
C338   C360    1.400   .     A
C338   C883    1.399   1_545 S
C339   H394    1.082   .     S
C339   C361    1.400   .     A
C339   C884    1.399   .     S
C340   H395    1.082   .     S
C340   C362    1.400   .     A
C340   C81     1.399   1_655 S
C341   C363    1.400   .     A
C341   H396    1.082   .     S
C343   C58     1.399   1_655 S
C344   C863    1.399   .     S
C345   O458    1.273   .     A
C345   O462    1.273   .     A
C346   C864    1.399   1_545 S
C347   C874    1.399   .     S
C347   C892    1.467   .     S
C348   C875    1.399   1_545 S
C348   C903    1.467   1_545 S
C350   C77     1.467   1_655 S
C350   C73     1.399   1_655 S
C351   C377    1.411   .     A
C352   C379    1.411   .     A
C352   C102    1.415   1_655 S
C353   C380    1.411   .     A
C353   C907    1.415   .     S
C354   C381    1.411   .     A
C354   C908    1.415   1_545 S
C355   C382    1.413   .     A
C355   C369    1.416   .     A
C356   O459    1.273   .     A
C356   O463    1.273   .     A
C356   C883    1.467   1_545 S
C357   C383    1.413   .     A
C357   C370    1.416   .     A
C358   C384    1.413   .     A
C358   C371    1.416   .     A
C359   C372    1.416   .     A
C359   C385    1.413   .     A
C360   C386    1.413   .     A
C360   C909    1.416   1_545 S
C361   C387    1.413   .     A
C361   C910    1.416   .     S
C362   C388    1.413   .     A
C362   C107    1.416   1_655 S
C364   C373    1.415   .     A
C365   C374    1.415   .     A
C366   C375    1.415   .     A
C367   C884    1.467   .     S
C367   O996    1.273   .     S
C367   O1001   1.273   .     S
C368   C376    1.415   .     A
C369   C83     1.415   1_655 S
C369   C102    1.405   1_655 S
C371   C889    1.415   1_545 S
C371   C908    1.405   1_545 S
C372   C890    1.415   .     S
C372   C907    1.405   .     S
C373   C896    1.416   .     S
C373   C910    1.405   1_556 S
C374   C897    1.416   1_545 S
C374   C909    1.405   1_544 S
C375   C108    1.405   1_556 S
C376   C95     1.416   1_655 S
C376   C107    1.405   1_654 S
C377   C383    1.404   .     A
C377   O501    1.385   .     S
C378   O494    1.276   .     A
C378   O466    1.276   .     A
C379   O502    1.385   .     S
C379   C382    1.404   .     A
C380   C385    1.404   .     A
C380   O503    1.385   .     S
C381   C384    1.404   .     A
C381   O504    1.385   .     S
C382   O505    1.385   .     S
C383   O506    1.385   .     S
C384   O507    1.385   .     S
C385   O509    1.385   .     S
C386   O510    1.385   .     S
C386   C273    1.404   1_556 S
C387   O511    1.385   .     S
C387   C272    1.404   1_554 S
C388   O512    1.385   .     S
C388   C275    1.404   1_556 S
O453   Zn524   1.935   .     S
O453   Zn521   1.935   .     S
O453   Zn532   1.935   .     S
O453   Zn1064  1.935   1_545 S
O454   Zn523   1.951   .     S
O454   C837    1.273   .     S
O455   Zn526   1.951   .     S
O455   C44     1.273   1_655 S
O456   Zn525   1.951   .     S
O457   Zn535   1.951   .     S
O458   Zn534   1.951   .     S
O459   Zn529   1.951   .     S
O460   Zn521   1.951   .     S
O460   C903    1.273   1_545 S
O461   Zn531   1.951   .     S
O462   Zn530   1.951   .     S
O463   Zn533   1.951   .     S
O464   Zn529   1.935   .     S
O464   Zn533   1.935   .     S
O464   Zn527   1.935   .     S
O464   Zn1059  1.935   1_545 S
O465   Zn532   1.951   .     S
O465   C903    1.273   1_545 S
O466   Zn524   1.914   .     S
O467   Zn523   1.914   .     S
O468   Zn526   1.915   .     S
O469   Zn525   1.915   .     S
O470   Zn528   1.914   .     S
O471   Zn527   1.914   .     S
O472   Zn522   1.915   .     S
O473   Zn536   1.915   .     S
O474   Zn523   1.915   .     S
O475   Zn522   1.935   .     S
O475   Zn530   1.935   .     S
O475   Zn534   1.935   .     S
O476   Zn524   1.915   .     S
O477   Zn536   1.914   .     S
O478   Zn522   1.914   .     S
O479   Zn527   1.915   .     S
O480   Zn528   1.915   .     S
O481   Zn525   1.914   .     S
O482   Zn526   1.914   .     S
O483   Zn263   1.914   1_655 S
O484   Zn530   1.914   .     S
O485   Zn1069  1.915   .     S
O486   Zn531   1.935   .     S
O486   Zn535   1.935   .     S
O486   Zn525   1.935   .     S
O487   Zn532   1.915   .     S
O488   Zn535   1.914   .     S
O489   Zn266   1.914   1_655 S
O490   Zn529   1.915   .     S
O491   Zn1057  1.915   .     S
O492   Zn262   1.915   1_655 S
O493   Zn531   1.915   .     S
O494   Zn521   1.914   .     S
O495   Zn1065  1.914   .     S
O496   Zn534   1.915   .     S
O497   Zn528   1.951   .     S
O498   Zn267   1.915   1_655 S
O499   Zn1068  1.914   .     S
O500   Zn533   1.914   .     S
O508   Zn527   1.951   .     S
O510   C821    1.414   1_545 S
O511   C822    1.414   .     S
O512   C19     1.414   1_655 S
O514   C825    1.413   .     S
O515   C826    1.413   1_545 S
O517   C25     1.413   1_655 S
O518   Zn522   1.951   .     S
O519   Zn536   1.951   .     S
O520   Zn524   1.951   .     S
O520   C805    1.273   1_545 S
Zn521  O1027   1.915   1_545 S
Zn523  O1000   1.935   .     S
Zn526  O207    1.935   1_655 S
Zn528  O989    1.935   .     S
Zn529  O1031   1.914   1_545 S
Zn532  O1035   1.914   1_545 S
Zn533  O1021   1.915   1_545 S
Zn536  O218    1.935   1_655 S
C537   C612    1.467   .     S
C537   O765    1.273   .     A
C537   O252    1.273   1_565 S
C538   O763    1.276   .     A
C538   O735    1.276   .     A
C538   C588    1.422   .     S
C539   O781    1.385   .     S
C539   C631    1.413   .     A
C539   C542    1.404   1_554 S
C540   C632    1.411   .     A
C540   O782    1.385   .     S
C540   C655    1.404   1_556 S
C541   O783    1.385   .     S
C541   C633    1.411   .     A
C541   C654    1.404   1_554 S
C542   O784    1.385   .     S
C542   C634    1.411   .     A
C542   C539    1.404   1_556 S
C543   O785    1.385   .     S
C543   C636    1.411   .     A
C543   C656    1.404   1_554 S
C544   H667    1.108   .     S
C544   H666    1.116   .     S
C544   H665    1.109   .     S
C544   O769    1.413   .     S
C545   O770    1.413   .     S
C545   H671    1.108   .     S
C545   H669    1.116   .     S
C545   H670    1.109   .     S
C546   O771    1.413   .     S
C546   H673    1.109   .     S
C546   H672    1.116   .     S
C546   H674    1.108   .     S
C547   H675    1.109   .     S
C547   H676    1.116   .     S
C547   H677    1.108   .     S
C547   O772    1.413   .     S
C548   H680    1.113   .     S
C548   H681    1.109   .     S
C548   O773    1.414   .     S
C548   H678    1.109   .     S
C549   O736    1.276   .     A
C549   C587    1.422   .     S
C549   O760    1.276   .     A
C550   H684    1.109   .     S
C550   O774    1.414   .     S
C550   H683    1.109   .     S
C550   H682    1.113   .     S
C551   O775    1.414   .     S
C551   H687    1.113   .     S
C551   H685    1.109   .     S
C551   H686    1.109   .     S
C552   O777    1.414   .     S
C552   H688    1.109   .     S
C552   H691    1.113   .     S
C552   H689    1.109   .     S
C553   H693    1.109   .     S
C553   H694    1.113   .     S
C553   H692    1.109   .     S
C553   O242    1.414   1_565 S
C554   H697    1.113   .     S
C554   H695    1.109   .     S
C554   H696    1.109   .     S
C555   H699    1.109   .     S
C555   H700    1.109   .     S
C555   H698    1.113   .     S
C555   O1048   1.414   1_455 S
C556   H703    1.113   .     S
C556   H704    1.109   .     S
C556   H702    1.109   .     S
C556   O1049   1.414   .     S
C557   H706    1.116   .     S
C557   H707    1.108   .     S
C557   H705    1.109   .     S
C558   H710    1.108   .     S
C558   H709    1.109   .     S
C558   H708    1.116   .     S
C558   O247    1.413   1_565 S
C559   H711    1.116   .     S
C559   H714    1.108   .     S
C559   H713    1.109   .     S
C559   O1052   1.413   .     S
C560   C586    1.422   .     S
C560   O737    1.276   .     A
C560   O761    1.276   .     A
C561   H715    1.109   .     S
C561   H716    1.116   .     S
C561   H717    1.108   .     S
C561   O1053   1.413   1_455 S
C562   O738    1.276   .     A
C562   C585    1.422   .     S
C562   O767    1.276   .     A
C563   C584    1.422   .     S
C563   O739    1.276   .     A
C563   O768    1.276   .     A
C564   O764    1.276   .     A
C564   C592    1.422   .     S
C564   O740    1.276   .     A
C565   O766    1.276   .     A
C565   C590    1.422   .     S
C565   O741    1.276   .     A
C566   C581    1.422   .     S
C566   O742    1.276   .     A
C566   O753    1.276   .     A
C567   C579    1.422   .     S
C567   O755    1.276   .     A
C567   O744    1.276   .     A
C568   O745    1.276   .     A
C568   C578    1.422   .     S
C568   O751    1.276   .     A
C569   C614    1.467   .     S
C569   O776    1.273   .     A
C570   O746    1.276   .     A
C570   C577    1.422   .     S
C570   O752    1.276   .     A
C571   O747    1.276   .     A
C571   O758    1.276   .     A
C571   C576    1.422   .     S
C572   O759    1.276   .     A
C572   O748    1.276   .     A
C572   C575    1.422   .     S
C573   O749    1.276   .     A
C573   C583    1.422   .     S
C573   O756    1.276   .     A
C574   O757    1.276   .     A
C574   O750    1.276   .     A
C574   C582    1.422   .     S
C575   C592    1.198   .     T
C576   C590    1.198   .     T
C577   C589    1.198   .     T
C578   C588    1.198   .     T
C579   C587    1.198   .     T
C580   C610    1.467   .     S
C580   O786    1.273   .     A
C580   O991    1.273   1_455 S
C581   C586    1.198   .     T
C582   C585    1.198   .     T
C583   C584    1.198   .     T
C589   C646    1.422   .     S
C591   C611    1.467   .     S
C591   O787    1.273   .     A
C591   O992    1.273   .     S
C593   H657    1.082   .     S
C593   C623    1.400   .     A
C593   C878    1.399   .     S
C594   H668    1.082   .     S
C594   C625    1.400   .     A
C594   C879    1.399   1_455 S
C595   H679    1.082   .     S
C595   C626    1.400   .     A
C596   H690    1.082   .     S
C596   C627    1.400   .     A
C596   C78     1.399   1_565 S
C597   C619    1.400   .     A
C597   C610    1.399   .     A
C597   H701    1.083   .     S
C598   C611    1.399   .     A
C598   C620    1.400   .     A
C598   H712    1.083   .     S
C599   H718    1.083   .     S
C599   C621    1.400   .     A
C599   C612    1.399   .     A
C600   H719    1.083   .     S
C600   C622    1.400   .     A
C600   C614    1.399   .     A
C601   C615    1.399   .     A
C601   H720    1.083   .     S
C601   C632    1.400   .     A
C602   C885    1.467   .     S
C602   O993    1.273   .     S
C602   O997    1.273   .     S
C603   C616    1.399   .     A
C603   H658    1.083   .     S
C603   C633    1.400   .     A
C604   H659    1.083   .     S
C604   C617    1.399   .     A
C604   C634    1.400   .     A
C605   C618    1.399   .     A
C605   H660    1.083   .     S
C605   C636    1.400   .     A
C606   H661    1.082   .     S
C606   C628    1.400   .     A
C607   H662    1.082   .     S
C607   C629    1.400   .     A
C607   C80     1.399   1_565 S
C608   H663    1.082   .     S
C608   C630    1.400   .     A
C608   C885    1.399   .     S
C609   C631    1.400   .     A
C609   H664    1.082   .     S
C609   C886    1.399   1_455 S
C610   C861    1.399   1_455 S
C611   C862    1.399   .     S
C612   C59     1.399   1_565 S
C613   O726    1.273   .     A
C613   O730    1.273   .     A
C613   C886    1.467   1_455 S
C615   C70     1.399   1_565 S
C615   C88     1.467   1_565 S
C617   C876    1.399   1_455 S
C617   C870    1.467   1_455 S
C618   C881    1.467   .     S
C618   C877    1.399   .     S
C619   C645    1.411   .     A
C619   C905    1.415   1_455 S
C620   C647    1.411   .     A
C620   C906    1.415   .     S
C621   C648    1.411   .     A
C621   C103    1.415   1_565 S
C622   C649    1.411   .     A
C623   C650    1.413   .     A
C623   C637    1.416   .     A
C624   O727    1.273   .     A
C624   O731    1.273   .     A
C625   C651    1.413   .     A
C625   C638    1.416   .     A
C626   C652    1.413   .     A
C626   C639    1.416   .     A
C627   C640    1.416   .     A
C627   C653    1.413   .     A
C628   C654    1.413   .     A
C629   C655    1.413   .     A
C629   C106    1.416   1_565 S
C630   C656    1.413   .     A
C630   C911    1.416   .     S
C631   C912    1.416   1_455 S
C632   C641    1.415   .     A
C633   C642    1.415   .     A
C634   C643    1.415   .     A
C635   C80     1.467   1_565 S
C635   O192    1.273   1_565 S
C635   O197    1.273   1_565 S
C636   C644    1.415   .     A
C637   C887    1.415   .     S
C637   C906    1.405   .     S
C638   C888    1.415   1_455 S
C638   C905    1.405   1_455 S
C640   C86     1.415   1_565 S
C640   C103    1.405   1_565 S
C641   C92     1.416   1_565 S
C641   C106    1.405   1_566 S
C642   C105    1.405   1_554 S
C643   C898    1.416   1_455 S
C643   C912    1.405   1_456 S
C644   C899    1.416   .     S
C644   C911    1.405   1_554 S
C645   C651    1.404   .     A
C645   O769    1.385   .     S
C646   O762    1.276   .     A
C646   O734    1.276   .     A
C647   O770    1.385   .     S
C647   C650    1.404   .     A
C648   C653    1.404   .     A
C648   O771    1.385   .     S
C649   C652    1.404   .     A
C649   O772    1.385   .     S
C650   O773    1.385   .     S
C651   O774    1.385   .     S
C652   O775    1.385   .     S
C653   O777    1.385   .     S
C654   O778    1.385   .     S
C654   C541    1.404   1_556 S
C655   O779    1.385   .     S
C655   C540    1.404   1_554 S
C656   O780    1.385   .     S
C656   C543    1.404   1_556 S
O721   Zn792   1.935   .     S
O721   Zn789   1.935   .     S
O721   Zn800   1.935   .     S
O722   Zn791   1.951   .     S
O722   C33     1.273   1_565 S
O723   Zn794   1.951   .     S
O723   C848    1.273   .     S
O724   Zn793   1.951   .     S
O724   C859    1.273   1_455 S
O725   Zn803   1.951   .     S
O725   C870    1.273   1_455 S
O726   Zn802   1.951   .     S
O727   Zn797   1.951   .     S
O728   Zn789   1.951   .     S
O729   Zn799   1.951   .     S
O729   C870    1.273   1_455 S
O730   Zn798   1.951   .     S
O731   Zn801   1.951   .     S
O732   Zn797   1.935   .     S
O732   Zn801   1.935   .     S
O732   Zn795   1.935   .     S
O733   Zn800   1.951   .     S
O734   Zn792   1.914   .     S
O735   Zn791   1.914   .     S
O736   Zn794   1.915   .     S
O737   Zn793   1.915   .     S
O738   Zn796   1.914   .     S
O739   Zn795   1.914   .     S
O740   Zn790   1.915   .     S
O741   Zn804   1.915   .     S
O742   Zn791   1.915   .     S
O743   Zn790   1.935   .     S
O743   Zn798   1.935   .     S
O743   Zn802   1.935   .     S
O743   Zn1062  1.935   1_455 S
O744   Zn792   1.915   .     S
O745   Zn804   1.914   .     S
O746   Zn790   1.914   .     S
O747   Zn795   1.915   .     S
O748   Zn796   1.915   .     S
O749   Zn793   1.914   .     S
O750   Zn794   1.914   .     S
O751   Zn1067  1.914   .     S
O752   Zn798   1.914   .     S
O753   Zn265   1.915   1_565 S
O754   Zn799   1.935   .     S
O754   Zn803   1.935   .     S
O754   Zn793   1.935   .     S
O754   Zn1072  1.935   1_455 S
O755   Zn800   1.915   .     S
O756   Zn803   1.914   .     S
O757   Zn1070  1.914   .     S
O758   Zn797   1.915   .     S
O759   Zn253   1.915   1_565 S
O760   Zn1066  1.915   .     S
O761   Zn799   1.915   .     S
O762   Zn789   1.914   .     S
O763   Zn261   1.914   1_565 S
O764   Zn802   1.915   .     S
O765   Zn796   1.951   .     S
O766   Zn1071  1.915   .     S
O767   Zn264   1.914   1_565 S
O768   Zn801   1.914   .     S
O776   Zn795   1.951   .     S
O779   C18     1.414   1_565 S
O780   C823    1.414   .     S
O781   C824    1.414   1_455 S
O782   C21     1.413   1_565 S
O784   C827    1.413   1_455 S
O785   C829    1.413   .     S
O786   Zn790   1.951   .     S
O787   Zn804   1.951   .     S
O788   Zn792   1.951   .     S
Zn791  O196    1.935   1_565 S
Zn794  O1011   1.935   .     S
Zn796  O185    1.935   1_565 S
Zn798  O1028   1.915   1_455 S
Zn799  O1019   1.914   1_455 S
Zn802  O1025   1.914   1_455 S
Zn803  O1034   1.915   1_455 S
Zn804  O1022   1.935   .     S
C805   C880    1.467   .     S
C805   O1033   1.273   .     A
C805   O520    1.273   1_565 S
C806   O1031   1.276   .     A
C806   O1003   1.276   .     A
C806   C856    1.422   .     S
C807   O1049   1.385   .     S
C807   C899    1.413   .     A
C807   C810    1.404   1_554 S
C808   C900    1.411   .     A
C808   O1050   1.385   .     S
C808   C923    1.404   1_556 S
C809   O1051   1.385   .     S
C809   C901    1.411   .     A
C809   C922    1.404   1_554 S
C810   O1052   1.385   .     S
C810   C902    1.411   .     A
C810   C807    1.404   1_556 S
C811   O1053   1.385   .     S
C811   C904    1.411   .     A
C811   C924    1.404   1_554 S
C812   H935    1.108   .     S
C812   H934    1.116   .     S
C812   H933    1.109   .     S
C812   O1037   1.413   .     S
C813   O1038   1.413   .     S
C813   H939    1.108   .     S
C813   H937    1.116   .     S
C813   H938    1.109   .     S
C814   O1039   1.413   .     S
C814   H941    1.109   .     S
C814   H940    1.116   .     S
C814   H942    1.108   .     S
C815   H943    1.109   .     S
C815   H944    1.116   .     S
C815   H945    1.108   .     S
C815   O1040   1.413   .     S
C816   H948    1.113   .     S
C816   H949    1.109   .     S
C816   O1041   1.414   .     S
C816   H946    1.109   .     S
C817   O1004   1.276   .     A
C817   C855    1.422   .     S
C817   O1028   1.276   .     A
C818   H952    1.109   .     S
C818   O1042   1.414   .     S
C818   H951    1.109   .     S
C818   H950    1.113   .     S
C819   O1043   1.414   .     S
C819   H955    1.113   .     S
C819   H953    1.109   .     S
C819   H954    1.109   .     S
C820   O1045   1.414   .     S
C820   H956    1.109   .     S
C820   H959    1.113   .     S
C820   H957    1.109   .     S
C821   H961    1.109   .     S
C821   H962    1.113   .     S
C821   H960    1.109   .     S
C821   O510    1.414   1_565 S
C822   H965    1.113   .     S
C822   H963    1.109   .     S
C822   H964    1.109   .     S
C823   H967    1.109   .     S
C823   H968    1.109   .     S
C823   H966    1.113   .     S
C824   H971    1.113   .     S
C824   H972    1.109   .     S
C824   H970    1.109   .     S
C824   O781    1.414   1_655 S
C825   H974    1.116   .     S
C825   H975    1.108   .     S
C825   H973    1.109   .     S
C826   H978    1.108   .     S
C826   H977    1.109   .     S
C826   H976    1.116   .     S
C826   O515    1.413   1_565 S
C827   H979    1.116   .     S
C827   H982    1.108   .     S
C827   H981    1.109   .     S
C827   O784    1.413   1_655 S
C828   C854    1.422   .     S
C828   O1005   1.276   .     A
C828   O1029   1.276   .     A
C829   H983    1.109   .     S
C829   H984    1.116   .     S
C829   H985    1.108   .     S
C830   O1006   1.276   .     A
C830   C853    1.422   .     S
C830   O1035   1.276   .     A
C831   C852    1.422   .     S
C831   O1007   1.276   .     A
C831   O1036   1.276   .     A
C832   O1032   1.276   .     A
C832   C860    1.422   .     S
C832   O1008   1.276   .     A
C833   O1034   1.276   .     A
C833   C858    1.422   .     S
C833   O1009   1.276   .     A
C834   C849    1.422   .     S
C834   O1010   1.276   .     A
C834   O1021   1.276   .     A
C835   C847    1.422   .     S
C835   O1023   1.276   .     A
C835   O1012   1.276   .     A
C836   O1013   1.276   .     A
C836   C846    1.422   .     S
C836   O1019   1.276   .     A
C837   C882    1.467   .     S
C837   O1044   1.273   .     A
C838   O1014   1.276   .     A
C838   C845    1.422   .     S
C838   O1020   1.276   .     A
C839   O1015   1.276   .     A
C839   O1026   1.276   .     A
C839   C844    1.422   .     S
C840   O1027   1.276   .     A
C840   O1016   1.276   .     A
C840   C843    1.422   .     S
C841   O1017   1.276   .     A
C841   C851    1.422   .     S
C841   O1024   1.276   .     A
C842   O1025   1.276   .     A
C842   O1018   1.276   .     A
C842   C850    1.422   .     S
C843   C860    1.198   .     T
C844   C858    1.198   .     T
C845   C857    1.198   .     T
C846   C856    1.198   .     T
C847   C855    1.198   .     T
C848   C878    1.467   .     S
C848   O1054   1.273   .     A
C849   C854    1.198   .     T
C850   C853    1.198   .     T
C851   C852    1.198   .     T
C857   C914    1.422   .     S
C859   C879    1.467   .     S
C859   O1055   1.273   .     A
C859   O724    1.273   1_655 S
C861   H925    1.082   .     S
C861   C891    1.400   .     A
C861   C610    1.399   1_655 S
C862   H936    1.082   .     S
C862   C893    1.400   .     A
C863   H947    1.082   .     S
C863   C894    1.400   .     A
C864   H958    1.082   .     S
C864   C895    1.400   .     A
C864   C346    1.399   1_565 S
C865   C887    1.400   .     A
C865   C878    1.399   .     A
C865   H969    1.083   .     S
C866   C879    1.399   .     A
C866   C888    1.400   .     A
C866   H980    1.083   .     S
C867   H986    1.083   .     S
C867   C889    1.400   .     A
C867   C880    1.399   .     A
C868   H987    1.083   .     S
C868   C890    1.400   .     A
C868   C882    1.399   .     A
C869   C883    1.399   .     A
C869   H988    1.083   .     S
C869   C900    1.400   .     A
C870   C617    1.467   1_655 S
C870   O725    1.273   1_655 S
C870   O729    1.273   1_655 S
C871   C884    1.399   .     A
C871   H926    1.083   .     S
C871   C901    1.400   .     A
C872   H927    1.083   .     S
C872   C885    1.399   .     A
C872   C902    1.400   .     A
C873   C886    1.399   .     A
C873   H928    1.083   .     S
C873   C904    1.400   .     A
C874   H929    1.082   .     S
C874   C896    1.400   .     A
C875   H930    1.082   .     S
C875   C897    1.400   .     A
C875   C348    1.399   1_565 S
C876   H931    1.082   .     S
C876   C898    1.400   .     A
C876   C617    1.399   1_655 S
C877   C899    1.400   .     A
C877   H932    1.082   .     S
C879   C594    1.399   1_655 S
C880   C327    1.399   1_565 S
C881   O994    1.273   .     A
C881   O998    1.273   .     A
C883   C338    1.399   1_565 S
C883   C356    1.467   1_565 S
C886   C613    1.467   1_655 S
C886   C609    1.399   1_655 S
C887   C913    1.411   .     A
C888   C915    1.411   .     A
C888   C638    1.415   1_655 S
C889   C916    1.411   .     A
C889   C371    1.415   1_565 S
C890   C917    1.411   .     A
C891   C918    1.413   .     A
C891   C905    1.416   .     A
C892   O995    1.273   .     A
C892   O999    1.273   .     A
C893   C919    1.413   .     A
C893   C906    1.416   .     A
C894   C920    1.413   .     A
C894   C907    1.416   .     A
C895   C908    1.416   .     A
C895   C921    1.413   .     A
C896   C922    1.413   .     A
C897   C923    1.413   .     A
C897   C374    1.416   1_565 S
C898   C924    1.413   .     A
C898   C643    1.416   1_655 S
C900   C909    1.415   .     A
C901   C910    1.415   .     A
C902   C911    1.415   .     A
C903   C348    1.467   1_565 S
C903   O460    1.273   1_565 S
C903   O465    1.273   1_565 S
C904   C912    1.415   .     A
C905   C619    1.415   1_655 S
C905   C638    1.405   1_655 S
C908   C354    1.415   1_565 S
C908   C371    1.405   1_565 S
C909   C360    1.416   1_565 S
C909   C374    1.405   1_566 S
C910   C373    1.405   1_554 S
C911   C644    1.405   1_556 S
C912   C631    1.416   1_655 S
C912   C643    1.405   1_654 S
C913   C919    1.404   .     A
C913   O1037   1.385   .     S
C914   O1030   1.276   .     A
C914   O1002   1.276   .     A
C915   O1038   1.385   .     S
C915   C918    1.404   .     A
C916   C921    1.404   .     A
C916   O1039   1.385   .     S
C917   C920    1.404   .     A
C917   O1040   1.385   .     S
C918   O1041   1.385   .     S
C919   O1042   1.385   .     S
C920   O1043   1.385   .     S
C921   O1045   1.385   .     S
C922   O1046   1.385   .     S
C922   C809    1.404   1_556 S
C923   O1047   1.385   .     S
C923   C808    1.404   1_554 S
C924   O1048   1.385   .     S
C924   C811    1.404   1_556 S
O989   Zn1060  1.935   .     S
O989   Zn1057  1.935   .     S
O989   Zn1068  1.935   .     S
O990   Zn1059  1.951   .     S
O990   C301    1.273   1_565 S
O991   Zn1062  1.951   .     S
O991   C580    1.273   1_655 S
O992   Zn1061  1.951   .     S
O993   Zn1071  1.951   .     S
O994   Zn1070  1.951   .     S
O995   Zn1065  1.951   .     S
O996   Zn1057  1.951   .     S
O997   Zn1067  1.951   .     S
O998   Zn1066  1.951   .     S
O999   Zn1069  1.951   .     S
O1000  Zn1065  1.935   .     S
O1000  Zn1069  1.935   .     S
O1000  Zn1063  1.935   .     S
O1001  Zn1068  1.951   .     S
O1002  Zn1060  1.914   .     S
O1003  Zn1059  1.914   .     S
O1004  Zn1062  1.915   .     S
O1005  Zn1061  1.915   .     S
O1006  Zn1064  1.914   .     S
O1007  Zn1063  1.914   .     S
O1008  Zn1058  1.915   .     S
O1009  Zn1072  1.915   .     S
O1010  Zn1059  1.915   .     S
O1011  Zn1058  1.935   .     S
O1011  Zn1066  1.935   .     S
O1011  Zn1070  1.935   .     S
O1012  Zn1060  1.915   .     S
O1013  Zn1072  1.914   .     S
O1014  Zn1058  1.914   .     S
O1015  Zn1063  1.915   .     S
O1016  Zn1064  1.915   .     S
O1017  Zn1061  1.914   .     S
O1018  Zn1062  1.914   .     S
O1019  Zn799   1.914   1_655 S
O1020  Zn1066  1.914   .     S
O1021  Zn533   1.915   1_565 S
O1022  Zn1067  1.935   .     S
O1022  Zn1071  1.935   .     S
O1022  Zn1061  1.935   .     S
O1023  Zn1068  1.915   .     S
O1024  Zn1071  1.914   .     S
O1025  Zn802   1.914   1_655 S
O1026  Zn1065  1.915   .     S
O1027  Zn521   1.915   1_565 S
O1028  Zn798   1.915   1_655 S
O1029  Zn1067  1.915   .     S
O1030  Zn1057  1.914   .     S
O1031  Zn529   1.914   1_565 S
O1032  Zn1070  1.915   .     S
O1033  Zn1064  1.951   .     S
O1034  Zn803   1.915   1_655 S
O1035  Zn532   1.914   1_565 S
O1036  Zn1069  1.914   .     S
O1044  Zn1063  1.951   .     S
O1047  C286    1.414   1_565 S
O1048  C555    1.414   1_655 S
O1050  C289    1.413   1_565 S
O1053  C561    1.413   1_655 S
O1054  Zn1058  1.951   .     S
O1055  Zn1072  1.951   .     S
O1056  Zn1060  1.951   .     S
Zn1059 O464    1.935   1_565 S
Zn1062 O743    1.935   1_655 S
Zn1064 O453    1.935   1_565 S
Zn1072 O754    1.935   1_655 S
