data_str_m1_o10_o18_pcu_sym.205
_audit_creation_date              2020-01-03
_audit_creation_method            'Materials Studio'
_symmetry_space_group_name_H-M    'P1'
_symmetry_Int_Tables_number       1
_symmetry_cell_setting            triclinic
loop_
_symmetry_equiv_pos_as_xyz
  x,y,z
_cell_length_a                    32.5705
_cell_length_b                    32.5347
_cell_length_c                    35.6193
_cell_angle_alpha                 98.1837
_cell_angle_beta                  73.1883
_cell_angle_gamma                 98.5858
loop_
_atom_site_label
_atom_site_type_symbol
_atom_site_fract_x
_atom_site_fract_y
_atom_site_fract_z
_atom_site_U_iso_or_equiv
_atom_site_adp_type
_atom_site_occupancy
C1     C     0.05248   0.15987   0.25874   0.00000  Uiso   1.00
C2     C     0.18440   0.11505   0.46121   0.00000  Uiso   1.00
C3     C     0.21100   0.10241   0.48093   0.00000  Uiso   1.00
C4     C     0.28105   0.17356   0.24123   0.00000  Uiso   1.00
C5     C     0.20667   0.11546   0.02070   0.00000  Uiso   1.00
C6     C     0.17311   0.13970   0.04251   0.00000  Uiso   1.00
C7     C     0.23458   0.10279   0.03929   0.00000  Uiso   1.00
C8     C     0.22940   0.11358   0.07948   0.00000  Uiso   1.00
C9     C     0.16847   0.15002   0.08327   0.00000  Uiso   1.00
C10    C     0.32698   0.17624   0.23770   0.00000  Uiso   1.00
C11    C     0.00712   0.15738   0.26215   0.00000  Uiso   1.00
C12    C     0.09462   0.21052   0.42074   0.00000  Uiso   1.00
C13    C     0.18095   0.32216   0.23816   0.00000  Uiso   1.00
C14    C     0.15158   0.01205   0.26210   0.00000  Uiso   1.00
C15    C     0.15594   0.05608   0.25889   0.00000  Uiso   1.00
C16    C     0.17687   0.27767   0.24136   0.00000  Uiso   1.00
C17    C     0.18806   0.14532   0.14399   0.00000  Uiso   1.00
C18    C     0.14523   0.18749   0.35627   0.00000  Uiso   1.00
C19    C     0.13146   0.19140   0.39968   0.00000  Uiso   1.00
C20    C     0.19608   0.13677   0.10144   0.00000  Uiso   1.00
C21    C     0.07967   0.21050   0.46152   0.00000  Uiso   1.00
C22    C     0.18232   0.09104   0.42287   0.00000  Uiso   1.00
C23    C     0.15305   0.17235   0.41998   0.00000  Uiso   1.00
C24    C     0.13614   0.16821   0.46056   0.00000  Uiso   1.00
C25    C     0.10040   0.18999   0.48188   0.00000  Uiso   1.00
C26    C     0.15584   0.14553   0.48081   0.00000  Uiso   1.00
C27    C     0.14638   0.15358   0.02261   0.00000  Uiso   1.00
C28    C     0.11028   0.17491   0.04305   0.00000  Uiso   1.00
C29    C     0.08667   0.19171   0.02311   0.00000  Uiso   1.00
H30    H     0.26017   0.08413   0.02277   0.00000  Uiso   1.00
H31    H     0.07723   0.22540   0.40571   0.00000  Uiso   1.00
H32    H     0.18362   0.16146   0.40372   0.00000  Uiso   1.00
H33    H     0.09873   0.17830   0.07475   0.00000  Uiso   1.00
H34    H     0.02765   0.19074   0.06223   0.00000  Uiso   1.00
H35    H     0.05960   0.23653   0.06438   0.00000  Uiso   1.00
H36    H     0.15404   0.09012   0.41236   0.00000  Uiso   1.00
H37    H     0.01662   0.19363   0.21509   0.00000  Uiso   1.00
H38    H     0.31815   0.13990   0.28500   0.00000  Uiso   1.00
H39    H     0.20810   0.00280   0.21616   0.00000  Uiso   1.00
H40    H     0.12402   0.33217   0.28413   0.00000  Uiso   1.00
H41    H     0.14425   0.16885   0.10181   0.00000  Uiso   1.00
H42    H     0.25071   0.10309   0.09361   0.00000  Uiso   1.00
H43    H     0.23412   0.08066   0.46563   0.00000  Uiso   1.00
H44    H     0.05176   0.22657   0.47696   0.00000  Uiso   1.00
N45    N     0.04971   0.21225   0.04518   0.00000  Uiso   1.00
O46    O     0.16667   0.16667   0.25000   0.00000  Uiso   1.00
O47    O     0.15693   0.12393   0.16625   0.00000  Uiso   1.00
O48    O     0.12687   0.20646   0.33749   0.00000  Uiso   1.00
O49    O     0.21088   0.17493   0.15877   0.00000  Uiso   1.00
O50    O     0.17198   0.16135   0.33749   0.00000  Uiso   1.00
O51    O     0.21180   0.07147   0.40287   0.00000  Uiso   1.00
O52    O     0.17849   0.08101   0.27820   0.00000  Uiso   1.00
O53    O     0.14581   0.26136   0.26767   0.00000  Uiso   1.00
O54    O     0.07452   0.13251   0.23607   0.00000  Uiso   1.00
O55    O     0.26785   0.19179   0.21805   0.00000  Uiso   1.00
O56    O     0.06990   0.18960   0.27820   0.00000  Uiso   1.00
O57    O     0.25440   0.15277   0.26767   0.00000  Uiso   1.00
O58    O     0.13800   0.06903   0.23607   0.00000  Uiso   1.00
O59    O     0.20437   0.25527   0.21806   0.00000  Uiso   1.00
Zn60   Zn    0.19244   0.14090   0.28277   0.00000  Uiso   1.00
Zn61   Zn    0.13459   0.12378   0.22257   0.00000  Uiso   1.00
Zn62   Zn    0.21166   0.19664   0.21188   0.00000  Uiso   1.00
Zn63   Zn    0.12798   0.20535   0.28277   0.00000  Uiso   1.00
C64    C     0.38582   0.15987   0.25874   0.00000  Uiso   1.00
C65    C     0.51773   0.11505   0.46121   0.00000  Uiso   1.00
C66    C     0.54433   0.10241   0.48093   0.00000  Uiso   1.00
C67    C     0.61438   0.17356   0.24123   0.00000  Uiso   1.00
C68    C     0.54001   0.11546   0.02070   0.00000  Uiso   1.00
C69    C     0.50644   0.13970   0.04251   0.00000  Uiso   1.00
C70    C     0.56791   0.10279   0.03929   0.00000  Uiso   1.00
C71    C     0.56273   0.11358   0.07948   0.00000  Uiso   1.00
C72    C     0.50181   0.15002   0.08327   0.00000  Uiso   1.00
C73    C     0.66032   0.17624   0.23770   0.00000  Uiso   1.00
C74    C     0.34045   0.15738   0.26215   0.00000  Uiso   1.00
C75    C     0.42795   0.21052   0.42074   0.00000  Uiso   1.00
C76    C     0.51428   0.32216   0.23816   0.00000  Uiso   1.00
C77    C     0.48491   0.01205   0.26210   0.00000  Uiso   1.00
C78    C     0.48927   0.05608   0.25889   0.00000  Uiso   1.00
C79    C     0.51020   0.27767   0.24136   0.00000  Uiso   1.00
C80    C     0.52140   0.14532   0.14399   0.00000  Uiso   1.00
C81    C     0.47856   0.18749   0.35627   0.00000  Uiso   1.00
C82    C     0.46480   0.19140   0.39968   0.00000  Uiso   1.00
C83    C     0.52941   0.13677   0.10144   0.00000  Uiso   1.00
C84    C     0.41300   0.21050   0.46152   0.00000  Uiso   1.00
C85    C     0.51565   0.09104   0.42287   0.00000  Uiso   1.00
C86    C     0.48638   0.17235   0.41998   0.00000  Uiso   1.00
C87    C     0.46948   0.16821   0.46056   0.00000  Uiso   1.00
C88    C     0.43374   0.18999   0.48188   0.00000  Uiso   1.00
C89    C     0.48917   0.14553   0.48081   0.00000  Uiso   1.00
C90    C     0.47971   0.15358   0.02261   0.00000  Uiso   1.00
C91    C     0.44362   0.17491   0.04305   0.00000  Uiso   1.00
C92    C     0.42000   0.19171   0.02311   0.00000  Uiso   1.00
H93    H     0.59350   0.08413   0.02277   0.00000  Uiso   1.00
H94    H     0.41056   0.22540   0.40571   0.00000  Uiso   1.00
H95    H     0.51695   0.16146   0.40372   0.00000  Uiso   1.00
H96    H     0.43206   0.17830   0.07475   0.00000  Uiso   1.00
H97    H     0.36098   0.19074   0.06223   0.00000  Uiso   1.00
H98    H     0.39293   0.23653   0.06438   0.00000  Uiso   1.00
H99    H     0.48738   0.09012   0.41236   0.00000  Uiso   1.00
H100   H     0.34996   0.19363   0.21509   0.00000  Uiso   1.00
H101   H     0.65148   0.13990   0.28500   0.00000  Uiso   1.00
H102   H     0.54143   0.00280   0.21616   0.00000  Uiso   1.00
H103   H     0.45736   0.33217   0.28413   0.00000  Uiso   1.00
H104   H     0.47759   0.16885   0.10181   0.00000  Uiso   1.00
H105   H     0.58404   0.10309   0.09361   0.00000  Uiso   1.00
H106   H     0.56746   0.08066   0.46563   0.00000  Uiso   1.00
H107   H     0.38510   0.22657   0.47696   0.00000  Uiso   1.00
N108   N     0.38304   0.21225   0.04518   0.00000  Uiso   1.00
O109   O     0.50000   0.16667   0.25000   0.00000  Uiso   1.00
O110   O     0.49027   0.12393   0.16625   0.00000  Uiso   1.00
O111   O     0.46020   0.20646   0.33749   0.00000  Uiso   1.00
O112   O     0.54421   0.17493   0.15877   0.00000  Uiso   1.00
O113   O     0.50532   0.16135   0.33749   0.00000  Uiso   1.00
O114   O     0.54513   0.07147   0.40287   0.00000  Uiso   1.00
O115   O     0.51182   0.08101   0.27820   0.00000  Uiso   1.00
O116   O     0.47914   0.26136   0.26767   0.00000  Uiso   1.00
O117   O     0.40785   0.13251   0.23607   0.00000  Uiso   1.00
O118   O     0.60119   0.19179   0.21805   0.00000  Uiso   1.00
O119   O     0.40323   0.18960   0.27820   0.00000  Uiso   1.00
O120   O     0.58773   0.15277   0.26767   0.00000  Uiso   1.00
O121   O     0.47133   0.06903   0.23607   0.00000  Uiso   1.00
O122   O     0.53771   0.25527   0.21806   0.00000  Uiso   1.00
Zn123  Zn    0.52577   0.14090   0.28277   0.00000  Uiso   1.00
Zn124  Zn    0.46792   0.12378   0.22257   0.00000  Uiso   1.00
Zn125  Zn    0.54500   0.19664   0.21188   0.00000  Uiso   1.00
Zn126  Zn    0.46131   0.20535   0.28277   0.00000  Uiso   1.00
C127   C     0.71915   0.15987   0.25874   0.00000  Uiso   1.00
C128   C     0.85106   0.11505   0.46121   0.00000  Uiso   1.00
C129   C     0.87767   0.10241   0.48093   0.00000  Uiso   1.00
C130   C     0.94772   0.17356   0.24123   0.00000  Uiso   1.00
C131   C     0.87334   0.11546   0.02070   0.00000  Uiso   1.00
C132   C     0.83978   0.13970   0.04251   0.00000  Uiso   1.00
C133   C     0.90125   0.10279   0.03929   0.00000  Uiso   1.00
C134   C     0.89607   0.11358   0.07948   0.00000  Uiso   1.00
C135   C     0.83514   0.15002   0.08327   0.00000  Uiso   1.00
C136   C     0.99365   0.17624   0.23770   0.00000  Uiso   1.00
C137   C     0.67379   0.15738   0.26215   0.00000  Uiso   1.00
C138   C     0.76129   0.21052   0.42074   0.00000  Uiso   1.00
C139   C     0.84761   0.32216   0.23816   0.00000  Uiso   1.00
C140   C     0.81825   0.01205   0.26210   0.00000  Uiso   1.00
C141   C     0.82261   0.05608   0.25889   0.00000  Uiso   1.00
C142   C     0.84354   0.27767   0.24136   0.00000  Uiso   1.00
C143   C     0.85473   0.14532   0.14399   0.00000  Uiso   1.00
C144   C     0.81190   0.18749   0.35627   0.00000  Uiso   1.00
C145   C     0.79813   0.19140   0.39968   0.00000  Uiso   1.00
C146   C     0.86274   0.13677   0.10144   0.00000  Uiso   1.00
C147   C     0.74634   0.21050   0.46152   0.00000  Uiso   1.00
C148   C     0.84899   0.09104   0.42287   0.00000  Uiso   1.00
C149   C     0.81972   0.17235   0.41998   0.00000  Uiso   1.00
C150   C     0.80281   0.16821   0.46056   0.00000  Uiso   1.00
C151   C     0.76707   0.18999   0.48188   0.00000  Uiso   1.00
C152   C     0.82250   0.14553   0.48081   0.00000  Uiso   1.00
C153   C     0.81304   0.15358   0.02261   0.00000  Uiso   1.00
C154   C     0.77695   0.17491   0.04305   0.00000  Uiso   1.00
C155   C     0.75333   0.19171   0.02311   0.00000  Uiso   1.00
H156   H     0.92683   0.08413   0.02277   0.00000  Uiso   1.00
H157   H     0.74390   0.22540   0.40571   0.00000  Uiso   1.00
H158   H     0.85029   0.16146   0.40372   0.00000  Uiso   1.00
H159   H     0.76539   0.17830   0.07475   0.00000  Uiso   1.00
H160   H     0.69431   0.19074   0.06223   0.00000  Uiso   1.00
H161   H     0.72627   0.23653   0.06438   0.00000  Uiso   1.00
H162   H     0.82071   0.09012   0.41236   0.00000  Uiso   1.00
H163   H     0.68329   0.19363   0.21509   0.00000  Uiso   1.00
H164   H     0.98481   0.13990   0.28500   0.00000  Uiso   1.00
H165   H     0.87476   0.00280   0.21616   0.00000  Uiso   1.00
H166   H     0.79069   0.33217   0.28413   0.00000  Uiso   1.00
H167   H     0.81092   0.16885   0.10181   0.00000  Uiso   1.00
H168   H     0.91738   0.10309   0.09361   0.00000  Uiso   1.00
H169   H     0.90079   0.08066   0.46563   0.00000  Uiso   1.00
H170   H     0.71843   0.22657   0.47696   0.00000  Uiso   1.00
N171   N     0.71637   0.21225   0.04518   0.00000  Uiso   1.00
O172   O     0.83333   0.16667   0.25000   0.00000  Uiso   1.00
O173   O     0.82360   0.12393   0.16625   0.00000  Uiso   1.00
O174   O     0.79354   0.20646   0.33749   0.00000  Uiso   1.00
O175   O     0.87755   0.17493   0.15877   0.00000  Uiso   1.00
O176   O     0.83865   0.16135   0.33749   0.00000  Uiso   1.00
O177   O     0.87846   0.07147   0.40287   0.00000  Uiso   1.00
O178   O     0.84515   0.08101   0.27820   0.00000  Uiso   1.00
O179   O     0.81247   0.26136   0.26767   0.00000  Uiso   1.00
O180   O     0.74119   0.13251   0.23607   0.00000  Uiso   1.00
O181   O     0.93452   0.19179   0.21805   0.00000  Uiso   1.00
O182   O     0.73656   0.18960   0.27820   0.00000  Uiso   1.00
O183   O     0.92106   0.15277   0.26767   0.00000  Uiso   1.00
O184   O     0.80467   0.06903   0.23607   0.00000  Uiso   1.00
O185   O     0.87104   0.25527   0.21806   0.00000  Uiso   1.00
Zn186  Zn    0.85910   0.14090   0.28277   0.00000  Uiso   1.00
Zn187  Zn    0.80125   0.12378   0.22257   0.00000  Uiso   1.00
Zn188  Zn    0.87833   0.19664   0.21188   0.00000  Uiso   1.00
Zn189  Zn    0.79465   0.20535   0.28277   0.00000  Uiso   1.00
C190   C     0.05248   0.49320   0.25874   0.00000  Uiso   1.00
C191   C     0.18440   0.44838   0.46121   0.00000  Uiso   1.00
C192   C     0.21100   0.43574   0.48093   0.00000  Uiso   1.00
C193   C     0.28105   0.50689   0.24123   0.00000  Uiso   1.00
C194   C     0.20667   0.44880   0.02070   0.00000  Uiso   1.00
C195   C     0.17311   0.47303   0.04251   0.00000  Uiso   1.00
C196   C     0.23458   0.43613   0.03929   0.00000  Uiso   1.00
C197   C     0.22940   0.44692   0.07948   0.00000  Uiso   1.00
C198   C     0.16847   0.48336   0.08327   0.00000  Uiso   1.00
C199   C     0.32698   0.50957   0.23770   0.00000  Uiso   1.00
C200   C     0.00712   0.49072   0.26215   0.00000  Uiso   1.00
C201   C     0.09462   0.54385   0.42074   0.00000  Uiso   1.00
C202   C     0.18095   0.65550   0.23816   0.00000  Uiso   1.00
C203   C     0.15158   0.34539   0.26210   0.00000  Uiso   1.00
C204   C     0.15594   0.38941   0.25889   0.00000  Uiso   1.00
C205   C     0.17687   0.61100   0.24136   0.00000  Uiso   1.00
C206   C     0.18806   0.47865   0.14399   0.00000  Uiso   1.00
C207   C     0.14523   0.52083   0.35627   0.00000  Uiso   1.00
C208   C     0.13146   0.52473   0.39968   0.00000  Uiso   1.00
C209   C     0.19608   0.47010   0.10144   0.00000  Uiso   1.00
C210   C     0.07967   0.54383   0.46152   0.00000  Uiso   1.00
C211   C     0.18232   0.42438   0.42287   0.00000  Uiso   1.00
C212   C     0.15305   0.50569   0.41998   0.00000  Uiso   1.00
C213   C     0.13614   0.50154   0.46056   0.00000  Uiso   1.00
C214   C     0.10040   0.52333   0.48188   0.00000  Uiso   1.00
C215   C     0.15584   0.47886   0.48081   0.00000  Uiso   1.00
C216   C     0.14638   0.48692   0.02261   0.00000  Uiso   1.00
C217   C     0.11028   0.50824   0.04305   0.00000  Uiso   1.00
C218   C     0.08667   0.52504   0.02311   0.00000  Uiso   1.00
H219   H     0.26017   0.41747   0.02277   0.00000  Uiso   1.00
H220   H     0.07723   0.55873   0.40571   0.00000  Uiso   1.00
H221   H     0.18362   0.49479   0.40372   0.00000  Uiso   1.00
H222   H     0.09873   0.51163   0.07475   0.00000  Uiso   1.00
H223   H     0.02765   0.52407   0.06223   0.00000  Uiso   1.00
H224   H     0.05960   0.56986   0.06438   0.00000  Uiso   1.00
H225   H     0.15404   0.42346   0.41236   0.00000  Uiso   1.00
H226   H     0.01662   0.52696   0.21509   0.00000  Uiso   1.00
H227   H     0.31815   0.47324   0.28500   0.00000  Uiso   1.00
H228   H     0.20810   0.33613   0.21616   0.00000  Uiso   1.00
H229   H     0.12402   0.66550   0.28413   0.00000  Uiso   1.00
H230   H     0.14425   0.50218   0.10181   0.00000  Uiso   1.00
H231   H     0.25071   0.43642   0.09361   0.00000  Uiso   1.00
H232   H     0.23412   0.41399   0.46563   0.00000  Uiso   1.00
H233   H     0.05176   0.55990   0.47696   0.00000  Uiso   1.00
N234   N     0.04971   0.54558   0.04518   0.00000  Uiso   1.00
O235   O     0.16667   0.50000   0.25000   0.00000  Uiso   1.00
O236   O     0.15693   0.45726   0.16625   0.00000  Uiso   1.00
O237   O     0.12687   0.53979   0.33749   0.00000  Uiso   1.00
O238   O     0.21088   0.50826   0.15877   0.00000  Uiso   1.00
O239   O     0.17198   0.49468   0.33749   0.00000  Uiso   1.00
O240   O     0.21180   0.40481   0.40287   0.00000  Uiso   1.00
O241   O     0.17849   0.41434   0.27820   0.00000  Uiso   1.00
O242   O     0.14581   0.59469   0.26767   0.00000  Uiso   1.00
O243   O     0.07452   0.46584   0.23607   0.00000  Uiso   1.00
O244   O     0.26785   0.52512   0.21805   0.00000  Uiso   1.00
O245   O     0.06990   0.52293   0.27820   0.00000  Uiso   1.00
O246   O     0.25440   0.48610   0.26767   0.00000  Uiso   1.00
O247   O     0.13800   0.40236   0.23607   0.00000  Uiso   1.00
O248   O     0.20437   0.58860   0.21806   0.00000  Uiso   1.00
Zn249  Zn    0.19244   0.47423   0.28277   0.00000  Uiso   1.00
Zn250  Zn    0.13459   0.45711   0.22257   0.00000  Uiso   1.00
Zn251  Zn    0.21166   0.52997   0.21188   0.00000  Uiso   1.00
Zn252  Zn    0.12798   0.53868   0.28277   0.00000  Uiso   1.00
C253   C     0.38582   0.49320   0.25874   0.00000  Uiso   1.00
C254   C     0.51773   0.44838   0.46121   0.00000  Uiso   1.00
C255   C     0.54433   0.43574   0.48093   0.00000  Uiso   1.00
C256   C     0.61438   0.50689   0.24123   0.00000  Uiso   1.00
C257   C     0.54001   0.44880   0.02070   0.00000  Uiso   1.00
C258   C     0.50644   0.47303   0.04251   0.00000  Uiso   1.00
C259   C     0.56791   0.43613   0.03929   0.00000  Uiso   1.00
C260   C     0.56273   0.44692   0.07948   0.00000  Uiso   1.00
C261   C     0.50181   0.48336   0.08327   0.00000  Uiso   1.00
C262   C     0.66032   0.50957   0.23770   0.00000  Uiso   1.00
C263   C     0.34045   0.49072   0.26215   0.00000  Uiso   1.00
C264   C     0.42795   0.54385   0.42074   0.00000  Uiso   1.00
C265   C     0.51428   0.65550   0.23816   0.00000  Uiso   1.00
C266   C     0.48491   0.34539   0.26210   0.00000  Uiso   1.00
C267   C     0.48927   0.38941   0.25889   0.00000  Uiso   1.00
C268   C     0.51020   0.61100   0.24136   0.00000  Uiso   1.00
C269   C     0.52140   0.47865   0.14399   0.00000  Uiso   1.00
C270   C     0.47856   0.52083   0.35627   0.00000  Uiso   1.00
C271   C     0.46480   0.52473   0.39968   0.00000  Uiso   1.00
C272   C     0.52941   0.47010   0.10144   0.00000  Uiso   1.00
C273   C     0.41300   0.54383   0.46152   0.00000  Uiso   1.00
C274   C     0.51565   0.42438   0.42287   0.00000  Uiso   1.00
C275   C     0.48638   0.50569   0.41998   0.00000  Uiso   1.00
C276   C     0.46948   0.50154   0.46056   0.00000  Uiso   1.00
C277   C     0.43374   0.52333   0.48188   0.00000  Uiso   1.00
C278   C     0.48917   0.47886   0.48081   0.00000  Uiso   1.00
C279   C     0.47971   0.48692   0.02261   0.00000  Uiso   1.00
C280   C     0.44362   0.50824   0.04305   0.00000  Uiso   1.00
C281   C     0.42000   0.52504   0.02311   0.00000  Uiso   1.00
H282   H     0.59350   0.41747   0.02277   0.00000  Uiso   1.00
H283   H     0.41056   0.55873   0.40571   0.00000  Uiso   1.00
H284   H     0.51695   0.49479   0.40372   0.00000  Uiso   1.00
H285   H     0.43206   0.51163   0.07475   0.00000  Uiso   1.00
H286   H     0.36098   0.52407   0.06223   0.00000  Uiso   1.00
H287   H     0.39293   0.56986   0.06438   0.00000  Uiso   1.00
H288   H     0.48738   0.42346   0.41236   0.00000  Uiso   1.00
H289   H     0.34996   0.52696   0.21509   0.00000  Uiso   1.00
H290   H     0.65148   0.47324   0.28500   0.00000  Uiso   1.00
H291   H     0.54143   0.33613   0.21616   0.00000  Uiso   1.00
H292   H     0.45736   0.66550   0.28413   0.00000  Uiso   1.00
H293   H     0.47759   0.50218   0.10181   0.00000  Uiso   1.00
H294   H     0.58404   0.43642   0.09361   0.00000  Uiso   1.00
H295   H     0.56746   0.41399   0.46563   0.00000  Uiso   1.00
H296   H     0.38510   0.55990   0.47696   0.00000  Uiso   1.00
N297   N     0.38304   0.54558   0.04518   0.00000  Uiso   1.00
O298   O     0.50000   0.50000   0.25000   0.00000  Uiso   1.00
O299   O     0.49027   0.45726   0.16625   0.00000  Uiso   1.00
O300   O     0.46020   0.53979   0.33749   0.00000  Uiso   1.00
O301   O     0.54421   0.50826   0.15877   0.00000  Uiso   1.00
O302   O     0.50532   0.49468   0.33749   0.00000  Uiso   1.00
O303   O     0.54513   0.40481   0.40287   0.00000  Uiso   1.00
O304   O     0.51182   0.41434   0.27820   0.00000  Uiso   1.00
O305   O     0.47914   0.59469   0.26767   0.00000  Uiso   1.00
O306   O     0.40785   0.46584   0.23607   0.00000  Uiso   1.00
O307   O     0.60119   0.52512   0.21805   0.00000  Uiso   1.00
O308   O     0.40323   0.52293   0.27820   0.00000  Uiso   1.00
O309   O     0.58773   0.48610   0.26767   0.00000  Uiso   1.00
O310   O     0.47133   0.40236   0.23607   0.00000  Uiso   1.00
O311   O     0.53771   0.58860   0.21806   0.00000  Uiso   1.00
Zn312  Zn    0.52577   0.47423   0.28277   0.00000  Uiso   1.00
Zn313  Zn    0.46792   0.45711   0.22257   0.00000  Uiso   1.00
Zn314  Zn    0.54500   0.52997   0.21188   0.00000  Uiso   1.00
Zn315  Zn    0.46131   0.53868   0.28277   0.00000  Uiso   1.00
C316   C     0.71915   0.49320   0.25874   0.00000  Uiso   1.00
C317   C     0.85106   0.44838   0.46121   0.00000  Uiso   1.00
C318   C     0.87767   0.43574   0.48093   0.00000  Uiso   1.00
C319   C     0.94772   0.50689   0.24123   0.00000  Uiso   1.00
C320   C     0.87334   0.44880   0.02070   0.00000  Uiso   1.00
C321   C     0.83978   0.47303   0.04251   0.00000  Uiso   1.00
C322   C     0.90125   0.43613   0.03929   0.00000  Uiso   1.00
C323   C     0.89607   0.44692   0.07948   0.00000  Uiso   1.00
C324   C     0.83514   0.48336   0.08327   0.00000  Uiso   1.00
C325   C     0.99365   0.50957   0.23770   0.00000  Uiso   1.00
C326   C     0.67379   0.49072   0.26215   0.00000  Uiso   1.00
C327   C     0.76129   0.54385   0.42074   0.00000  Uiso   1.00
C328   C     0.84761   0.65550   0.23816   0.00000  Uiso   1.00
C329   C     0.81825   0.34539   0.26210   0.00000  Uiso   1.00
C330   C     0.82261   0.38941   0.25889   0.00000  Uiso   1.00
C331   C     0.84354   0.61100   0.24136   0.00000  Uiso   1.00
C332   C     0.85473   0.47865   0.14399   0.00000  Uiso   1.00
C333   C     0.81190   0.52083   0.35627   0.00000  Uiso   1.00
C334   C     0.79813   0.52473   0.39968   0.00000  Uiso   1.00
C335   C     0.86274   0.47010   0.10144   0.00000  Uiso   1.00
C336   C     0.74634   0.54383   0.46152   0.00000  Uiso   1.00
C337   C     0.84899   0.42438   0.42287   0.00000  Uiso   1.00
C338   C     0.81972   0.50569   0.41998   0.00000  Uiso   1.00
C339   C     0.80281   0.50154   0.46056   0.00000  Uiso   1.00
C340   C     0.76707   0.52333   0.48188   0.00000  Uiso   1.00
C341   C     0.82250   0.47886   0.48081   0.00000  Uiso   1.00
C342   C     0.81304   0.48692   0.02261   0.00000  Uiso   1.00
C343   C     0.77695   0.50824   0.04305   0.00000  Uiso   1.00
C344   C     0.75333   0.52504   0.02311   0.00000  Uiso   1.00
H345   H     0.92683   0.41747   0.02277   0.00000  Uiso   1.00
H346   H     0.74390   0.55873   0.40571   0.00000  Uiso   1.00
H347   H     0.85029   0.49479   0.40372   0.00000  Uiso   1.00
H348   H     0.76539   0.51163   0.07475   0.00000  Uiso   1.00
H349   H     0.69431   0.52407   0.06223   0.00000  Uiso   1.00
H350   H     0.72627   0.56986   0.06438   0.00000  Uiso   1.00
H351   H     0.82071   0.42346   0.41236   0.00000  Uiso   1.00
H352   H     0.68329   0.52696   0.21509   0.00000  Uiso   1.00
H353   H     0.98481   0.47324   0.28500   0.00000  Uiso   1.00
H354   H     0.87476   0.33613   0.21616   0.00000  Uiso   1.00
H355   H     0.79069   0.66550   0.28413   0.00000  Uiso   1.00
H356   H     0.81092   0.50218   0.10181   0.00000  Uiso   1.00
H357   H     0.91738   0.43642   0.09361   0.00000  Uiso   1.00
H358   H     0.90079   0.41399   0.46563   0.00000  Uiso   1.00
H359   H     0.71843   0.55990   0.47696   0.00000  Uiso   1.00
N360   N     0.71637   0.54558   0.04518   0.00000  Uiso   1.00
O361   O     0.83333   0.50000   0.25000   0.00000  Uiso   1.00
O362   O     0.82360   0.45726   0.16625   0.00000  Uiso   1.00
O363   O     0.79354   0.53979   0.33749   0.00000  Uiso   1.00
O364   O     0.87755   0.50826   0.15877   0.00000  Uiso   1.00
O365   O     0.83865   0.49468   0.33749   0.00000  Uiso   1.00
O366   O     0.87846   0.40481   0.40287   0.00000  Uiso   1.00
O367   O     0.84515   0.41434   0.27820   0.00000  Uiso   1.00
O368   O     0.81247   0.59469   0.26767   0.00000  Uiso   1.00
O369   O     0.74119   0.46584   0.23607   0.00000  Uiso   1.00
O370   O     0.93452   0.52512   0.21805   0.00000  Uiso   1.00
O371   O     0.73656   0.52293   0.27820   0.00000  Uiso   1.00
O372   O     0.92106   0.48610   0.26767   0.00000  Uiso   1.00
O373   O     0.80467   0.40236   0.23607   0.00000  Uiso   1.00
O374   O     0.87104   0.58860   0.21806   0.00000  Uiso   1.00
Zn375  Zn    0.85910   0.47423   0.28277   0.00000  Uiso   1.00
Zn376  Zn    0.80125   0.45711   0.22257   0.00000  Uiso   1.00
Zn377  Zn    0.87833   0.52997   0.21188   0.00000  Uiso   1.00
Zn378  Zn    0.79465   0.53868   0.28277   0.00000  Uiso   1.00
C379   C     0.05248   0.82653   0.25874   0.00000  Uiso   1.00
C380   C     0.18440   0.78172   0.46121   0.00000  Uiso   1.00
C381   C     0.21100   0.76907   0.48093   0.00000  Uiso   1.00
C382   C     0.28105   0.84022   0.24123   0.00000  Uiso   1.00
C383   C     0.20667   0.78213   0.02070   0.00000  Uiso   1.00
C384   C     0.17311   0.80637   0.04251   0.00000  Uiso   1.00
C385   C     0.23458   0.76946   0.03929   0.00000  Uiso   1.00
C386   C     0.22940   0.78025   0.07948   0.00000  Uiso   1.00
C387   C     0.16847   0.81669   0.08327   0.00000  Uiso   1.00
C388   C     0.32698   0.84291   0.23770   0.00000  Uiso   1.00
C389   C     0.00712   0.82405   0.26215   0.00000  Uiso   1.00
C390   C     0.09462   0.87718   0.42074   0.00000  Uiso   1.00
C391   C     0.18095   0.98883   0.23816   0.00000  Uiso   1.00
C392   C     0.15158   0.67872   0.26210   0.00000  Uiso   1.00
C393   C     0.15594   0.72275   0.25889   0.00000  Uiso   1.00
C394   C     0.17687   0.94433   0.24136   0.00000  Uiso   1.00
C395   C     0.18806   0.81198   0.14399   0.00000  Uiso   1.00
C396   C     0.14523   0.85416   0.35627   0.00000  Uiso   1.00
C397   C     0.13146   0.85806   0.39968   0.00000  Uiso   1.00
C398   C     0.19608   0.80343   0.10144   0.00000  Uiso   1.00
C399   C     0.07967   0.87717   0.46152   0.00000  Uiso   1.00
C400   C     0.18232   0.75771   0.42287   0.00000  Uiso   1.00
C401   C     0.15305   0.83902   0.41998   0.00000  Uiso   1.00
C402   C     0.13614   0.83488   0.46056   0.00000  Uiso   1.00
C403   C     0.10040   0.85666   0.48188   0.00000  Uiso   1.00
C404   C     0.15584   0.81219   0.48081   0.00000  Uiso   1.00
C405   C     0.14638   0.82025   0.02261   0.00000  Uiso   1.00
C406   C     0.11028   0.84158   0.04305   0.00000  Uiso   1.00
C407   C     0.08667   0.85837   0.02311   0.00000  Uiso   1.00
H408   H     0.26017   0.75080   0.02277   0.00000  Uiso   1.00
H409   H     0.07723   0.89207   0.40571   0.00000  Uiso   1.00
H410   H     0.18362   0.82812   0.40372   0.00000  Uiso   1.00
H411   H     0.09873   0.84496   0.07475   0.00000  Uiso   1.00
H412   H     0.02765   0.85740   0.06223   0.00000  Uiso   1.00
H413   H     0.05960   0.90320   0.06438   0.00000  Uiso   1.00
H414   H     0.15404   0.75679   0.41236   0.00000  Uiso   1.00
H415   H     0.01662   0.86029   0.21509   0.00000  Uiso   1.00
H416   H     0.31815   0.80657   0.28500   0.00000  Uiso   1.00
H417   H     0.20810   0.66947   0.21616   0.00000  Uiso   1.00
H418   H     0.12402   0.99883   0.28413   0.00000  Uiso   1.00
H419   H     0.14425   0.83552   0.10181   0.00000  Uiso   1.00
H420   H     0.25071   0.76975   0.09361   0.00000  Uiso   1.00
H421   H     0.23412   0.74732   0.46563   0.00000  Uiso   1.00
H422   H     0.05176   0.89323   0.47696   0.00000  Uiso   1.00
N423   N     0.04971   0.87891   0.04518   0.00000  Uiso   1.00
O424   O     0.16667   0.83333   0.25000   0.00000  Uiso   1.00
O425   O     0.15693   0.79060   0.16625   0.00000  Uiso   1.00
O426   O     0.12687   0.87313   0.33749   0.00000  Uiso   1.00
O427   O     0.21088   0.84159   0.15877   0.00000  Uiso   1.00
O428   O     0.17198   0.82802   0.33749   0.00000  Uiso   1.00
O429   O     0.21180   0.73814   0.40287   0.00000  Uiso   1.00
O430   O     0.17849   0.74768   0.27820   0.00000  Uiso   1.00
O431   O     0.14581   0.92803   0.26767   0.00000  Uiso   1.00
O432   O     0.07452   0.79917   0.23607   0.00000  Uiso   1.00
O433   O     0.26785   0.85845   0.21805   0.00000  Uiso   1.00
O434   O     0.06990   0.85627   0.27820   0.00000  Uiso   1.00
O435   O     0.25440   0.81944   0.26767   0.00000  Uiso   1.00
O436   O     0.13800   0.73570   0.23607   0.00000  Uiso   1.00
O437   O     0.20437   0.92193   0.21806   0.00000  Uiso   1.00
Zn438  Zn    0.19244   0.80756   0.28277   0.00000  Uiso   1.00
Zn439  Zn    0.13459   0.79044   0.22257   0.00000  Uiso   1.00
Zn440  Zn    0.21166   0.86331   0.21188   0.00000  Uiso   1.00
Zn441  Zn    0.12798   0.87202   0.28277   0.00000  Uiso   1.00
C442   C     0.38582   0.82653   0.25874   0.00000  Uiso   1.00
C443   C     0.51773   0.78172   0.46121   0.00000  Uiso   1.00
C444   C     0.54433   0.76907   0.48093   0.00000  Uiso   1.00
C445   C     0.61438   0.84022   0.24123   0.00000  Uiso   1.00
C446   C     0.54001   0.78213   0.02070   0.00000  Uiso   1.00
C447   C     0.50644   0.80637   0.04251   0.00000  Uiso   1.00
C448   C     0.56791   0.76946   0.03929   0.00000  Uiso   1.00
C449   C     0.56273   0.78025   0.07948   0.00000  Uiso   1.00
C450   C     0.50181   0.81669   0.08327   0.00000  Uiso   1.00
C451   C     0.66032   0.84291   0.23770   0.00000  Uiso   1.00
C452   C     0.34045   0.82405   0.26215   0.00000  Uiso   1.00
C453   C     0.42795   0.87718   0.42074   0.00000  Uiso   1.00
C454   C     0.51428   0.98883   0.23816   0.00000  Uiso   1.00
C455   C     0.48491   0.67872   0.26210   0.00000  Uiso   1.00
C456   C     0.48927   0.72275   0.25889   0.00000  Uiso   1.00
C457   C     0.51020   0.94433   0.24136   0.00000  Uiso   1.00
C458   C     0.52140   0.81198   0.14399   0.00000  Uiso   1.00
C459   C     0.47856   0.85416   0.35627   0.00000  Uiso   1.00
C460   C     0.46480   0.85806   0.39968   0.00000  Uiso   1.00
C461   C     0.52941   0.80343   0.10144   0.00000  Uiso   1.00
C462   C     0.41300   0.87717   0.46152   0.00000  Uiso   1.00
C463   C     0.51565   0.75771   0.42287   0.00000  Uiso   1.00
C464   C     0.48638   0.83902   0.41998   0.00000  Uiso   1.00
C465   C     0.46948   0.83488   0.46056   0.00000  Uiso   1.00
C466   C     0.43374   0.85666   0.48188   0.00000  Uiso   1.00
C467   C     0.48917   0.81219   0.48081   0.00000  Uiso   1.00
C468   C     0.47971   0.82025   0.02261   0.00000  Uiso   1.00
C469   C     0.44362   0.84158   0.04305   0.00000  Uiso   1.00
C470   C     0.42000   0.85837   0.02311   0.00000  Uiso   1.00
H471   H     0.59350   0.75080   0.02277   0.00000  Uiso   1.00
H472   H     0.41056   0.89207   0.40571   0.00000  Uiso   1.00
H473   H     0.51695   0.82812   0.40372   0.00000  Uiso   1.00
H474   H     0.43206   0.84496   0.07475   0.00000  Uiso   1.00
H475   H     0.36098   0.85740   0.06223   0.00000  Uiso   1.00
H476   H     0.39293   0.90320   0.06438   0.00000  Uiso   1.00
H477   H     0.48738   0.75679   0.41236   0.00000  Uiso   1.00
H478   H     0.34996   0.86029   0.21509   0.00000  Uiso   1.00
H479   H     0.65148   0.80657   0.28500   0.00000  Uiso   1.00
H480   H     0.54143   0.66947   0.21616   0.00000  Uiso   1.00
H481   H     0.45736   0.99883   0.28413   0.00000  Uiso   1.00
H482   H     0.47759   0.83552   0.10181   0.00000  Uiso   1.00
H483   H     0.58404   0.76975   0.09361   0.00000  Uiso   1.00
H484   H     0.56746   0.74732   0.46563   0.00000  Uiso   1.00
H485   H     0.38510   0.89323   0.47696   0.00000  Uiso   1.00
N486   N     0.38304   0.87891   0.04518   0.00000  Uiso   1.00
O487   O     0.50000   0.83333   0.25000   0.00000  Uiso   1.00
O488   O     0.49027   0.79060   0.16625   0.00000  Uiso   1.00
O489   O     0.46020   0.87313   0.33749   0.00000  Uiso   1.00
O490   O     0.54421   0.84159   0.15877   0.00000  Uiso   1.00
O491   O     0.50532   0.82802   0.33749   0.00000  Uiso   1.00
O492   O     0.54513   0.73814   0.40287   0.00000  Uiso   1.00
O493   O     0.51182   0.74768   0.27820   0.00000  Uiso   1.00
O494   O     0.47914   0.92803   0.26767   0.00000  Uiso   1.00
O495   O     0.40785   0.79917   0.23607   0.00000  Uiso   1.00
O496   O     0.60119   0.85845   0.21805   0.00000  Uiso   1.00
O497   O     0.40323   0.85627   0.27820   0.00000  Uiso   1.00
O498   O     0.58773   0.81944   0.26767   0.00000  Uiso   1.00
O499   O     0.47133   0.73570   0.23607   0.00000  Uiso   1.00
O500   O     0.53771   0.92193   0.21806   0.00000  Uiso   1.00
Zn501  Zn    0.52577   0.80756   0.28277   0.00000  Uiso   1.00
Zn502  Zn    0.46792   0.79044   0.22257   0.00000  Uiso   1.00
Zn503  Zn    0.54500   0.86331   0.21188   0.00000  Uiso   1.00
Zn504  Zn    0.46131   0.87202   0.28277   0.00000  Uiso   1.00
C505   C     0.71915   0.82653   0.25874   0.00000  Uiso   1.00
C506   C     0.85106   0.78172   0.46121   0.00000  Uiso   1.00
C507   C     0.87767   0.76907   0.48093   0.00000  Uiso   1.00
C508   C     0.94772   0.84022   0.24123   0.00000  Uiso   1.00
C509   C     0.87334   0.78213   0.02070   0.00000  Uiso   1.00
C510   C     0.83978   0.80637   0.04251   0.00000  Uiso   1.00
C511   C     0.90125   0.76946   0.03929   0.00000  Uiso   1.00
C512   C     0.89607   0.78025   0.07948   0.00000  Uiso   1.00
C513   C     0.83514   0.81669   0.08327   0.00000  Uiso   1.00
C514   C     0.99365   0.84291   0.23770   0.00000  Uiso   1.00
C515   C     0.67379   0.82405   0.26215   0.00000  Uiso   1.00
C516   C     0.76129   0.87718   0.42074   0.00000  Uiso   1.00
C517   C     0.84761   0.98883   0.23816   0.00000  Uiso   1.00
C518   C     0.81825   0.67872   0.26210   0.00000  Uiso   1.00
C519   C     0.82261   0.72275   0.25889   0.00000  Uiso   1.00
C520   C     0.84354   0.94433   0.24136   0.00000  Uiso   1.00
C521   C     0.85473   0.81198   0.14399   0.00000  Uiso   1.00
C522   C     0.81190   0.85416   0.35627   0.00000  Uiso   1.00
C523   C     0.79813   0.85806   0.39968   0.00000  Uiso   1.00
C524   C     0.86274   0.80343   0.10144   0.00000  Uiso   1.00
C525   C     0.74634   0.87717   0.46152   0.00000  Uiso   1.00
C526   C     0.84899   0.75771   0.42287   0.00000  Uiso   1.00
C527   C     0.81972   0.83902   0.41998   0.00000  Uiso   1.00
C528   C     0.80281   0.83488   0.46056   0.00000  Uiso   1.00
C529   C     0.76707   0.85666   0.48188   0.00000  Uiso   1.00
C530   C     0.82250   0.81219   0.48081   0.00000  Uiso   1.00
C531   C     0.81304   0.82025   0.02261   0.00000  Uiso   1.00
C532   C     0.77695   0.84158   0.04305   0.00000  Uiso   1.00
C533   C     0.75333   0.85837   0.02311   0.00000  Uiso   1.00
H534   H     0.92683   0.75080   0.02277   0.00000  Uiso   1.00
H535   H     0.74390   0.89207   0.40571   0.00000  Uiso   1.00
H536   H     0.85029   0.82812   0.40372   0.00000  Uiso   1.00
H537   H     0.76539   0.84496   0.07475   0.00000  Uiso   1.00
H538   H     0.69431   0.85740   0.06223   0.00000  Uiso   1.00
H539   H     0.72627   0.90320   0.06438   0.00000  Uiso   1.00
H540   H     0.82071   0.75679   0.41236   0.00000  Uiso   1.00
H541   H     0.68329   0.86029   0.21509   0.00000  Uiso   1.00
H542   H     0.98481   0.80657   0.28500   0.00000  Uiso   1.00
H543   H     0.87476   0.66947   0.21616   0.00000  Uiso   1.00
H544   H     0.79069   0.99883   0.28413   0.00000  Uiso   1.00
H545   H     0.81092   0.83552   0.10181   0.00000  Uiso   1.00
H546   H     0.91738   0.76975   0.09361   0.00000  Uiso   1.00
H547   H     0.90079   0.74732   0.46563   0.00000  Uiso   1.00
H548   H     0.71843   0.89323   0.47696   0.00000  Uiso   1.00
N549   N     0.71637   0.87891   0.04518   0.00000  Uiso   1.00
O550   O     0.83333   0.83333   0.25000   0.00000  Uiso   1.00
O551   O     0.82360   0.79060   0.16625   0.00000  Uiso   1.00
O552   O     0.79354   0.87313   0.33749   0.00000  Uiso   1.00
O553   O     0.87755   0.84159   0.15877   0.00000  Uiso   1.00
O554   O     0.83865   0.82802   0.33749   0.00000  Uiso   1.00
O555   O     0.87846   0.73814   0.40287   0.00000  Uiso   1.00
O556   O     0.84515   0.74768   0.27820   0.00000  Uiso   1.00
O557   O     0.81247   0.92803   0.26767   0.00000  Uiso   1.00
O558   O     0.74119   0.79917   0.23607   0.00000  Uiso   1.00
O559   O     0.93452   0.85845   0.21805   0.00000  Uiso   1.00
O560   O     0.73656   0.85627   0.27820   0.00000  Uiso   1.00
O561   O     0.92106   0.81944   0.26767   0.00000  Uiso   1.00
O562   O     0.80467   0.73570   0.23607   0.00000  Uiso   1.00
O563   O     0.87104   0.92193   0.21806   0.00000  Uiso   1.00
Zn564  Zn    0.85910   0.80756   0.28277   0.00000  Uiso   1.00
Zn565  Zn    0.80125   0.79044   0.22257   0.00000  Uiso   1.00
Zn566  Zn    0.87833   0.86331   0.21188   0.00000  Uiso   1.00
Zn567  Zn    0.79465   0.87202   0.28277   0.00000  Uiso   1.00
C568   C     0.05248   0.15987   0.75874   0.00000  Uiso   1.00
C569   C     0.18440   0.11505   0.96121   0.00000  Uiso   1.00
C570   C     0.21100   0.10241   0.98093   0.00000  Uiso   1.00
C571   C     0.28105   0.17356   0.74123   0.00000  Uiso   1.00
C572   C     0.20667   0.11546   0.52070   0.00000  Uiso   1.00
C573   C     0.17311   0.13970   0.54251   0.00000  Uiso   1.00
C574   C     0.23458   0.10279   0.53929   0.00000  Uiso   1.00
C575   C     0.22940   0.11358   0.57948   0.00000  Uiso   1.00
C576   C     0.16847   0.15002   0.58327   0.00000  Uiso   1.00
C577   C     0.32698   0.17624   0.73770   0.00000  Uiso   1.00
C578   C     0.00712   0.15738   0.76215   0.00000  Uiso   1.00
C579   C     0.09462   0.21052   0.92074   0.00000  Uiso   1.00
C580   C     0.18095   0.32216   0.73816   0.00000  Uiso   1.00
C581   C     0.15158   0.01205   0.76210   0.00000  Uiso   1.00
C582   C     0.15594   0.05608   0.75889   0.00000  Uiso   1.00
C583   C     0.17687   0.27767   0.74136   0.00000  Uiso   1.00
C584   C     0.18806   0.14532   0.64399   0.00000  Uiso   1.00
C585   C     0.14523   0.18749   0.85627   0.00000  Uiso   1.00
C586   C     0.13146   0.19140   0.89968   0.00000  Uiso   1.00
C587   C     0.19608   0.13677   0.60144   0.00000  Uiso   1.00
C588   C     0.07967   0.21050   0.96152   0.00000  Uiso   1.00
C589   C     0.18232   0.09104   0.92287   0.00000  Uiso   1.00
C590   C     0.15305   0.17235   0.91998   0.00000  Uiso   1.00
C591   C     0.13614   0.16821   0.96056   0.00000  Uiso   1.00
C592   C     0.10040   0.18999   0.98188   0.00000  Uiso   1.00
C593   C     0.15584   0.14553   0.98081   0.00000  Uiso   1.00
C594   C     0.14638   0.15358   0.52261   0.00000  Uiso   1.00
C595   C     0.11028   0.17491   0.54305   0.00000  Uiso   1.00
C596   C     0.08667   0.19171   0.52311   0.00000  Uiso   1.00
H597   H     0.26017   0.08413   0.52277   0.00000  Uiso   1.00
H598   H     0.07723   0.22540   0.90571   0.00000  Uiso   1.00
H599   H     0.18362   0.16146   0.90372   0.00000  Uiso   1.00
H600   H     0.09873   0.17830   0.57475   0.00000  Uiso   1.00
H601   H     0.02765   0.19074   0.56223   0.00000  Uiso   1.00
H602   H     0.05960   0.23653   0.56438   0.00000  Uiso   1.00
H603   H     0.15404   0.09012   0.91236   0.00000  Uiso   1.00
H604   H     0.01662   0.19363   0.71509   0.00000  Uiso   1.00
H605   H     0.31815   0.13990   0.78500   0.00000  Uiso   1.00
H606   H     0.20810   0.00280   0.71616   0.00000  Uiso   1.00
H607   H     0.12402   0.33217   0.78413   0.00000  Uiso   1.00
H608   H     0.14425   0.16885   0.60181   0.00000  Uiso   1.00
H609   H     0.25071   0.10309   0.59361   0.00000  Uiso   1.00
H610   H     0.23412   0.08066   0.96563   0.00000  Uiso   1.00
H611   H     0.05176   0.22657   0.97696   0.00000  Uiso   1.00
N612   N     0.04971   0.21225   0.54518   0.00000  Uiso   1.00
O613   O     0.16667   0.16667   0.75000   0.00000  Uiso   1.00
O614   O     0.15693   0.12393   0.66625   0.00000  Uiso   1.00
O615   O     0.12687   0.20646   0.83749   0.00000  Uiso   1.00
O616   O     0.21088   0.17493   0.65877   0.00000  Uiso   1.00
O617   O     0.17198   0.16135   0.83749   0.00000  Uiso   1.00
O618   O     0.21180   0.07147   0.90287   0.00000  Uiso   1.00
O619   O     0.17849   0.08101   0.77820   0.00000  Uiso   1.00
O620   O     0.14581   0.26136   0.76767   0.00000  Uiso   1.00
O621   O     0.07452   0.13251   0.73607   0.00000  Uiso   1.00
O622   O     0.26785   0.19179   0.71805   0.00000  Uiso   1.00
O623   O     0.06990   0.18960   0.77820   0.00000  Uiso   1.00
O624   O     0.25440   0.15277   0.76767   0.00000  Uiso   1.00
O625   O     0.13800   0.06903   0.73607   0.00000  Uiso   1.00
O626   O     0.20437   0.25527   0.71806   0.00000  Uiso   1.00
Zn627  Zn    0.19244   0.14090   0.78277   0.00000  Uiso   1.00
Zn628  Zn    0.13459   0.12378   0.72257   0.00000  Uiso   1.00
Zn629  Zn    0.21166   0.19664   0.71188   0.00000  Uiso   1.00
Zn630  Zn    0.12798   0.20535   0.78277   0.00000  Uiso   1.00
C631   C     0.38582   0.15987   0.75874   0.00000  Uiso   1.00
C632   C     0.51773   0.11505   0.96121   0.00000  Uiso   1.00
C633   C     0.54433   0.10241   0.98093   0.00000  Uiso   1.00
C634   C     0.61438   0.17356   0.74123   0.00000  Uiso   1.00
C635   C     0.54001   0.11546   0.52070   0.00000  Uiso   1.00
C636   C     0.50644   0.13970   0.54251   0.00000  Uiso   1.00
C637   C     0.56791   0.10279   0.53929   0.00000  Uiso   1.00
C638   C     0.56273   0.11358   0.57948   0.00000  Uiso   1.00
C639   C     0.50181   0.15002   0.58327   0.00000  Uiso   1.00
C640   C     0.66032   0.17624   0.73770   0.00000  Uiso   1.00
C641   C     0.34045   0.15738   0.76215   0.00000  Uiso   1.00
C642   C     0.42795   0.21052   0.92074   0.00000  Uiso   1.00
C643   C     0.51428   0.32216   0.73816   0.00000  Uiso   1.00
C644   C     0.48491   0.01205   0.76210   0.00000  Uiso   1.00
C645   C     0.48927   0.05608   0.75889   0.00000  Uiso   1.00
C646   C     0.51020   0.27767   0.74136   0.00000  Uiso   1.00
C647   C     0.52140   0.14532   0.64399   0.00000  Uiso   1.00
C648   C     0.47856   0.18749   0.85627   0.00000  Uiso   1.00
C649   C     0.46480   0.19140   0.89968   0.00000  Uiso   1.00
C650   C     0.52941   0.13677   0.60144   0.00000  Uiso   1.00
C651   C     0.41300   0.21050   0.96152   0.00000  Uiso   1.00
C652   C     0.51565   0.09104   0.92287   0.00000  Uiso   1.00
C653   C     0.48638   0.17235   0.91998   0.00000  Uiso   1.00
C654   C     0.46948   0.16821   0.96056   0.00000  Uiso   1.00
C655   C     0.43374   0.18999   0.98188   0.00000  Uiso   1.00
C656   C     0.48917   0.14553   0.98081   0.00000  Uiso   1.00
C657   C     0.47971   0.15358   0.52261   0.00000  Uiso   1.00
C658   C     0.44362   0.17491   0.54305   0.00000  Uiso   1.00
C659   C     0.42000   0.19171   0.52311   0.00000  Uiso   1.00
H660   H     0.59350   0.08413   0.52277   0.00000  Uiso   1.00
H661   H     0.41056   0.22540   0.90571   0.00000  Uiso   1.00
H662   H     0.51695   0.16146   0.90372   0.00000  Uiso   1.00
H663   H     0.43206   0.17830   0.57475   0.00000  Uiso   1.00
H664   H     0.36098   0.19074   0.56223   0.00000  Uiso   1.00
H665   H     0.39293   0.23653   0.56438   0.00000  Uiso   1.00
H666   H     0.48738   0.09012   0.91236   0.00000  Uiso   1.00
H667   H     0.34996   0.19363   0.71509   0.00000  Uiso   1.00
H668   H     0.65148   0.13990   0.78500   0.00000  Uiso   1.00
H669   H     0.54143   0.00280   0.71616   0.00000  Uiso   1.00
H670   H     0.45736   0.33217   0.78413   0.00000  Uiso   1.00
H671   H     0.47759   0.16885   0.60181   0.00000  Uiso   1.00
H672   H     0.58404   0.10309   0.59361   0.00000  Uiso   1.00
H673   H     0.56746   0.08066   0.96563   0.00000  Uiso   1.00
H674   H     0.38510   0.22657   0.97696   0.00000  Uiso   1.00
N675   N     0.38304   0.21225   0.54518   0.00000  Uiso   1.00
O676   O     0.50000   0.16667   0.75000   0.00000  Uiso   1.00
O677   O     0.49027   0.12393   0.66625   0.00000  Uiso   1.00
O678   O     0.46020   0.20646   0.83749   0.00000  Uiso   1.00
O679   O     0.54421   0.17493   0.65877   0.00000  Uiso   1.00
O680   O     0.50532   0.16135   0.83749   0.00000  Uiso   1.00
O681   O     0.54513   0.07147   0.90287   0.00000  Uiso   1.00
O682   O     0.51182   0.08101   0.77820   0.00000  Uiso   1.00
O683   O     0.47914   0.26136   0.76767   0.00000  Uiso   1.00
O684   O     0.40785   0.13251   0.73607   0.00000  Uiso   1.00
O685   O     0.60119   0.19179   0.71805   0.00000  Uiso   1.00
O686   O     0.40323   0.18960   0.77820   0.00000  Uiso   1.00
O687   O     0.58773   0.15277   0.76767   0.00000  Uiso   1.00
O688   O     0.47133   0.06903   0.73607   0.00000  Uiso   1.00
O689   O     0.53771   0.25527   0.71806   0.00000  Uiso   1.00
Zn690  Zn    0.52577   0.14090   0.78277   0.00000  Uiso   1.00
Zn691  Zn    0.46792   0.12378   0.72257   0.00000  Uiso   1.00
Zn692  Zn    0.54500   0.19664   0.71188   0.00000  Uiso   1.00
Zn693  Zn    0.46131   0.20535   0.78277   0.00000  Uiso   1.00
C694   C     0.71915   0.15987   0.75874   0.00000  Uiso   1.00
C695   C     0.85106   0.11505   0.96121   0.00000  Uiso   1.00
C696   C     0.87767   0.10241   0.98093   0.00000  Uiso   1.00
C697   C     0.94772   0.17356   0.74123   0.00000  Uiso   1.00
C698   C     0.87334   0.11546   0.52070   0.00000  Uiso   1.00
C699   C     0.83978   0.13970   0.54251   0.00000  Uiso   1.00
C700   C     0.90125   0.10279   0.53929   0.00000  Uiso   1.00
C701   C     0.89607   0.11358   0.57948   0.00000  Uiso   1.00
C702   C     0.83514   0.15002   0.58327   0.00000  Uiso   1.00
C703   C     0.99365   0.17624   0.73770   0.00000  Uiso   1.00
C704   C     0.67379   0.15738   0.76215   0.00000  Uiso   1.00
C705   C     0.76129   0.21052   0.92074   0.00000  Uiso   1.00
C706   C     0.84761   0.32216   0.73816   0.00000  Uiso   1.00
C707   C     0.81825   0.01205   0.76210   0.00000  Uiso   1.00
C708   C     0.82261   0.05608   0.75889   0.00000  Uiso   1.00
C709   C     0.84354   0.27767   0.74136   0.00000  Uiso   1.00
C710   C     0.85473   0.14532   0.64399   0.00000  Uiso   1.00
C711   C     0.81190   0.18749   0.85627   0.00000  Uiso   1.00
C712   C     0.79813   0.19140   0.89968   0.00000  Uiso   1.00
C713   C     0.86274   0.13677   0.60144   0.00000  Uiso   1.00
C714   C     0.74634   0.21050   0.96152   0.00000  Uiso   1.00
C715   C     0.84899   0.09104   0.92287   0.00000  Uiso   1.00
C716   C     0.81972   0.17235   0.91998   0.00000  Uiso   1.00
C717   C     0.80281   0.16821   0.96056   0.00000  Uiso   1.00
C718   C     0.76707   0.18999   0.98188   0.00000  Uiso   1.00
C719   C     0.82250   0.14553   0.98081   0.00000  Uiso   1.00
C720   C     0.81304   0.15358   0.52261   0.00000  Uiso   1.00
C721   C     0.77695   0.17491   0.54305   0.00000  Uiso   1.00
C722   C     0.75333   0.19171   0.52311   0.00000  Uiso   1.00
H723   H     0.92683   0.08413   0.52277   0.00000  Uiso   1.00
H724   H     0.74390   0.22540   0.90571   0.00000  Uiso   1.00
H725   H     0.85029   0.16146   0.90372   0.00000  Uiso   1.00
H726   H     0.76539   0.17830   0.57475   0.00000  Uiso   1.00
H727   H     0.69431   0.19074   0.56223   0.00000  Uiso   1.00
H728   H     0.72627   0.23653   0.56438   0.00000  Uiso   1.00
H729   H     0.82071   0.09012   0.91236   0.00000  Uiso   1.00
H730   H     0.68329   0.19363   0.71509   0.00000  Uiso   1.00
H731   H     0.98481   0.13990   0.78500   0.00000  Uiso   1.00
H732   H     0.87476   0.00280   0.71616   0.00000  Uiso   1.00
H733   H     0.79069   0.33217   0.78413   0.00000  Uiso   1.00
H734   H     0.81092   0.16885   0.60181   0.00000  Uiso   1.00
H735   H     0.91738   0.10309   0.59361   0.00000  Uiso   1.00
H736   H     0.90079   0.08066   0.96563   0.00000  Uiso   1.00
H737   H     0.71843   0.22657   0.97696   0.00000  Uiso   1.00
N738   N     0.71637   0.21225   0.54518   0.00000  Uiso   1.00
O739   O     0.83333   0.16667   0.75000   0.00000  Uiso   1.00
O740   O     0.82360   0.12393   0.66625   0.00000  Uiso   1.00
O741   O     0.79354   0.20646   0.83749   0.00000  Uiso   1.00
O742   O     0.87755   0.17493   0.65877   0.00000  Uiso   1.00
O743   O     0.83865   0.16135   0.83749   0.00000  Uiso   1.00
O744   O     0.87846   0.07147   0.90287   0.00000  Uiso   1.00
O745   O     0.84515   0.08101   0.77820   0.00000  Uiso   1.00
O746   O     0.81247   0.26136   0.76767   0.00000  Uiso   1.00
O747   O     0.74119   0.13251   0.73607   0.00000  Uiso   1.00
O748   O     0.93452   0.19179   0.71805   0.00000  Uiso   1.00
O749   O     0.73656   0.18960   0.77820   0.00000  Uiso   1.00
O750   O     0.92106   0.15277   0.76767   0.00000  Uiso   1.00
O751   O     0.80467   0.06903   0.73607   0.00000  Uiso   1.00
O752   O     0.87104   0.25527   0.71806   0.00000  Uiso   1.00
Zn753  Zn    0.85910   0.14090   0.78277   0.00000  Uiso   1.00
Zn754  Zn    0.80125   0.12378   0.72257   0.00000  Uiso   1.00
Zn755  Zn    0.87833   0.19664   0.71188   0.00000  Uiso   1.00
Zn756  Zn    0.79465   0.20535   0.78277   0.00000  Uiso   1.00
C757   C     0.05248   0.49320   0.75874   0.00000  Uiso   1.00
C758   C     0.18440   0.44838   0.96121   0.00000  Uiso   1.00
C759   C     0.21100   0.43574   0.98093   0.00000  Uiso   1.00
C760   C     0.28105   0.50689   0.74123   0.00000  Uiso   1.00
C761   C     0.20667   0.44880   0.52070   0.00000  Uiso   1.00
C762   C     0.17311   0.47303   0.54251   0.00000  Uiso   1.00
C763   C     0.23458   0.43613   0.53929   0.00000  Uiso   1.00
C764   C     0.22940   0.44692   0.57948   0.00000  Uiso   1.00
C765   C     0.16847   0.48336   0.58327   0.00000  Uiso   1.00
C766   C     0.32698   0.50957   0.73770   0.00000  Uiso   1.00
C767   C     0.00712   0.49072   0.76215   0.00000  Uiso   1.00
C768   C     0.09462   0.54385   0.92074   0.00000  Uiso   1.00
C769   C     0.18095   0.65550   0.73816   0.00000  Uiso   1.00
C770   C     0.15158   0.34539   0.76210   0.00000  Uiso   1.00
C771   C     0.15594   0.38941   0.75889   0.00000  Uiso   1.00
C772   C     0.17687   0.61100   0.74136   0.00000  Uiso   1.00
C773   C     0.18806   0.47865   0.64399   0.00000  Uiso   1.00
C774   C     0.14523   0.52083   0.85627   0.00000  Uiso   1.00
C775   C     0.13146   0.52473   0.89968   0.00000  Uiso   1.00
C776   C     0.19608   0.47010   0.60144   0.00000  Uiso   1.00
C777   C     0.07967   0.54383   0.96152   0.00000  Uiso   1.00
C778   C     0.18232   0.42438   0.92287   0.00000  Uiso   1.00
C779   C     0.15305   0.50569   0.91998   0.00000  Uiso   1.00
C780   C     0.13614   0.50154   0.96056   0.00000  Uiso   1.00
C781   C     0.10040   0.52333   0.98188   0.00000  Uiso   1.00
C782   C     0.15584   0.47886   0.98081   0.00000  Uiso   1.00
C783   C     0.14638   0.48692   0.52261   0.00000  Uiso   1.00
C784   C     0.11028   0.50824   0.54305   0.00000  Uiso   1.00
C785   C     0.08667   0.52504   0.52311   0.00000  Uiso   1.00
H786   H     0.26017   0.41747   0.52277   0.00000  Uiso   1.00
H787   H     0.07723   0.55873   0.90571   0.00000  Uiso   1.00
H788   H     0.18362   0.49479   0.90372   0.00000  Uiso   1.00
H789   H     0.09873   0.51163   0.57475   0.00000  Uiso   1.00
H790   H     0.02765   0.52407   0.56223   0.00000  Uiso   1.00
H791   H     0.05960   0.56986   0.56438   0.00000  Uiso   1.00
H792   H     0.15404   0.42346   0.91236   0.00000  Uiso   1.00
H793   H     0.01662   0.52696   0.71509   0.00000  Uiso   1.00
H794   H     0.31815   0.47324   0.78500   0.00000  Uiso   1.00
H795   H     0.20810   0.33613   0.71616   0.00000  Uiso   1.00
H796   H     0.12402   0.66550   0.78413   0.00000  Uiso   1.00
H797   H     0.14425   0.50218   0.60181   0.00000  Uiso   1.00
H798   H     0.25071   0.43642   0.59361   0.00000  Uiso   1.00
H799   H     0.23412   0.41399   0.96563   0.00000  Uiso   1.00
H800   H     0.05176   0.55990   0.97696   0.00000  Uiso   1.00
N801   N     0.04971   0.54558   0.54518   0.00000  Uiso   1.00
O802   O     0.16667   0.50000   0.75000   0.00000  Uiso   1.00
O803   O     0.15693   0.45726   0.66625   0.00000  Uiso   1.00
O804   O     0.12687   0.53979   0.83749   0.00000  Uiso   1.00
O805   O     0.21088   0.50826   0.65877   0.00000  Uiso   1.00
O806   O     0.17198   0.49468   0.83749   0.00000  Uiso   1.00
O807   O     0.21180   0.40481   0.90287   0.00000  Uiso   1.00
O808   O     0.17849   0.41434   0.77820   0.00000  Uiso   1.00
O809   O     0.14581   0.59469   0.76767   0.00000  Uiso   1.00
O810   O     0.07452   0.46584   0.73607   0.00000  Uiso   1.00
O811   O     0.26785   0.52512   0.71805   0.00000  Uiso   1.00
O812   O     0.06990   0.52293   0.77820   0.00000  Uiso   1.00
O813   O     0.25440   0.48610   0.76767   0.00000  Uiso   1.00
O814   O     0.13800   0.40236   0.73607   0.00000  Uiso   1.00
O815   O     0.20437   0.58860   0.71806   0.00000  Uiso   1.00
Zn816  Zn    0.19244   0.47423   0.78277   0.00000  Uiso   1.00
Zn817  Zn    0.13459   0.45711   0.72257   0.00000  Uiso   1.00
Zn818  Zn    0.21166   0.52997   0.71188   0.00000  Uiso   1.00
Zn819  Zn    0.12798   0.53868   0.78277   0.00000  Uiso   1.00
C820   C     0.38582   0.49320   0.75874   0.00000  Uiso   1.00
C821   C     0.51773   0.44838   0.96121   0.00000  Uiso   1.00
C822   C     0.54433   0.43574   0.98093   0.00000  Uiso   1.00
C823   C     0.61438   0.50689   0.74123   0.00000  Uiso   1.00
C824   C     0.54001   0.44880   0.52070   0.00000  Uiso   1.00
C825   C     0.50644   0.47303   0.54251   0.00000  Uiso   1.00
C826   C     0.56791   0.43613   0.53929   0.00000  Uiso   1.00
C827   C     0.56273   0.44692   0.57948   0.00000  Uiso   1.00
C828   C     0.50181   0.48336   0.58327   0.00000  Uiso   1.00
C829   C     0.66032   0.50957   0.73770   0.00000  Uiso   1.00
C830   C     0.34045   0.49072   0.76215   0.00000  Uiso   1.00
C831   C     0.42795   0.54385   0.92074   0.00000  Uiso   1.00
C832   C     0.51428   0.65550   0.73816   0.00000  Uiso   1.00
C833   C     0.48491   0.34539   0.76210   0.00000  Uiso   1.00
C834   C     0.48927   0.38941   0.75889   0.00000  Uiso   1.00
C835   C     0.51020   0.61100   0.74136   0.00000  Uiso   1.00
C836   C     0.52140   0.47865   0.64399   0.00000  Uiso   1.00
C837   C     0.47856   0.52083   0.85627   0.00000  Uiso   1.00
C838   C     0.46480   0.52473   0.89968   0.00000  Uiso   1.00
C839   C     0.52941   0.47010   0.60144   0.00000  Uiso   1.00
C840   C     0.41300   0.54383   0.96152   0.00000  Uiso   1.00
C841   C     0.51565   0.42438   0.92287   0.00000  Uiso   1.00
C842   C     0.48638   0.50569   0.91998   0.00000  Uiso   1.00
C843   C     0.46948   0.50154   0.96056   0.00000  Uiso   1.00
C844   C     0.43374   0.52333   0.98188   0.00000  Uiso   1.00
C845   C     0.48917   0.47886   0.98081   0.00000  Uiso   1.00
C846   C     0.47971   0.48692   0.52261   0.00000  Uiso   1.00
C847   C     0.44362   0.50824   0.54305   0.00000  Uiso   1.00
C848   C     0.42000   0.52504   0.52311   0.00000  Uiso   1.00
H849   H     0.59350   0.41747   0.52277   0.00000  Uiso   1.00
H850   H     0.41056   0.55873   0.90571   0.00000  Uiso   1.00
H851   H     0.51695   0.49479   0.90372   0.00000  Uiso   1.00
H852   H     0.43206   0.51163   0.57475   0.00000  Uiso   1.00
H853   H     0.36098   0.52407   0.56223   0.00000  Uiso   1.00
H854   H     0.39293   0.56986   0.56438   0.00000  Uiso   1.00
H855   H     0.48738   0.42346   0.91236   0.00000  Uiso   1.00
H856   H     0.34996   0.52696   0.71509   0.00000  Uiso   1.00
H857   H     0.65148   0.47324   0.78500   0.00000  Uiso   1.00
H858   H     0.54143   0.33613   0.71616   0.00000  Uiso   1.00
H859   H     0.45736   0.66550   0.78413   0.00000  Uiso   1.00
H860   H     0.47759   0.50218   0.60181   0.00000  Uiso   1.00
H861   H     0.58404   0.43642   0.59361   0.00000  Uiso   1.00
H862   H     0.56746   0.41399   0.96563   0.00000  Uiso   1.00
H863   H     0.38510   0.55990   0.97696   0.00000  Uiso   1.00
N864   N     0.38304   0.54558   0.54518   0.00000  Uiso   1.00
O865   O     0.50000   0.50000   0.75000   0.00000  Uiso   1.00
O866   O     0.49027   0.45726   0.66625   0.00000  Uiso   1.00
O867   O     0.46020   0.53979   0.83749   0.00000  Uiso   1.00
O868   O     0.54421   0.50826   0.65877   0.00000  Uiso   1.00
O869   O     0.50532   0.49468   0.83749   0.00000  Uiso   1.00
O870   O     0.54513   0.40481   0.90287   0.00000  Uiso   1.00
O871   O     0.51182   0.41434   0.77820   0.00000  Uiso   1.00
O872   O     0.47914   0.59469   0.76767   0.00000  Uiso   1.00
O873   O     0.40785   0.46584   0.73607   0.00000  Uiso   1.00
O874   O     0.60119   0.52512   0.71805   0.00000  Uiso   1.00
O875   O     0.40323   0.52293   0.77820   0.00000  Uiso   1.00
O876   O     0.58773   0.48610   0.76767   0.00000  Uiso   1.00
O877   O     0.47133   0.40236   0.73607   0.00000  Uiso   1.00
O878   O     0.53771   0.58860   0.71806   0.00000  Uiso   1.00
Zn879  Zn    0.52577   0.47423   0.78277   0.00000  Uiso   1.00
Zn880  Zn    0.46792   0.45711   0.72257   0.00000  Uiso   1.00
Zn881  Zn    0.54500   0.52997   0.71188   0.00000  Uiso   1.00
Zn882  Zn    0.46131   0.53868   0.78277   0.00000  Uiso   1.00
C883   C     0.71915   0.49320   0.75874   0.00000  Uiso   1.00
C884   C     0.85106   0.44838   0.96121   0.00000  Uiso   1.00
C885   C     0.87767   0.43574   0.98093   0.00000  Uiso   1.00
C886   C     0.94772   0.50689   0.74123   0.00000  Uiso   1.00
C887   C     0.87334   0.44880   0.52070   0.00000  Uiso   1.00
C888   C     0.83978   0.47303   0.54251   0.00000  Uiso   1.00
C889   C     0.90125   0.43613   0.53929   0.00000  Uiso   1.00
C890   C     0.89607   0.44692   0.57948   0.00000  Uiso   1.00
C891   C     0.83514   0.48336   0.58327   0.00000  Uiso   1.00
C892   C     0.99365   0.50957   0.73770   0.00000  Uiso   1.00
C893   C     0.67379   0.49072   0.76215   0.00000  Uiso   1.00
C894   C     0.76129   0.54385   0.92074   0.00000  Uiso   1.00
C895   C     0.84761   0.65550   0.73816   0.00000  Uiso   1.00
C896   C     0.81825   0.34539   0.76210   0.00000  Uiso   1.00
C897   C     0.82261   0.38941   0.75889   0.00000  Uiso   1.00
C898   C     0.84354   0.61100   0.74136   0.00000  Uiso   1.00
C899   C     0.85473   0.47865   0.64399   0.00000  Uiso   1.00
C900   C     0.81190   0.52083   0.85627   0.00000  Uiso   1.00
C901   C     0.79813   0.52473   0.89968   0.00000  Uiso   1.00
C902   C     0.86274   0.47010   0.60144   0.00000  Uiso   1.00
C903   C     0.74634   0.54383   0.96152   0.00000  Uiso   1.00
C904   C     0.84899   0.42438   0.92287   0.00000  Uiso   1.00
C905   C     0.81972   0.50569   0.91998   0.00000  Uiso   1.00
C906   C     0.80281   0.50154   0.96056   0.00000  Uiso   1.00
C907   C     0.76707   0.52333   0.98188   0.00000  Uiso   1.00
C908   C     0.82250   0.47886   0.98081   0.00000  Uiso   1.00
C909   C     0.81304   0.48692   0.52261   0.00000  Uiso   1.00
C910   C     0.77695   0.50824   0.54305   0.00000  Uiso   1.00
C911   C     0.75333   0.52504   0.52311   0.00000  Uiso   1.00
H912   H     0.92683   0.41747   0.52277   0.00000  Uiso   1.00
H913   H     0.74390   0.55873   0.90571   0.00000  Uiso   1.00
H914   H     0.85029   0.49479   0.90372   0.00000  Uiso   1.00
H915   H     0.76539   0.51163   0.57475   0.00000  Uiso   1.00
H916   H     0.69431   0.52407   0.56223   0.00000  Uiso   1.00
H917   H     0.72627   0.56986   0.56438   0.00000  Uiso   1.00
H918   H     0.82071   0.42346   0.91236   0.00000  Uiso   1.00
H919   H     0.68329   0.52696   0.71509   0.00000  Uiso   1.00
H920   H     0.98481   0.47324   0.78500   0.00000  Uiso   1.00
H921   H     0.87476   0.33613   0.71616   0.00000  Uiso   1.00
H922   H     0.79069   0.66550   0.78413   0.00000  Uiso   1.00
H923   H     0.81092   0.50218   0.60181   0.00000  Uiso   1.00
H924   H     0.91738   0.43642   0.59361   0.00000  Uiso   1.00
H925   H     0.90079   0.41399   0.96563   0.00000  Uiso   1.00
H926   H     0.71843   0.55990   0.97696   0.00000  Uiso   1.00
N927   N     0.71637   0.54558   0.54518   0.00000  Uiso   1.00
O928   O     0.83333   0.50000   0.75000   0.00000  Uiso   1.00
O929   O     0.82360   0.45726   0.66625   0.00000  Uiso   1.00
O930   O     0.79354   0.53979   0.83749   0.00000  Uiso   1.00
O931   O     0.87755   0.50826   0.65877   0.00000  Uiso   1.00
O932   O     0.83865   0.49468   0.83749   0.00000  Uiso   1.00
O933   O     0.87846   0.40481   0.90287   0.00000  Uiso   1.00
O934   O     0.84515   0.41434   0.77820   0.00000  Uiso   1.00
O935   O     0.81247   0.59469   0.76767   0.00000  Uiso   1.00
O936   O     0.74119   0.46584   0.73607   0.00000  Uiso   1.00
O937   O     0.93452   0.52512   0.71805   0.00000  Uiso   1.00
O938   O     0.73656   0.52293   0.77820   0.00000  Uiso   1.00
O939   O     0.92106   0.48610   0.76767   0.00000  Uiso   1.00
O940   O     0.80467   0.40236   0.73607   0.00000  Uiso   1.00
O941   O     0.87104   0.58860   0.71806   0.00000  Uiso   1.00
Zn942  Zn    0.85910   0.47423   0.78277   0.00000  Uiso   1.00
Zn943  Zn    0.80125   0.45711   0.72257   0.00000  Uiso   1.00
Zn944  Zn    0.87833   0.52997   0.71188   0.00000  Uiso   1.00
Zn945  Zn    0.79465   0.53868   0.78277   0.00000  Uiso   1.00
C946   C     0.05248   0.82653   0.75874   0.00000  Uiso   1.00
C947   C     0.18440   0.78172   0.96121   0.00000  Uiso   1.00
C948   C     0.21100   0.76907   0.98093   0.00000  Uiso   1.00
C949   C     0.28105   0.84022   0.74123   0.00000  Uiso   1.00
C950   C     0.20667   0.78213   0.52070   0.00000  Uiso   1.00
C951   C     0.17311   0.80637   0.54251   0.00000  Uiso   1.00
C952   C     0.23458   0.76946   0.53929   0.00000  Uiso   1.00
C953   C     0.22940   0.78025   0.57948   0.00000  Uiso   1.00
C954   C     0.16847   0.81669   0.58327   0.00000  Uiso   1.00
C955   C     0.32698   0.84291   0.73770   0.00000  Uiso   1.00
C956   C     0.00712   0.82405   0.76215   0.00000  Uiso   1.00
C957   C     0.09462   0.87718   0.92074   0.00000  Uiso   1.00
C958   C     0.18095   0.98883   0.73816   0.00000  Uiso   1.00
C959   C     0.15158   0.67872   0.76210   0.00000  Uiso   1.00
C960   C     0.15594   0.72275   0.75889   0.00000  Uiso   1.00
C961   C     0.17687   0.94433   0.74136   0.00000  Uiso   1.00
C962   C     0.18806   0.81198   0.64399   0.00000  Uiso   1.00
C963   C     0.14523   0.85416   0.85627   0.00000  Uiso   1.00
C964   C     0.13146   0.85806   0.89968   0.00000  Uiso   1.00
C965   C     0.19608   0.80343   0.60144   0.00000  Uiso   1.00
C966   C     0.07967   0.87717   0.96152   0.00000  Uiso   1.00
C967   C     0.18232   0.75771   0.92287   0.00000  Uiso   1.00
C968   C     0.15305   0.83902   0.91998   0.00000  Uiso   1.00
C969   C     0.13614   0.83488   0.96056   0.00000  Uiso   1.00
C970   C     0.10040   0.85666   0.98188   0.00000  Uiso   1.00
C971   C     0.15584   0.81219   0.98081   0.00000  Uiso   1.00
C972   C     0.14638   0.82025   0.52261   0.00000  Uiso   1.00
C973   C     0.11028   0.84158   0.54305   0.00000  Uiso   1.00
C974   C     0.08667   0.85837   0.52311   0.00000  Uiso   1.00
H975   H     0.26017   0.75080   0.52277   0.00000  Uiso   1.00
H976   H     0.07723   0.89207   0.90571   0.00000  Uiso   1.00
H977   H     0.18362   0.82812   0.90372   0.00000  Uiso   1.00
H978   H     0.09873   0.84496   0.57475   0.00000  Uiso   1.00
H979   H     0.02765   0.85740   0.56223   0.00000  Uiso   1.00
H980   H     0.05960   0.90320   0.56438   0.00000  Uiso   1.00
H981   H     0.15404   0.75679   0.91236   0.00000  Uiso   1.00
H982   H     0.01662   0.86029   0.71509   0.00000  Uiso   1.00
H983   H     0.31815   0.80657   0.78500   0.00000  Uiso   1.00
H984   H     0.20810   0.66947   0.71616   0.00000  Uiso   1.00
H985   H     0.12402   0.99883   0.78413   0.00000  Uiso   1.00
H986   H     0.14425   0.83552   0.60181   0.00000  Uiso   1.00
H987   H     0.25071   0.76975   0.59361   0.00000  Uiso   1.00
H988   H     0.23412   0.74732   0.96563   0.00000  Uiso   1.00
H989   H     0.05176   0.89323   0.97696   0.00000  Uiso   1.00
N990   N     0.04971   0.87891   0.54518   0.00000  Uiso   1.00
O991   O     0.16667   0.83333   0.75000   0.00000  Uiso   1.00
O992   O     0.15693   0.79060   0.66625   0.00000  Uiso   1.00
O993   O     0.12687   0.87313   0.83749   0.00000  Uiso   1.00
O994   O     0.21088   0.84159   0.65877   0.00000  Uiso   1.00
O995   O     0.17198   0.82802   0.83749   0.00000  Uiso   1.00
O996   O     0.21180   0.73814   0.90287   0.00000  Uiso   1.00
O997   O     0.17849   0.74768   0.77820   0.00000  Uiso   1.00
O998   O     0.14581   0.92803   0.76767   0.00000  Uiso   1.00
O999   O     0.07452   0.79917   0.73607   0.00000  Uiso   1.00
O1000  O     0.26785   0.85845   0.71805   0.00000  Uiso   1.00
O1001  O     0.06990   0.85627   0.77820   0.00000  Uiso   1.00
O1002  O     0.25440   0.81944   0.76767   0.00000  Uiso   1.00
O1003  O     0.13800   0.73570   0.73607   0.00000  Uiso   1.00
O1004  O     0.20437   0.92193   0.71806   0.00000  Uiso   1.00
Zn1005 Zn    0.19244   0.80756   0.78277   0.00000  Uiso   1.00
Zn1006 Zn    0.13459   0.79044   0.72257   0.00000  Uiso   1.00
Zn1007 Zn    0.21166   0.86331   0.71188   0.00000  Uiso   1.00
Zn1008 Zn    0.12798   0.87202   0.78277   0.00000  Uiso   1.00
C1009  C     0.38582   0.82653   0.75874   0.00000  Uiso   1.00
C1010  C     0.51773   0.78172   0.96121   0.00000  Uiso   1.00
C1011  C     0.54433   0.76907   0.98093   0.00000  Uiso   1.00
C1012  C     0.61438   0.84022   0.74123   0.00000  Uiso   1.00
C1013  C     0.54001   0.78213   0.52070   0.00000  Uiso   1.00
C1014  C     0.50644   0.80637   0.54251   0.00000  Uiso   1.00
C1015  C     0.56791   0.76946   0.53929   0.00000  Uiso   1.00
C1016  C     0.56273   0.78025   0.57948   0.00000  Uiso   1.00
C1017  C     0.50181   0.81669   0.58327   0.00000  Uiso   1.00
C1018  C     0.66032   0.84291   0.73770   0.00000  Uiso   1.00
C1019  C     0.34045   0.82405   0.76215   0.00000  Uiso   1.00
C1020  C     0.42795   0.87718   0.92074   0.00000  Uiso   1.00
C1021  C     0.51428   0.98883   0.73816   0.00000  Uiso   1.00
C1022  C     0.48491   0.67872   0.76210   0.00000  Uiso   1.00
C1023  C     0.48927   0.72275   0.75889   0.00000  Uiso   1.00
C1024  C     0.51020   0.94433   0.74136   0.00000  Uiso   1.00
C1025  C     0.52140   0.81198   0.64399   0.00000  Uiso   1.00
C1026  C     0.47856   0.85416   0.85627   0.00000  Uiso   1.00
C1027  C     0.46480   0.85806   0.89968   0.00000  Uiso   1.00
C1028  C     0.52941   0.80343   0.60144   0.00000  Uiso   1.00
C1029  C     0.41300   0.87717   0.96152   0.00000  Uiso   1.00
C1030  C     0.51565   0.75771   0.92287   0.00000  Uiso   1.00
C1031  C     0.48638   0.83902   0.91998   0.00000  Uiso   1.00
C1032  C     0.46948   0.83488   0.96056   0.00000  Uiso   1.00
C1033  C     0.43374   0.85666   0.98188   0.00000  Uiso   1.00
C1034  C     0.48917   0.81219   0.98081   0.00000  Uiso   1.00
C1035  C     0.47971   0.82025   0.52261   0.00000  Uiso   1.00
C1036  C     0.44362   0.84158   0.54305   0.00000  Uiso   1.00
C1037  C     0.42000   0.85837   0.52311   0.00000  Uiso   1.00
H1038  H     0.59350   0.75080   0.52277   0.00000  Uiso   1.00
H1039  H     0.41056   0.89207   0.90571   0.00000  Uiso   1.00
H1040  H     0.51695   0.82812   0.90372   0.00000  Uiso   1.00
H1041  H     0.43206   0.84496   0.57475   0.00000  Uiso   1.00
H1042  H     0.36098   0.85740   0.56223   0.00000  Uiso   1.00
H1043  H     0.39293   0.90320   0.56438   0.00000  Uiso   1.00
H1044  H     0.48738   0.75679   0.91236   0.00000  Uiso   1.00
H1045  H     0.34996   0.86029   0.71509   0.00000  Uiso   1.00
H1046  H     0.65148   0.80657   0.78500   0.00000  Uiso   1.00
H1047  H     0.54143   0.66947   0.71616   0.00000  Uiso   1.00
H1048  H     0.45736   0.99883   0.78413   0.00000  Uiso   1.00
H1049  H     0.47759   0.83552   0.60181   0.00000  Uiso   1.00
H1050  H     0.58404   0.76975   0.59361   0.00000  Uiso   1.00
H1051  H     0.56746   0.74732   0.96563   0.00000  Uiso   1.00
H1052  H     0.38510   0.89323   0.97696   0.00000  Uiso   1.00
N1053  N     0.38304   0.87891   0.54518   0.00000  Uiso   1.00
O1054  O     0.50000   0.83333   0.75000   0.00000  Uiso   1.00
O1055  O     0.49027   0.79060   0.66625   0.00000  Uiso   1.00
O1056  O     0.46020   0.87313   0.83749   0.00000  Uiso   1.00
O1057  O     0.54421   0.84159   0.65877   0.00000  Uiso   1.00
O1058  O     0.50532   0.82802   0.83749   0.00000  Uiso   1.00
O1059  O     0.54513   0.73814   0.90287   0.00000  Uiso   1.00
O1060  O     0.51182   0.74768   0.77820   0.00000  Uiso   1.00
O1061  O     0.47914   0.92803   0.76767   0.00000  Uiso   1.00
O1062  O     0.40785   0.79917   0.73607   0.00000  Uiso   1.00
O1063  O     0.60119   0.85845   0.71805   0.00000  Uiso   1.00
O1064  O     0.40323   0.85627   0.77820   0.00000  Uiso   1.00
O1065  O     0.58773   0.81944   0.76767   0.00000  Uiso   1.00
O1066  O     0.47133   0.73570   0.73607   0.00000  Uiso   1.00
O1067  O     0.53771   0.92193   0.71806   0.00000  Uiso   1.00
Zn1068 Zn    0.52577   0.80756   0.78277   0.00000  Uiso   1.00
Zn1069 Zn    0.46792   0.79044   0.72257   0.00000  Uiso   1.00
Zn1070 Zn    0.54500   0.86331   0.71188   0.00000  Uiso   1.00
Zn1071 Zn    0.46131   0.87202   0.78277   0.00000  Uiso   1.00
C1072  C     0.71915   0.82653   0.75874   0.00000  Uiso   1.00
C1073  C     0.85106   0.78172   0.96121   0.00000  Uiso   1.00
C1074  C     0.87767   0.76907   0.98093   0.00000  Uiso   1.00
C1075  C     0.94772   0.84022   0.74123   0.00000  Uiso   1.00
C1076  C     0.87334   0.78213   0.52070   0.00000  Uiso   1.00
C1077  C     0.83978   0.80637   0.54251   0.00000  Uiso   1.00
C1078  C     0.90125   0.76946   0.53929   0.00000  Uiso   1.00
C1079  C     0.89607   0.78025   0.57948   0.00000  Uiso   1.00
C1080  C     0.83514   0.81669   0.58327   0.00000  Uiso   1.00
C1081  C     0.99365   0.84291   0.73770   0.00000  Uiso   1.00
C1082  C     0.67379   0.82405   0.76215   0.00000  Uiso   1.00
C1083  C     0.76129   0.87718   0.92074   0.00000  Uiso   1.00
C1084  C     0.84761   0.98883   0.73816   0.00000  Uiso   1.00
C1085  C     0.81825   0.67872   0.76210   0.00000  Uiso   1.00
C1086  C     0.82261   0.72275   0.75889   0.00000  Uiso   1.00
C1087  C     0.84354   0.94433   0.74136   0.00000  Uiso   1.00
C1088  C     0.85473   0.81198   0.64399   0.00000  Uiso   1.00
C1089  C     0.81190   0.85416   0.85627   0.00000  Uiso   1.00
C1090  C     0.79813   0.85806   0.89968   0.00000  Uiso   1.00
C1091  C     0.86274   0.80343   0.60144   0.00000  Uiso   1.00
C1092  C     0.74634   0.87717   0.96152   0.00000  Uiso   1.00
C1093  C     0.84899   0.75771   0.92287   0.00000  Uiso   1.00
C1094  C     0.81972   0.83902   0.91998   0.00000  Uiso   1.00
C1095  C     0.80281   0.83488   0.96056   0.00000  Uiso   1.00
C1096  C     0.76707   0.85666   0.98188   0.00000  Uiso   1.00
C1097  C     0.82250   0.81219   0.98081   0.00000  Uiso   1.00
C1098  C     0.81304   0.82025   0.52261   0.00000  Uiso   1.00
C1099  C     0.77695   0.84158   0.54305   0.00000  Uiso   1.00
C1100  C     0.75333   0.85837   0.52311   0.00000  Uiso   1.00
H1101  H     0.92683   0.75080   0.52277   0.00000  Uiso   1.00
H1102  H     0.74390   0.89207   0.90571   0.00000  Uiso   1.00
H1103  H     0.85029   0.82812   0.90372   0.00000  Uiso   1.00
H1104  H     0.76539   0.84496   0.57475   0.00000  Uiso   1.00
H1105  H     0.69431   0.85740   0.56223   0.00000  Uiso   1.00
H1106  H     0.72627   0.90320   0.56438   0.00000  Uiso   1.00
H1107  H     0.82071   0.75679   0.91236   0.00000  Uiso   1.00
H1108  H     0.68329   0.86029   0.71509   0.00000  Uiso   1.00
H1109  H     0.98481   0.80657   0.78500   0.00000  Uiso   1.00
H1110  H     0.87476   0.66947   0.71616   0.00000  Uiso   1.00
H1111  H     0.79069   0.99883   0.78413   0.00000  Uiso   1.00
H1112  H     0.81092   0.83552   0.60181   0.00000  Uiso   1.00
H1113  H     0.91738   0.76975   0.59361   0.00000  Uiso   1.00
H1114  H     0.90079   0.74732   0.96563   0.00000  Uiso   1.00
H1115  H     0.71843   0.89323   0.97696   0.00000  Uiso   1.00
N1116  N     0.71637   0.87891   0.54518   0.00000  Uiso   1.00
O1117  O     0.83333   0.83333   0.75000   0.00000  Uiso   1.00
O1118  O     0.82360   0.79060   0.66625   0.00000  Uiso   1.00
O1119  O     0.79354   0.87313   0.83749   0.00000  Uiso   1.00
O1120  O     0.87755   0.84159   0.65877   0.00000  Uiso   1.00
O1121  O     0.83865   0.82802   0.83749   0.00000  Uiso   1.00
O1122  O     0.87846   0.73814   0.90287   0.00000  Uiso   1.00
O1123  O     0.84515   0.74768   0.77820   0.00000  Uiso   1.00
O1124  O     0.81247   0.92803   0.76767   0.00000  Uiso   1.00
O1125  O     0.74119   0.79917   0.73607   0.00000  Uiso   1.00
O1126  O     0.93452   0.85845   0.71805   0.00000  Uiso   1.00
O1127  O     0.73656   0.85627   0.77820   0.00000  Uiso   1.00
O1128  O     0.92106   0.81944   0.76767   0.00000  Uiso   1.00
O1129  O     0.80467   0.73570   0.73607   0.00000  Uiso   1.00
O1130  O     0.87104   0.92193   0.71806   0.00000  Uiso   1.00
Zn1131 Zn    0.85910   0.80756   0.78277   0.00000  Uiso   1.00
Zn1132 Zn    0.80125   0.79044   0.72257   0.00000  Uiso   1.00
Zn1133 Zn    0.87833   0.86331   0.71188   0.00000  Uiso   1.00
Zn1134 Zn    0.79465   0.87202   0.78277   0.00000  Uiso   1.00
loop_
_geom_bond_atom_site_label_1
_geom_bond_atom_site_label_2
_geom_bond_distance
_geom_bond_site_symmetry_2
_ccdc_geom_bond_type
C1     C11     1.438   .     S
C1     O54     1.269   .     A
C1     O56     1.269   .     A
C2     C22     1.488   .     S
C2     C3      1.398   .     A
C2     C26     1.428   .     A
C3     H43     1.085   .     S
C3     C572    1.392   .     S
C4     O57     1.277   .     A
C4     O55     1.280   .     A
C4     C10     1.455   .     S
C5     C7      1.404   .     A
C5     C6      1.418   .     A
C5     C570    1.392   1_554 S
C6     C27     1.425   .     A
C6     C9      1.412   .     A
C7     C8      1.391   .     A
C7     H30     1.084   .     S
C8     H42     1.083   .     S
C8     C20     1.394   .     A
C9     C20     1.394   .     A
C9     H41     1.078   .     S
C10    C74     1.334   .     S
C10    H100    1.088   .     S
C11    C136    1.334   1_455 S
C11    H164    1.086   1_455 S
C12    C19     1.400   .     A
C12    H31     1.083   .     S
C12    C21     1.392   .     A
C13    C16     1.452   .     S
C13    C203    1.332   .     S
C13    H228    1.088   .     S
C14    C15     1.436   .     S
C14    C391    1.332   1_545 S
C14    H418    1.086   1_545 S
C15    O52     1.275   .     A
C15    O58     1.275   .     A
C16    O53     1.271   .     A
C16    O59     1.271   .     A
C17    C20     1.454   .     S
C17    O49     1.275   .     A
C17    O47     1.274   .     A
C18    O50     1.285   .     A
C18    C19     1.472   .     S
C18    O48     1.283   .     A
C19    C23     1.397   .     A
C21    H44     1.083   .     S
C21    C25     1.408   .     A
C22    H36     1.085   .     S
C22    O51     1.222   .     D
C23    C24     1.408   .     A
C23    H32     1.080   .     S
C24    C25     1.420   .     A
C24    C26     1.427   .     A
C25    C596    1.401   .     S
C26    C594    1.424   .     S
C27    C28     1.414   .     A
C27    C593    1.424   1_554 S
C28    C29     1.395   .     A
C28    H33     1.077   .     S
C29    N45     1.434   .     S
C29    C592    1.401   1_554 S
H34    N45     1.046   .     S
H35    N45     1.046   .     S
H37    C136    1.088   1_455 S
H38    C74     1.086   .     S
H39    C391    1.088   1_545 S
H40    C203    1.086   .     S
O46    Zn63    1.934   .     S
O46    Zn62    1.934   .     S
O46    Zn61    1.939   .     S
O46    Zn60    1.956   .     S
O47    Zn61    1.927   .     S
O48    Zn63    1.934   .     S
O49    Zn62    1.929   .     S
O50    Zn60    1.923   .     S
O52    Zn60    1.928   .     S
O53    Zn63    1.931   .     S
O54    Zn61    1.929   .     S
O55    Zn62    1.937   .     S
O56    Zn63    1.932   .     S
O57    Zn60    1.926   .     S
O58    Zn61    1.936   .     S
O59    Zn62    1.931   .     S
C64    C74     1.438   .     S
C64    O117    1.269   .     A
C64    O119    1.269   .     A
C65    C85     1.488   .     S
C65    C66     1.398   .     A
C65    C89     1.428   .     A
C66    H106    1.085   .     S
C66    C635    1.392   .     S
C67    O120    1.277   .     A
C67    O118    1.280   .     A
C67    C73     1.455   .     S
C68    C70     1.404   .     A
C68    C69     1.418   .     A
C68    C633    1.392   1_554 S
C69    C90     1.425   .     A
C69    C72     1.412   .     A
C70    C71     1.391   .     A
C70    H93     1.084   .     S
C71    H105    1.083   .     S
C71    C83     1.394   .     A
C72    C83     1.394   .     A
C72    H104    1.078   .     S
C73    C137    1.334   .     S
C73    H163    1.088   .     S
C75    C82     1.400   .     A
C75    H94     1.083   .     S
C75    C84     1.392   .     A
C76    C79     1.452   .     S
C76    C266    1.332   .     S
C76    H291    1.088   .     S
C77    C78     1.436   .     S
C77    C454    1.332   1_545 S
C77    H481    1.086   1_545 S
C78    O115    1.275   .     A
C78    O121    1.275   .     A
C79    O116    1.271   .     A
C79    O122    1.271   .     A
C80    C83     1.454   .     S
C80    O112    1.275   .     A
C80    O110    1.274   .     A
C81    O113    1.285   .     A
C81    C82     1.472   .     S
C81    O111    1.283   .     A
C82    C86     1.397   .     A
C84    H107    1.083   .     S
C84    C88     1.408   .     A
C85    H99     1.085   .     S
C85    O114    1.222   .     D
C86    C87     1.408   .     A
C86    H95     1.080   .     S
C87    C88     1.420   .     A
C87    C89     1.427   .     A
C88    C659    1.401   .     S
C89    C657    1.424   .     S
C90    C91     1.414   .     A
C90    C656    1.424   1_554 S
C91    C92     1.395   .     A
C91    H96     1.077   .     S
C92    N108    1.434   .     S
C92    C655    1.401   1_554 S
H97    N108    1.046   .     S
H98    N108    1.046   .     S
H101   C137    1.086   .     S
H102   C454    1.088   1_545 S
H103   C266    1.086   .     S
O109   Zn126   1.934   .     S
O109   Zn125   1.934   .     S
O109   Zn124   1.939   .     S
O109   Zn123   1.956   .     S
O110   Zn124   1.927   .     S
O111   Zn126   1.934   .     S
O112   Zn125   1.929   .     S
O113   Zn123   1.923   .     S
O115   Zn123   1.928   .     S
O116   Zn126   1.931   .     S
O117   Zn124   1.929   .     S
O118   Zn125   1.937   .     S
O119   Zn126   1.932   .     S
O120   Zn123   1.926   .     S
O121   Zn124   1.936   .     S
O122   Zn125   1.931   .     S
C127   C137    1.438   .     S
C127   O180    1.269   .     A
C127   O182    1.269   .     A
C128   C148    1.488   .     S
C128   C129    1.398   .     A
C128   C152    1.428   .     A
C129   H169    1.085   .     S
C129   C698    1.392   .     S
C130   O183    1.277   .     A
C130   O181    1.280   .     A
C130   C136    1.455   .     S
C131   C133    1.404   .     A
C131   C132    1.418   .     A
C131   C696    1.392   1_554 S
C132   C153    1.425   .     A
C132   C135    1.412   .     A
C133   C134    1.391   .     A
C133   H156    1.084   .     S
C134   H168    1.083   .     S
C134   C146    1.394   .     A
C135   C146    1.394   .     A
C135   H167    1.078   .     S
C136   C11     1.334   1_655 S
C136   H37     1.088   1_655 S
C138   C145    1.400   .     A
C138   H157    1.083   .     S
C138   C147    1.392   .     A
C139   C142    1.452   .     S
C139   C329    1.332   .     S
C139   H354    1.088   .     S
C140   C141    1.436   .     S
C140   C517    1.332   1_545 S
C140   H544    1.086   1_545 S
C141   O178    1.275   .     A
C141   O184    1.275   .     A
C142   O179    1.271   .     A
C142   O185    1.271   .     A
C143   C146    1.454   .     S
C143   O175    1.275   .     A
C143   O173    1.274   .     A
C144   O176    1.285   .     A
C144   C145    1.472   .     S
C144   O174    1.283   .     A
C145   C149    1.397   .     A
C147   H170    1.083   .     S
C147   C151    1.408   .     A
C148   H162    1.085   .     S
C148   O177    1.222   .     D
C149   C150    1.408   .     A
C149   H158    1.080   .     S
C150   C151    1.420   .     A
C150   C152    1.427   .     A
C151   C722    1.401   .     S
C152   C720    1.424   .     S
C153   C154    1.414   .     A
C153   C719    1.424   1_554 S
C154   C155    1.395   .     A
C154   H159    1.077   .     S
C155   N171    1.434   .     S
C155   C718    1.401   1_554 S
H160   N171    1.046   .     S
H161   N171    1.046   .     S
H164   C11     1.086   1_655 S
H165   C517    1.088   1_545 S
H166   C329    1.086   .     S
O172   Zn189   1.934   .     S
O172   Zn188   1.934   .     S
O172   Zn187   1.939   .     S
O172   Zn186   1.956   .     S
O173   Zn187   1.927   .     S
O174   Zn189   1.934   .     S
O175   Zn188   1.929   .     S
O176   Zn186   1.923   .     S
O178   Zn186   1.928   .     S
O179   Zn189   1.931   .     S
O180   Zn187   1.929   .     S
O181   Zn188   1.937   .     S
O182   Zn189   1.932   .     S
O183   Zn186   1.926   .     S
O184   Zn187   1.936   .     S
O185   Zn188   1.931   .     S
C190   C200    1.438   .     S
C190   O243    1.269   .     A
C190   O245    1.269   .     A
C191   C211    1.488   .     S
C191   C192    1.398   .     A
C191   C215    1.428   .     A
C192   H232    1.085   .     S
C192   C761    1.392   .     S
C193   O246    1.277   .     A
C193   O244    1.280   .     A
C193   C199    1.455   .     S
C194   C196    1.404   .     A
C194   C195    1.418   .     A
C194   C759    1.392   1_554 S
C195   C216    1.425   .     A
C195   C198    1.412   .     A
C196   C197    1.391   .     A
C196   H219    1.084   .     S
C197   H231    1.083   .     S
C197   C209    1.394   .     A
C198   C209    1.394   .     A
C198   H230    1.078   .     S
C199   C263    1.334   .     S
C199   H289    1.088   .     S
C200   C325    1.334   1_455 S
C200   H353    1.086   1_455 S
C201   C208    1.400   .     A
C201   H220    1.083   .     S
C201   C210    1.392   .     A
C202   C205    1.452   .     S
C202   C392    1.332   .     S
C202   H417    1.088   .     S
C203   C204    1.436   .     S
C204   O241    1.275   .     A
C204   O247    1.275   .     A
C205   O242    1.271   .     A
C205   O248    1.271   .     A
C206   C209    1.454   .     S
C206   O238    1.275   .     A
C206   O236    1.274   .     A
C207   O239    1.285   .     A
C207   C208    1.472   .     S
C207   O237    1.283   .     A
C208   C212    1.397   .     A
C210   H233    1.083   .     S
C210   C214    1.408   .     A
C211   H225    1.085   .     S
C211   O240    1.222   .     D
C212   C213    1.408   .     A
C212   H221    1.080   .     S
C213   C214    1.420   .     A
C213   C215    1.427   .     A
C214   C785    1.401   .     S
C215   C783    1.424   .     S
C216   C217    1.414   .     A
C216   C782    1.424   1_554 S
C217   C218    1.395   .     A
C217   H222    1.077   .     S
C218   N234    1.434   .     S
C218   C781    1.401   1_554 S
H223   N234    1.046   .     S
H224   N234    1.046   .     S
H226   C325    1.088   1_455 S
H227   C263    1.086   .     S
H229   C392    1.086   .     S
O235   Zn252   1.934   .     S
O235   Zn251   1.934   .     S
O235   Zn250   1.939   .     S
O235   Zn249   1.956   .     S
O236   Zn250   1.927   .     S
O237   Zn252   1.934   .     S
O238   Zn251   1.929   .     S
O239   Zn249   1.923   .     S
O241   Zn249   1.928   .     S
O242   Zn252   1.931   .     S
O243   Zn250   1.929   .     S
O244   Zn251   1.937   .     S
O245   Zn252   1.932   .     S
O246   Zn249   1.926   .     S
O247   Zn250   1.936   .     S
O248   Zn251   1.931   .     S
C253   C263    1.438   .     S
C253   O306    1.269   .     A
C253   O308    1.269   .     A
C254   C274    1.488   .     S
C254   C255    1.398   .     A
C254   C278    1.428   .     A
C255   H295    1.085   .     S
C255   C824    1.392   .     S
C256   O309    1.277   .     A
C256   O307    1.280   .     A
C256   C262    1.455   .     S
C257   C259    1.404   .     A
C257   C258    1.418   .     A
C257   C822    1.392   1_554 S
C258   C279    1.425   .     A
C258   C261    1.412   .     A
C259   C260    1.391   .     A
C259   H282    1.084   .     S
C260   H294    1.083   .     S
C260   C272    1.394   .     A
C261   C272    1.394   .     A
C261   H293    1.078   .     S
C262   C326    1.334   .     S
C262   H352    1.088   .     S
C264   C271    1.400   .     A
C264   H283    1.083   .     S
C264   C273    1.392   .     A
C265   C268    1.452   .     S
C265   C455    1.332   .     S
C265   H480    1.088   .     S
C266   C267    1.436   .     S
C267   O304    1.275   .     A
C267   O310    1.275   .     A
C268   O305    1.271   .     A
C268   O311    1.271   .     A
C269   C272    1.454   .     S
C269   O301    1.275   .     A
C269   O299    1.274   .     A
C270   O302    1.285   .     A
C270   C271    1.472   .     S
C270   O300    1.283   .     A
C271   C275    1.397   .     A
C273   H296    1.083   .     S
C273   C277    1.408   .     A
C274   H288    1.085   .     S
C274   O303    1.222   .     D
C275   C276    1.408   .     A
C275   H284    1.080   .     S
C276   C277    1.420   .     A
C276   C278    1.427   .     A
C277   C848    1.401   .     S
C278   C846    1.424   .     S
C279   C280    1.414   .     A
C279   C845    1.424   1_554 S
C280   C281    1.395   .     A
C280   H285    1.077   .     S
C281   N297    1.434   .     S
C281   C844    1.401   1_554 S
H286   N297    1.046   .     S
H287   N297    1.046   .     S
H290   C326    1.086   .     S
H292   C455    1.086   .     S
O298   Zn315   1.934   .     S
O298   Zn314   1.934   .     S
O298   Zn313   1.939   .     S
O298   Zn312   1.956   .     S
O299   Zn313   1.927   .     S
O300   Zn315   1.934   .     S
O301   Zn314   1.929   .     S
O302   Zn312   1.923   .     S
O304   Zn312   1.928   .     S
O305   Zn315   1.931   .     S
O306   Zn313   1.929   .     S
O307   Zn314   1.937   .     S
O308   Zn315   1.932   .     S
O309   Zn312   1.926   .     S
O310   Zn313   1.936   .     S
O311   Zn314   1.931   .     S
C316   C326    1.438   .     S
C316   O369    1.269   .     A
C316   O371    1.269   .     A
C317   C337    1.488   .     S
C317   C318    1.398   .     A
C317   C341    1.428   .     A
C318   H358    1.085   .     S
C318   C887    1.392   .     S
C319   O372    1.277   .     A
C319   O370    1.280   .     A
C319   C325    1.455   .     S
C320   C322    1.404   .     A
C320   C321    1.418   .     A
C320   C885    1.392   1_554 S
C321   C342    1.425   .     A
C321   C324    1.412   .     A
C322   C323    1.391   .     A
C322   H345    1.084   .     S
C323   H357    1.083   .     S
C323   C335    1.394   .     A
C324   C335    1.394   .     A
C324   H356    1.078   .     S
C325   C200    1.334   1_655 S
C325   H226    1.088   1_655 S
C327   C334    1.400   .     A
C327   H346    1.083   .     S
C327   C336    1.392   .     A
C328   C331    1.452   .     S
C328   C518    1.332   .     S
C328   H543    1.088   .     S
C329   C330    1.436   .     S
C330   O367    1.275   .     A
C330   O373    1.275   .     A
C331   O368    1.271   .     A
C331   O374    1.271   .     A
C332   C335    1.454   .     S
C332   O364    1.275   .     A
C332   O362    1.274   .     A
C333   O365    1.285   .     A
C333   C334    1.472   .     S
C333   O363    1.283   .     A
C334   C338    1.397   .     A
C336   H359    1.083   .     S
C336   C340    1.408   .     A
C337   H351    1.085   .     S
C337   O366    1.222   .     D
C338   C339    1.408   .     A
C338   H347    1.080   .     S
C339   C340    1.420   .     A
C339   C341    1.427   .     A
C340   C911    1.401   .     S
C341   C909    1.424   .     S
C342   C343    1.414   .     A
C342   C908    1.424   1_554 S
C343   C344    1.395   .     A
C343   H348    1.077   .     S
C344   N360    1.434   .     S
C344   C907    1.401   1_554 S
H349   N360    1.046   .     S
H350   N360    1.046   .     S
H353   C200    1.086   1_655 S
H355   C518    1.086   .     S
O361   Zn378   1.934   .     S
O361   Zn377   1.934   .     S
O361   Zn376   1.939   .     S
O361   Zn375   1.956   .     S
O362   Zn376   1.927   .     S
O363   Zn378   1.934   .     S
O364   Zn377   1.929   .     S
O365   Zn375   1.923   .     S
O367   Zn375   1.928   .     S
O368   Zn378   1.931   .     S
O369   Zn376   1.929   .     S
O370   Zn377   1.937   .     S
O371   Zn378   1.932   .     S
O372   Zn375   1.926   .     S
O373   Zn376   1.936   .     S
O374   Zn377   1.931   .     S
C379   C389    1.438   .     S
C379   O432    1.269   .     A
C379   O434    1.269   .     A
C380   C400    1.488   .     S
C380   C381    1.398   .     A
C380   C404    1.428   .     A
C381   H421    1.085   .     S
C381   C950    1.392   .     S
C382   O435    1.277   .     A
C382   O433    1.280   .     A
C382   C388    1.455   .     S
C383   C385    1.404   .     A
C383   C384    1.418   .     A
C383   C948    1.392   1_554 S
C384   C405    1.425   .     A
C384   C387    1.412   .     A
C385   C386    1.391   .     A
C385   H408    1.084   .     S
C386   H420    1.083   .     S
C386   C398    1.394   .     A
C387   C398    1.394   .     A
C387   H419    1.078   .     S
C388   C452    1.334   .     S
C388   H478    1.088   .     S
C389   C514    1.334   1_455 S
C389   H542    1.086   1_455 S
C390   C397    1.400   .     A
C390   H409    1.083   .     S
C390   C399    1.392   .     A
C391   C394    1.452   .     S
C391   C14     1.332   1_565 S
C391   H39     1.088   1_565 S
C392   C393    1.436   .     S
C393   O430    1.275   .     A
C393   O436    1.275   .     A
C394   O431    1.271   .     A
C394   O437    1.271   .     A
C395   C398    1.454   .     S
C395   O427    1.275   .     A
C395   O425    1.274   .     A
C396   O428    1.285   .     A
C396   C397    1.472   .     S
C396   O426    1.283   .     A
C397   C401    1.397   .     A
C399   H422    1.083   .     S
C399   C403    1.408   .     A
C400   H414    1.085   .     S
C400   O429    1.222   .     D
C401   C402    1.408   .     A
C401   H410    1.080   .     S
C402   C403    1.420   .     A
C402   C404    1.427   .     A
C403   C974    1.401   .     S
C404   C972    1.424   .     S
C405   C406    1.414   .     A
C405   C971    1.424   1_554 S
C406   C407    1.395   .     A
C406   H411    1.077   .     S
C407   N423    1.434   .     S
C407   C970    1.401   1_554 S
H412   N423    1.046   .     S
H413   N423    1.046   .     S
H415   C514    1.088   1_455 S
H416   C452    1.086   .     S
H418   C14     1.086   1_565 S
O424   Zn441   1.934   .     S
O424   Zn440   1.934   .     S
O424   Zn439   1.939   .     S
O424   Zn438   1.956   .     S
O425   Zn439   1.927   .     S
O426   Zn441   1.934   .     S
O427   Zn440   1.929   .     S
O428   Zn438   1.923   .     S
O430   Zn438   1.928   .     S
O431   Zn441   1.931   .     S
O432   Zn439   1.929   .     S
O433   Zn440   1.937   .     S
O434   Zn441   1.932   .     S
O435   Zn438   1.926   .     S
O436   Zn439   1.936   .     S
O437   Zn440   1.931   .     S
C442   C452    1.438   .     S
C442   O495    1.269   .     A
C442   O497    1.269   .     A
C443   C463    1.488   .     S
C443   C444    1.398   .     A
C443   C467    1.428   .     A
C444   H484    1.085   .     S
C444   C1013   1.392   .     S
C445   O498    1.277   .     A
C445   O496    1.280   .     A
C445   C451    1.455   .     S
C446   C448    1.404   .     A
C446   C447    1.418   .     A
C446   C1011   1.392   1_554 S
C447   C468    1.425   .     A
C447   C450    1.412   .     A
C448   C449    1.391   .     A
C448   H471    1.084   .     S
C449   H483    1.083   .     S
C449   C461    1.394   .     A
C450   C461    1.394   .     A
C450   H482    1.078   .     S
C451   C515    1.334   .     S
C451   H541    1.088   .     S
C453   C460    1.400   .     A
C453   H472    1.083   .     S
C453   C462    1.392   .     A
C454   C457    1.452   .     S
C454   C77     1.332   1_565 S
C454   H102    1.088   1_565 S
C455   C456    1.436   .     S
C456   O493    1.275   .     A
C456   O499    1.275   .     A
C457   O494    1.271   .     A
C457   O500    1.271   .     A
C458   C461    1.454   .     S
C458   O490    1.275   .     A
C458   O488    1.274   .     A
C459   O491    1.285   .     A
C459   C460    1.472   .     S
C459   O489    1.283   .     A
C460   C464    1.397   .     A
C462   H485    1.083   .     S
C462   C466    1.408   .     A
C463   H477    1.085   .     S
C463   O492    1.222   .     D
C464   C465    1.408   .     A
C464   H473    1.080   .     S
C465   C466    1.420   .     A
C465   C467    1.427   .     A
C466   C1037   1.401   .     S
C467   C1035   1.424   .     S
C468   C469    1.414   .     A
C468   C1034   1.424   1_554 S
C469   C470    1.395   .     A
C469   H474    1.077   .     S
C470   N486    1.434   .     S
C470   C1033   1.401   1_554 S
H475   N486    1.046   .     S
H476   N486    1.046   .     S
H479   C515    1.086   .     S
H481   C77     1.086   1_565 S
O487   Zn504   1.934   .     S
O487   Zn503   1.934   .     S
O487   Zn502   1.939   .     S
O487   Zn501   1.956   .     S
O488   Zn502   1.927   .     S
O489   Zn504   1.934   .     S
O490   Zn503   1.929   .     S
O491   Zn501   1.923   .     S
O493   Zn501   1.928   .     S
O494   Zn504   1.931   .     S
O495   Zn502   1.929   .     S
O496   Zn503   1.937   .     S
O497   Zn504   1.932   .     S
O498   Zn501   1.926   .     S
O499   Zn502   1.936   .     S
O500   Zn503   1.931   .     S
C505   C515    1.438   .     S
C505   O558    1.269   .     A
C505   O560    1.269   .     A
C506   C526    1.488   .     S
C506   C507    1.398   .     A
C506   C530    1.428   .     A
C507   H547    1.085   .     S
C507   C1076   1.392   .     S
C508   O561    1.277   .     A
C508   O559    1.280   .     A
C508   C514    1.455   .     S
C509   C511    1.404   .     A
C509   C510    1.418   .     A
C509   C1074   1.392   1_554 S
C510   C531    1.425   .     A
C510   C513    1.412   .     A
C511   C512    1.391   .     A
C511   H534    1.084   .     S
C512   H546    1.083   .     S
C512   C524    1.394   .     A
C513   C524    1.394   .     A
C513   H545    1.078   .     S
C514   C389    1.334   1_655 S
C514   H415    1.088   1_655 S
C516   C523    1.400   .     A
C516   H535    1.083   .     S
C516   C525    1.392   .     A
C517   C520    1.452   .     S
C517   C140    1.332   1_565 S
C517   H165    1.088   1_565 S
C518   C519    1.436   .     S
C519   O556    1.275   .     A
C519   O562    1.275   .     A
C520   O557    1.271   .     A
C520   O563    1.271   .     A
C521   C524    1.454   .     S
C521   O553    1.275   .     A
C521   O551    1.274   .     A
C522   O554    1.285   .     A
C522   C523    1.472   .     S
C522   O552    1.283   .     A
C523   C527    1.397   .     A
C525   H548    1.083   .     S
C525   C529    1.408   .     A
C526   H540    1.085   .     S
C526   O555    1.222   .     D
C527   C528    1.408   .     A
C527   H536    1.080   .     S
C528   C529    1.420   .     A
C528   C530    1.427   .     A
C529   C1100   1.401   .     S
C530   C1098   1.424   .     S
C531   C532    1.414   .     A
C531   C1097   1.424   1_554 S
C532   C533    1.395   .     A
C532   H537    1.077   .     S
C533   N549    1.434   .     S
C533   C1096   1.401   1_554 S
H538   N549    1.046   .     S
H539   N549    1.046   .     S
H542   C389    1.086   1_655 S
H544   C140    1.086   1_565 S
O550   Zn567   1.934   .     S
O550   Zn566   1.934   .     S
O550   Zn565   1.939   .     S
O550   Zn564   1.956   .     S
O551   Zn565   1.927   .     S
O552   Zn567   1.934   .     S
O553   Zn566   1.929   .     S
O554   Zn564   1.923   .     S
O556   Zn564   1.928   .     S
O557   Zn567   1.931   .     S
O558   Zn565   1.929   .     S
O559   Zn566   1.937   .     S
O560   Zn567   1.932   .     S
O561   Zn564   1.926   .     S
O562   Zn565   1.936   .     S
O563   Zn566   1.931   .     S
C568   C578    1.438   .     S
C568   O621    1.269   .     A
C568   O623    1.269   .     A
C569   C589    1.488   .     S
C569   C570    1.398   .     A
C569   C593    1.428   .     A
C570   H610    1.085   .     S
C570   C5      1.392   1_556 S
C571   O624    1.277   .     A
C571   O622    1.280   .     A
C571   C577    1.455   .     S
C572   C574    1.404   .     A
C572   C573    1.418   .     A
C573   C594    1.425   .     A
C573   C576    1.412   .     A
C574   C575    1.391   .     A
C574   H597    1.084   .     S
C575   H609    1.083   .     S
C575   C587    1.394   .     A
C576   C587    1.394   .     A
C576   H608    1.078   .     S
C577   C641    1.334   .     S
C577   H667    1.088   .     S
C578   C703    1.334   1_455 S
C578   H731    1.086   1_455 S
C579   C586    1.400   .     A
C579   H598    1.083   .     S
C579   C588    1.392   .     A
C580   C583    1.452   .     S
C580   C770    1.332   .     S
C580   H795    1.088   .     S
C581   C582    1.436   .     S
C581   C958    1.332   1_545 S
C581   H985    1.086   1_545 S
C582   O619    1.275   .     A
C582   O625    1.275   .     A
C583   O620    1.271   .     A
C583   O626    1.271   .     A
C584   C587    1.454   .     S
C584   O616    1.275   .     A
C584   O614    1.274   .     A
C585   O617    1.285   .     A
C585   C586    1.472   .     S
C585   O615    1.283   .     A
C586   C590    1.397   .     A
C588   H611    1.083   .     S
C588   C592    1.408   .     A
C589   H603    1.085   .     S
C589   O618    1.222   .     D
C590   C591    1.408   .     A
C590   H599    1.080   .     S
C591   C592    1.420   .     A
C591   C593    1.427   .     A
C592   C29     1.401   1_556 S
C593   C27     1.424   1_556 S
C594   C595    1.414   .     A
C595   C596    1.395   .     A
C595   H600    1.077   .     S
C596   N612    1.434   .     S
H601   N612    1.046   .     S
H602   N612    1.046   .     S
H604   C703    1.088   1_455 S
H605   C641    1.086   .     S
H606   C958    1.088   1_545 S
H607   C770    1.086   .     S
O613   Zn630   1.934   .     S
O613   Zn629   1.934   .     S
O613   Zn628   1.939   .     S
O613   Zn627   1.956   .     S
O614   Zn628   1.927   .     S
O615   Zn630   1.934   .     S
O616   Zn629   1.929   .     S
O617   Zn627   1.923   .     S
O619   Zn627   1.928   .     S
O620   Zn630   1.931   .     S
O621   Zn628   1.929   .     S
O622   Zn629   1.937   .     S
O623   Zn630   1.932   .     S
O624   Zn627   1.926   .     S
O625   Zn628   1.936   .     S
O626   Zn629   1.931   .     S
C631   C641    1.438   .     S
C631   O684    1.269   .     A
C631   O686    1.269   .     A
C632   C652    1.488   .     S
C632   C633    1.398   .     A
C632   C656    1.428   .     A
C633   H673    1.085   .     S
C633   C68     1.392   1_556 S
C634   O687    1.277   .     A
C634   O685    1.280   .     A
C634   C640    1.455   .     S
C635   C637    1.404   .     A
C635   C636    1.418   .     A
C636   C657    1.425   .     A
C636   C639    1.412   .     A
C637   C638    1.391   .     A
C637   H660    1.084   .     S
C638   H672    1.083   .     S
C638   C650    1.394   .     A
C639   C650    1.394   .     A
C639   H671    1.078   .     S
C640   C704    1.334   .     S
C640   H730    1.088   .     S
C642   C649    1.400   .     A
C642   H661    1.083   .     S
C642   C651    1.392   .     A
C643   C646    1.452   .     S
C643   C833    1.332   .     S
C643   H858    1.088   .     S
C644   C645    1.436   .     S
C644   C1021   1.332   1_545 S
C644   H1048   1.086   1_545 S
C645   O682    1.275   .     A
C645   O688    1.275   .     A
C646   O683    1.271   .     A
C646   O689    1.271   .     A
C647   C650    1.454   .     S
C647   O679    1.275   .     A
C647   O677    1.274   .     A
C648   O680    1.285   .     A
C648   C649    1.472   .     S
C648   O678    1.283   .     A
C649   C653    1.397   .     A
C651   H674    1.083   .     S
C651   C655    1.408   .     A
C652   H666    1.085   .     S
C652   O681    1.222   .     D
C653   C654    1.408   .     A
C653   H662    1.080   .     S
C654   C655    1.420   .     A
C654   C656    1.427   .     A
C655   C92     1.401   1_556 S
C656   C90     1.424   1_556 S
C657   C658    1.414   .     A
C658   C659    1.395   .     A
C658   H663    1.077   .     S
C659   N675    1.434   .     S
H664   N675    1.046   .     S
H665   N675    1.046   .     S
H668   C704    1.086   .     S
H669   C1021   1.088   1_545 S
H670   C833    1.086   .     S
O676   Zn693   1.934   .     S
O676   Zn692   1.934   .     S
O676   Zn691   1.939   .     S
O676   Zn690   1.956   .     S
O677   Zn691   1.927   .     S
O678   Zn693   1.934   .     S
O679   Zn692   1.929   .     S
O680   Zn690   1.923   .     S
O682   Zn690   1.928   .     S
O683   Zn693   1.931   .     S
O684   Zn691   1.929   .     S
O685   Zn692   1.937   .     S
O686   Zn693   1.932   .     S
O687   Zn690   1.926   .     S
O688   Zn691   1.936   .     S
O689   Zn692   1.931   .     S
C694   C704    1.438   .     S
C694   O747    1.269   .     A
C694   O749    1.269   .     A
C695   C715    1.488   .     S
C695   C696    1.398   .     A
C695   C719    1.428   .     A
C696   H736    1.085   .     S
C696   C131    1.392   1_556 S
C697   O750    1.277   .     A
C697   O748    1.280   .     A
C697   C703    1.455   .     S
C698   C700    1.404   .     A
C698   C699    1.418   .     A
C699   C720    1.425   .     A
C699   C702    1.412   .     A
C700   C701    1.391   .     A
C700   H723    1.084   .     S
C701   H735    1.083   .     S
C701   C713    1.394   .     A
C702   C713    1.394   .     A
C702   H734    1.078   .     S
C703   C578    1.334   1_655 S
C703   H604    1.088   1_655 S
C705   C712    1.400   .     A
C705   H724    1.083   .     S
C705   C714    1.392   .     A
C706   C709    1.452   .     S
C706   C896    1.332   .     S
C706   H921    1.088   .     S
C707   C708    1.436   .     S
C707   C1084   1.332   1_545 S
C707   H1111   1.086   1_545 S
C708   O745    1.275   .     A
C708   O751    1.275   .     A
C709   O746    1.271   .     A
C709   O752    1.271   .     A
C710   C713    1.454   .     S
C710   O742    1.275   .     A
C710   O740    1.274   .     A
C711   O743    1.285   .     A
C711   C712    1.472   .     S
C711   O741    1.283   .     A
C712   C716    1.397   .     A
C714   H737    1.083   .     S
C714   C718    1.408   .     A
C715   H729    1.085   .     S
C715   O744    1.222   .     D
C716   C717    1.408   .     A
C716   H725    1.080   .     S
C717   C718    1.420   .     A
C717   C719    1.427   .     A
C718   C155    1.401   1_556 S
C719   C153    1.424   1_556 S
C720   C721    1.414   .     A
C721   C722    1.395   .     A
C721   H726    1.077   .     S
C722   N738    1.434   .     S
H727   N738    1.046   .     S
H728   N738    1.046   .     S
H731   C578    1.086   1_655 S
H732   C1084   1.088   1_545 S
H733   C896    1.086   .     S
O739   Zn756   1.934   .     S
O739   Zn755   1.934   .     S
O739   Zn754   1.939   .     S
O739   Zn753   1.956   .     S
O740   Zn754   1.927   .     S
O741   Zn756   1.934   .     S
O742   Zn755   1.929   .     S
O743   Zn753   1.923   .     S
O745   Zn753   1.928   .     S
O746   Zn756   1.931   .     S
O747   Zn754   1.929   .     S
O748   Zn755   1.937   .     S
O749   Zn756   1.932   .     S
O750   Zn753   1.926   .     S
O751   Zn754   1.936   .     S
O752   Zn755   1.931   .     S
C757   C767    1.438   .     S
C757   O810    1.269   .     A
C757   O812    1.269   .     A
C758   C778    1.488   .     S
C758   C759    1.398   .     A
C758   C782    1.428   .     A
C759   H799    1.085   .     S
C759   C194    1.392   1_556 S
C760   O813    1.277   .     A
C760   O811    1.280   .     A
C760   C766    1.455   .     S
C761   C763    1.404   .     A
C761   C762    1.418   .     A
C762   C783    1.425   .     A
C762   C765    1.412   .     A
C763   C764    1.391   .     A
C763   H786    1.084   .     S
C764   H798    1.083   .     S
C764   C776    1.394   .     A
C765   C776    1.394   .     A
C765   H797    1.078   .     S
C766   C830    1.334   .     S
C766   H856    1.088   .     S
C767   C892    1.334   1_455 S
C767   H920    1.086   1_455 S
C768   C775    1.400   .     A
C768   H787    1.083   .     S
C768   C777    1.392   .     A
C769   C772    1.452   .     S
C769   C959    1.332   .     S
C769   H984    1.088   .     S
C770   C771    1.436   .     S
C771   O808    1.275   .     A
C771   O814    1.275   .     A
C772   O809    1.271   .     A
C772   O815    1.271   .     A
C773   C776    1.454   .     S
C773   O805    1.275   .     A
C773   O803    1.274   .     A
C774   O806    1.285   .     A
C774   C775    1.472   .     S
C774   O804    1.283   .     A
C775   C779    1.397   .     A
C777   H800    1.083   .     S
C777   C781    1.408   .     A
C778   H792    1.085   .     S
C778   O807    1.222   .     D
C779   C780    1.408   .     A
C779   H788    1.080   .     S
C780   C781    1.420   .     A
C780   C782    1.427   .     A
C781   C218    1.401   1_556 S
C782   C216    1.424   1_556 S
C783   C784    1.414   .     A
C784   C785    1.395   .     A
C784   H789    1.077   .     S
C785   N801    1.434   .     S
H790   N801    1.046   .     S
H791   N801    1.046   .     S
H793   C892    1.088   1_455 S
H794   C830    1.086   .     S
H796   C959    1.086   .     S
O802   Zn819   1.934   .     S
O802   Zn818   1.934   .     S
O802   Zn817   1.939   .     S
O802   Zn816   1.956   .     S
O803   Zn817   1.927   .     S
O804   Zn819   1.934   .     S
O805   Zn818   1.929   .     S
O806   Zn816   1.923   .     S
O808   Zn816   1.928   .     S
O809   Zn819   1.931   .     S
O810   Zn817   1.929   .     S
O811   Zn818   1.937   .     S
O812   Zn819   1.932   .     S
O813   Zn816   1.926   .     S
O814   Zn817   1.936   .     S
O815   Zn818   1.931   .     S
C820   C830    1.438   .     S
C820   O873    1.269   .     A
C820   O875    1.269   .     A
C821   C841    1.488   .     S
C821   C822    1.398   .     A
C821   C845    1.428   .     A
C822   H862    1.085   .     S
C822   C257    1.392   1_556 S
C823   O876    1.277   .     A
C823   O874    1.280   .     A
C823   C829    1.455   .     S
C824   C826    1.404   .     A
C824   C825    1.418   .     A
C825   C846    1.425   .     A
C825   C828    1.412   .     A
C826   C827    1.391   .     A
C826   H849    1.084   .     S
C827   H861    1.083   .     S
C827   C839    1.394   .     A
C828   C839    1.394   .     A
C828   H860    1.078   .     S
C829   C893    1.334   .     S
C829   H919    1.088   .     S
C831   C838    1.400   .     A
C831   H850    1.083   .     S
C831   C840    1.392   .     A
C832   C835    1.452   .     S
C832   C1022   1.332   .     S
C832   H1047   1.088   .     S
C833   C834    1.436   .     S
C834   O871    1.275   .     A
C834   O877    1.275   .     A
C835   O872    1.271   .     A
C835   O878    1.271   .     A
C836   C839    1.454   .     S
C836   O868    1.275   .     A
C836   O866    1.274   .     A
C837   O869    1.285   .     A
C837   C838    1.472   .     S
C837   O867    1.283   .     A
C838   C842    1.397   .     A
C840   H863    1.083   .     S
C840   C844    1.408   .     A
C841   H855    1.085   .     S
C841   O870    1.222   .     D
C842   C843    1.408   .     A
C842   H851    1.080   .     S
C843   C844    1.420   .     A
C843   C845    1.427   .     A
C844   C281    1.401   1_556 S
C845   C279    1.424   1_556 S
C846   C847    1.414   .     A
C847   C848    1.395   .     A
C847   H852    1.077   .     S
C848   N864    1.434   .     S
H853   N864    1.046   .     S
H854   N864    1.046   .     S
H857   C893    1.086   .     S
H859   C1022   1.086   .     S
O865   Zn882   1.934   .     S
O865   Zn881   1.934   .     S
O865   Zn880   1.939   .     S
O865   Zn879   1.956   .     S
O866   Zn880   1.927   .     S
O867   Zn882   1.934   .     S
O868   Zn881   1.929   .     S
O869   Zn879   1.923   .     S
O871   Zn879   1.928   .     S
O872   Zn882   1.931   .     S
O873   Zn880   1.929   .     S
O874   Zn881   1.937   .     S
O875   Zn882   1.932   .     S
O876   Zn879   1.926   .     S
O877   Zn880   1.936   .     S
O878   Zn881   1.931   .     S
C883   C893    1.438   .     S
C883   O936    1.269   .     A
C883   O938    1.269   .     A
C884   C904    1.488   .     S
C884   C885    1.398   .     A
C884   C908    1.428   .     A
C885   H925    1.085   .     S
C885   C320    1.392   1_556 S
C886   O939    1.277   .     A
C886   O937    1.280   .     A
C886   C892    1.455   .     S
C887   C889    1.404   .     A
C887   C888    1.418   .     A
C888   C909    1.425   .     A
C888   C891    1.412   .     A
C889   C890    1.391   .     A
C889   H912    1.084   .     S
C890   H924    1.083   .     S
C890   C902    1.394   .     A
C891   C902    1.394   .     A
C891   H923    1.078   .     S
C892   C767    1.334   1_655 S
C892   H793    1.088   1_655 S
C894   C901    1.400   .     A
C894   H913    1.083   .     S
C894   C903    1.392   .     A
C895   C898    1.452   .     S
C895   C1085   1.332   .     S
C895   H1110   1.088   .     S
C896   C897    1.436   .     S
C897   O934    1.275   .     A
C897   O940    1.275   .     A
C898   O935    1.271   .     A
C898   O941    1.271   .     A
C899   C902    1.454   .     S
C899   O931    1.275   .     A
C899   O929    1.274   .     A
C900   O932    1.285   .     A
C900   C901    1.472   .     S
C900   O930    1.283   .     A
C901   C905    1.397   .     A
C903   H926    1.083   .     S
C903   C907    1.408   .     A
C904   H918    1.085   .     S
C904   O933    1.222   .     D
C905   C906    1.408   .     A
C905   H914    1.080   .     S
C906   C907    1.420   .     A
C906   C908    1.427   .     A
C907   C344    1.401   1_556 S
C908   C342    1.424   1_556 S
C909   C910    1.414   .     A
C910   C911    1.395   .     A
C910   H915    1.077   .     S
C911   N927    1.434   .     S
H916   N927    1.046   .     S
H917   N927    1.046   .     S
H920   C767    1.086   1_655 S
H922   C1085   1.086   .     S
O928   Zn945   1.934   .     S
O928   Zn944   1.934   .     S
O928   Zn943   1.939   .     S
O928   Zn942   1.956   .     S
O929   Zn943   1.927   .     S
O930   Zn945   1.934   .     S
O931   Zn944   1.929   .     S
O932   Zn942   1.923   .     S
O934   Zn942   1.928   .     S
O935   Zn945   1.931   .     S
O936   Zn943   1.929   .     S
O937   Zn944   1.937   .     S
O938   Zn945   1.932   .     S
O939   Zn942   1.926   .     S
O940   Zn943   1.936   .     S
O941   Zn944   1.931   .     S
C946   C956    1.438   .     S
C946   O999    1.269   .     A
C946   O1001   1.269   .     A
C947   C967    1.488   .     S
C947   C948    1.398   .     A
C947   C971    1.428   .     A
C948   H988    1.085   .     S
C948   C383    1.392   1_556 S
C949   O1002   1.277   .     A
C949   O1000   1.280   .     A
C949   C955    1.455   .     S
C950   C952    1.404   .     A
C950   C951    1.418   .     A
C951   C972    1.425   .     A
C951   C954    1.412   .     A
C952   C953    1.391   .     A
C952   H975    1.084   .     S
C953   H987    1.083   .     S
C953   C965    1.394   .     A
C954   C965    1.394   .     A
C954   H986    1.078   .     S
C955   C1019   1.334   .     S
C955   H1045   1.088   .     S
C956   C1081   1.334   1_455 S
C956   H1109   1.086   1_455 S
C957   C964    1.400   .     A
C957   H976    1.083   .     S
C957   C966    1.392   .     A
C958   C961    1.452   .     S
C958   C581    1.332   1_565 S
C958   H606    1.088   1_565 S
C959   C960    1.436   .     S
C960   O997    1.275   .     A
C960   O1003   1.275   .     A
C961   O998    1.271   .     A
C961   O1004   1.271   .     A
C962   C965    1.454   .     S
C962   O994    1.275   .     A
C962   O992    1.274   .     A
C963   O995    1.285   .     A
C963   C964    1.472   .     S
C963   O993    1.283   .     A
C964   C968    1.397   .     A
C966   H989    1.083   .     S
C966   C970    1.408   .     A
C967   H981    1.085   .     S
C967   O996    1.222   .     D
C968   C969    1.408   .     A
C968   H977    1.080   .     S
C969   C970    1.420   .     A
C969   C971    1.427   .     A
C970   C407    1.401   1_556 S
C971   C405    1.424   1_556 S
C972   C973    1.414   .     A
C973   C974    1.395   .     A
C973   H978    1.077   .     S
C974   N990    1.434   .     S
H979   N990    1.046   .     S
H980   N990    1.046   .     S
H982   C1081   1.088   1_455 S
H983   C1019   1.086   .     S
H985   C581    1.086   1_565 S
O991   Zn1008  1.934   .     S
O991   Zn1007  1.934   .     S
O991   Zn1006  1.939   .     S
O991   Zn1005  1.956   .     S
O992   Zn1006  1.927   .     S
O993   Zn1008  1.934   .     S
O994   Zn1007  1.929   .     S
O995   Zn1005  1.923   .     S
O997   Zn1005  1.928   .     S
O998   Zn1008  1.931   .     S
O999   Zn1006  1.929   .     S
O1000  Zn1007  1.937   .     S
O1001  Zn1008  1.932   .     S
O1002  Zn1005  1.926   .     S
O1003  Zn1006  1.936   .     S
O1004  Zn1007  1.931   .     S
C1009  C1019   1.438   .     S
C1009  O1062   1.269   .     A
C1009  O1064   1.269   .     A
C1010  C1030   1.488   .     S
C1010  C1011   1.398   .     A
C1010  C1034   1.428   .     A
C1011  H1051   1.085   .     S
C1011  C446    1.392   1_556 S
C1012  O1065   1.277   .     A
C1012  O1063   1.280   .     A
C1012  C1018   1.455   .     S
C1013  C1015   1.404   .     A
C1013  C1014   1.418   .     A
C1014  C1035   1.425   .     A
C1014  C1017   1.412   .     A
C1015  C1016   1.391   .     A
C1015  H1038   1.084   .     S
C1016  H1050   1.083   .     S
C1016  C1028   1.394   .     A
C1017  C1028   1.394   .     A
C1017  H1049   1.078   .     S
C1018  C1082   1.334   .     S
C1018  H1108   1.088   .     S
C1020  C1027   1.400   .     A
C1020  H1039   1.083   .     S
C1020  C1029   1.392   .     A
C1021  C1024   1.452   .     S
C1021  C644    1.332   1_565 S
C1021  H669    1.088   1_565 S
C1022  C1023   1.436   .     S
C1023  O1060   1.275   .     A
C1023  O1066   1.275   .     A
C1024  O1061   1.271   .     A
C1024  O1067   1.271   .     A
C1025  C1028   1.454   .     S
C1025  O1057   1.275   .     A
C1025  O1055   1.274   .     A
C1026  O1058   1.285   .     A
C1026  C1027   1.472   .     S
C1026  O1056   1.283   .     A
C1027  C1031   1.397   .     A
C1029  H1052   1.083   .     S
C1029  C1033   1.408   .     A
C1030  H1044   1.085   .     S
C1030  O1059   1.222   .     D
C1031  C1032   1.408   .     A
C1031  H1040   1.080   .     S
C1032  C1033   1.420   .     A
C1032  C1034   1.427   .     A
C1033  C470    1.401   1_556 S
C1034  C468    1.424   1_556 S
C1035  C1036   1.414   .     A
C1036  C1037   1.395   .     A
C1036  H1041   1.077   .     S
C1037  N1053   1.434   .     S
H1042  N1053   1.046   .     S
H1043  N1053   1.046   .     S
H1046  C1082   1.086   .     S
H1048  C644    1.086   1_565 S
O1054  Zn1071  1.934   .     S
O1054  Zn1070  1.934   .     S
O1054  Zn1069  1.939   .     S
O1054  Zn1068  1.956   .     S
O1055  Zn1069  1.927   .     S
O1056  Zn1071  1.934   .     S
O1057  Zn1070  1.929   .     S
O1058  Zn1068  1.923   .     S
O1060  Zn1068  1.928   .     S
O1061  Zn1071  1.931   .     S
O1062  Zn1069  1.929   .     S
O1063  Zn1070  1.937   .     S
O1064  Zn1071  1.932   .     S
O1065  Zn1068  1.926   .     S
O1066  Zn1069  1.936   .     S
O1067  Zn1070  1.931   .     S
C1072  C1082   1.438   .     S
C1072  O1125   1.269   .     A
C1072  O1127   1.269   .     A
C1073  C1093   1.488   .     S
C1073  C1074   1.398   .     A
C1073  C1097   1.428   .     A
C1074  H1114   1.085   .     S
C1074  C509    1.392   1_556 S
C1075  O1128   1.277   .     A
C1075  O1126   1.280   .     A
C1075  C1081   1.455   .     S
C1076  C1078   1.404   .     A
C1076  C1077   1.418   .     A
C1077  C1098   1.425   .     A
C1077  C1080   1.412   .     A
C1078  C1079   1.391   .     A
C1078  H1101   1.084   .     S
C1079  H1113   1.083   .     S
C1079  C1091   1.394   .     A
C1080  C1091   1.394   .     A
C1080  H1112   1.078   .     S
C1081  C956    1.334   1_655 S
C1081  H982    1.088   1_655 S
C1083  C1090   1.400   .     A
C1083  H1102   1.083   .     S
C1083  C1092   1.392   .     A
C1084  C1087   1.452   .     S
C1084  C707    1.332   1_565 S
C1084  H732    1.088   1_565 S
C1085  C1086   1.436   .     S
C1086  O1123   1.275   .     A
C1086  O1129   1.275   .     A
C1087  O1124   1.271   .     A
C1087  O1130   1.271   .     A
C1088  C1091   1.454   .     S
C1088  O1120   1.275   .     A
C1088  O1118   1.274   .     A
C1089  O1121   1.285   .     A
C1089  C1090   1.472   .     S
C1089  O1119   1.283   .     A
C1090  C1094   1.397   .     A
C1092  H1115   1.083   .     S
C1092  C1096   1.408   .     A
C1093  H1107   1.085   .     S
C1093  O1122   1.222   .     D
C1094  C1095   1.408   .     A
C1094  H1103   1.080   .     S
C1095  C1096   1.420   .     A
C1095  C1097   1.427   .     A
C1096  C533    1.401   1_556 S
C1097  C531    1.424   1_556 S
C1098  C1099   1.414   .     A
C1099  C1100   1.395   .     A
C1099  H1104   1.077   .     S
C1100  N1116   1.434   .     S
H1105  N1116   1.046   .     S
H1106  N1116   1.046   .     S
H1109  C956    1.086   1_655 S
H1111  C707    1.086   1_565 S
O1117  Zn1134  1.934   .     S
O1117  Zn1133  1.934   .     S
O1117  Zn1132  1.939   .     S
O1117  Zn1131  1.956   .     S
O1118  Zn1132  1.927   .     S
O1119  Zn1134  1.934   .     S
O1120  Zn1133  1.929   .     S
O1121  Zn1131  1.923   .     S
O1123  Zn1131  1.928   .     S
O1124  Zn1134  1.931   .     S
O1125  Zn1132  1.929   .     S
O1126  Zn1133  1.937   .     S
O1127  Zn1134  1.932   .     S
O1128  Zn1131  1.926   .     S
O1129  Zn1132  1.936   .     S
O1130  Zn1133  1.931   .     S
