data_str_m1_o2_o5_pcu_sym.35
_audit_creation_date              2020-01-03
_audit_creation_method            'Materials Studio'
_symmetry_space_group_name_H-M    'P1'
_symmetry_Int_Tables_number       1
_symmetry_cell_setting            triclinic
loop_
_symmetry_equiv_pos_as_xyz
  x,y,z
_cell_length_a                    24.4229
_cell_length_b                    24.4229
_cell_length_c                    22.3687
_cell_angle_alpha                 90.0001
_cell_angle_beta                  90.0001
_cell_angle_gamma                 89.9998
loop_
_atom_site_label
_atom_site_type_symbol
_atom_site_fract_x
_atom_site_fract_y
_atom_site_fract_z
_atom_site_U_iso_or_equiv
_atom_site_adp_type
_atom_site_occupancy
C1     C     0.22874   0.27126   0.25000   0.00000  Uiso   1.00
C2     C     0.22895   0.72893   0.24999   0.00000  Uiso   1.00
C3     C     0.17826   0.65859   0.30255   0.00000  Uiso   1.00
C4     C     0.36662   0.20308   0.74001   0.00000  Uiso   1.00
C5     C     0.65860   0.82175   0.30256   0.00000  Uiso   1.00
C6     C     0.20308   0.63337   0.74006   0.00000  Uiso   1.00
C7     C     0.82175   0.34140   0.30256   0.00000  Uiso   1.00
C8     C     0.36662   0.79692   0.26000   0.00000  Uiso   1.00
C9     C     0.65860   0.17825   0.69744   0.00000  Uiso   1.00
C10    C     0.20308   0.36663   0.25993   0.00000  Uiso   1.00
C11    C     0.82174   0.65859   0.69745   0.00000  Uiso   1.00
C12    C     0.63339   0.20307   0.26001   0.00000  Uiso   1.00
C13    C     0.72874   0.77126   0.75000   0.00000  Uiso   1.00
C14    C     0.34140   0.82175   0.69744   0.00000  Uiso   1.00
C15    C     0.79691   0.63337   0.25991   0.00000  Uiso   1.00
C16    C     0.17826   0.34141   0.69745   0.00000  Uiso   1.00
C17    C     0.14768   0.35232   0.25000   0.00000  Uiso   1.00
C18    C     0.85218   0.64782   0.75000   0.00000  Uiso   1.00
C19    C     0.35232   0.85232   0.25000   0.00000  Uiso   1.00
C20    C     0.64782   0.14782   0.75000   0.00000  Uiso   1.00
C21    C     0.85232   0.64768   0.25000   0.00000  Uiso   1.00
C22    C     0.14782   0.35218   0.75000   0.00000  Uiso   1.00
C23    C     0.64768   0.14768   0.25000   0.00000  Uiso   1.00
C24    C     0.27106   0.22894   0.25000   0.00000  Uiso   1.00
C25    C     0.35218   0.85218   0.75000   0.00000  Uiso   1.00
C26    C     0.85232   0.35232   0.75000   0.00000  Uiso   1.00
C27    C     0.14782   0.64782   0.24999   0.00000  Uiso   1.00
C28    C     0.64768   0.85232   0.75000   0.00000  Uiso   1.00
C29    C     0.35218   0.14782   0.25000   0.00000  Uiso   1.00
C30    C     0.14768   0.64768   0.75000   0.00000  Uiso   1.00
C31    C     0.85218   0.35218   0.25000   0.00000  Uiso   1.00
C32    C     0.35232   0.14768   0.75000   0.00000  Uiso   1.00
C33    C     0.64782   0.85218   0.25000   0.00000  Uiso   1.00
C34    C     0.05071   0.27809   0.28440   0.00000  Uiso   1.00
C35    C     0.22874   0.72874   0.75000   0.00000  Uiso   1.00
C36    C     0.05374   0.22013   0.31033   0.00000  Uiso   1.00
C37    C     0.01814   0.21478   0.36609   0.00000  Uiso   1.00
C38    C     0.84787   0.62461   0.88648   0.00000  Uiso   1.00
C39    C     0.80929   0.64512   0.93559   0.00000  Uiso   1.00
C40    C     0.79030   0.59835   0.97586   0.00000  Uiso   1.00
C41    C     0.27804   0.94930   0.28422   0.00000  Uiso   1.00
C42    C     0.22002   0.94638   0.31000   0.00000  Uiso   1.00
C43    C     0.21462   0.98199   0.36575   0.00000  Uiso   1.00
C44    C     0.62455   0.15215   0.88646   0.00000  Uiso   1.00
C45    C     0.64503   0.19074   0.93558   0.00000  Uiso   1.00
C46    C     0.77107   0.27105   0.25001   0.00000  Uiso   1.00
C47    C     0.59822   0.20973   0.97580   0.00000  Uiso   1.00
C48    C     0.94928   0.72191   0.28445   0.00000  Uiso   1.00
C49    C     0.94612   0.77982   0.31049   0.00000  Uiso   1.00
C50    C     0.98175   0.78518   0.36623   0.00000  Uiso   1.00
C51    C     0.15213   0.37540   0.88648   0.00000  Uiso   1.00
C52    C     0.19069   0.35488   0.93561   0.00000  Uiso   1.00
C53    C     0.20968   0.40166   0.97587   0.00000  Uiso   1.00
C54    C     0.72195   0.05068   0.28422   0.00000  Uiso   1.00
C55    C     0.77997   0.05360   0.31001   0.00000  Uiso   1.00
C56    C     0.78537   0.01799   0.36576   0.00000  Uiso   1.00
C57    C     0.27126   0.22874   0.75000   0.00000  Uiso   1.00
C58    C     0.37545   0.84786   0.88647   0.00000  Uiso   1.00
C59    C     0.35497   0.80926   0.93558   0.00000  Uiso   1.00
C60    C     0.40178   0.79029   0.97581   0.00000  Uiso   1.00
C61    C     0.94929   0.27809   0.71562   0.00000  Uiso   1.00
C62    C     0.94630   0.22012   0.68972   0.00000  Uiso   1.00
C63    C     0.98190   0.21477   0.63395   0.00000  Uiso   1.00
C64    C     0.15214   0.62458   0.11351   0.00000  Uiso   1.00
C65    C     0.19068   0.64509   0.06436   0.00000  Uiso   1.00
C66    C     0.20967   0.59830   0.02412   0.00000  Uiso   1.00
C67    C     0.72195   0.94931   0.71575   0.00000  Uiso   1.00
C68    C     0.72894   0.77106   0.25000   0.00000  Uiso   1.00
C69    C     0.77996   0.94639   0.68995   0.00000  Uiso   1.00
C70    C     0.78534   0.98199   0.63419   0.00000  Uiso   1.00
C71    C     0.37546   0.15216   0.11354   0.00000  Uiso   1.00
C72    C     0.35499   0.19078   0.06444   0.00000  Uiso   1.00
C73    C     0.40180   0.20976   0.02423   0.00000  Uiso   1.00
C74    C     0.05071   0.72191   0.71562   0.00000  Uiso   1.00
C75    C     0.05372   0.77988   0.68971   0.00000  Uiso   1.00
C76    C     0.01812   0.78523   0.63394   0.00000  Uiso   1.00
C77    C     0.84784   0.37540   0.11352   0.00000  Uiso   1.00
C78    C     0.80935   0.35486   0.06433   0.00000  Uiso   1.00
C79    C    -0.00000   0.50000   0.47329   0.00000  Uiso   1.00
C80    C     0.79031   0.40165   0.02412   0.00000  Uiso   1.00
C81    C     0.27805   0.05069   0.71574   0.00000  Uiso   1.00
C82    C     0.22006   0.05368   0.68989   0.00000  Uiso   1.00
C83    C     0.21467   0.01806   0.63414   0.00000  Uiso   1.00
C84    C     0.62456   0.84786   0.11354   0.00000  Uiso   1.00
C85    C     0.64503   0.80923   0.06445   0.00000  Uiso   1.00
C86    C     0.59823   0.79025   0.02422   0.00000  Uiso   1.00
C87    C     0.55069   0.77805   0.78425   0.00000  Uiso   1.00
C88    C     0.55361   0.72004   0.81005   0.00000  Uiso   1.00
C89    C     0.51801   0.71466   0.86581   0.00000  Uiso   1.00
C90    C    -0.00000   0.50000   0.52670   0.00000  Uiso   1.00
C91    C     0.34784   0.12454   0.38646   0.00000  Uiso   1.00
C92    C     0.30922   0.14501   0.43556   0.00000  Uiso   1.00
C93    C     0.29024   0.09820   0.47577   0.00000  Uiso   1.00
C94    C     0.77808   0.44929   0.78438   0.00000  Uiso   1.00
C95    C     0.72012   0.44628   0.81029   0.00000  Uiso   1.00
C96    C     0.71477   0.48188   0.86606   0.00000  Uiso   1.00
C97    C     0.12460   0.65216   0.38648   0.00000  Uiso   1.00
C98    C     0.14514   0.69065   0.43566   0.00000  Uiso   1.00
C99    C     0.09835   0.70969   0.47588   0.00000  Uiso   1.00
C100   C     0.44931   0.22195   0.78426   0.00000  Uiso   1.00
C101   C     0.50000   0.00000   0.47330   0.00000  Uiso   1.00
C102   C     0.44632   0.27994   0.81011   0.00000  Uiso   1.00
C103   C     0.48194   0.28533   0.86586   0.00000  Uiso   1.00
C104   C     0.65214   0.87544   0.38646   0.00000  Uiso   1.00
C105   C     0.69077   0.85497   0.43555   0.00000  Uiso   1.00
C106   C     0.70974   0.90177   0.47578   0.00000  Uiso   1.00
C107   C     0.22191   0.55071   0.78438   0.00000  Uiso   1.00
C108   C     0.27988   0.55370   0.81028   0.00000  Uiso   1.00
C109   C     0.28523   0.51810   0.86605   0.00000  Uiso   1.00
C110   C     0.87542   0.34786   0.38648   0.00000  Uiso   1.00
C111   C     0.85491   0.30932   0.43563   0.00000  Uiso   1.00
C112   C     0.77106   0.72894   0.75000   0.00000  Uiso   1.00
C113   C     0.50000  -0.00000   0.52670   0.00000  Uiso   1.00
C114   C     0.90170   0.29033   0.47587   0.00000  Uiso   1.00
C115   C     0.44932   0.77804   0.21578   0.00000  Uiso   1.00
C116   C     0.44640   0.72003   0.18998   0.00000  Uiso   1.00
C117   C     0.48201   0.71463   0.13424   0.00000  Uiso   1.00
C118   C     0.65214   0.12455   0.61353   0.00000  Uiso   1.00
C119   C     0.69074   0.14503   0.56442   0.00000  Uiso   1.00
C120   C     0.70971   0.09822   0.52419   0.00000  Uiso   1.00
C121   C     0.22191   0.44929   0.21560   0.00000  Uiso   1.00
C122   C     0.27987   0.44626   0.18967   0.00000  Uiso   1.00
C123   C     0.28522   0.48186   0.13391   0.00000  Uiso   1.00
C124   C     0.50000  -0.00000   0.97329   0.00000  Uiso   1.00
C125   C     0.87539   0.65213   0.61351   0.00000  Uiso   1.00
C126   C     0.85487   0.69071   0.56441   0.00000  Uiso   1.00
C127   C     0.90165   0.70969   0.52414   0.00000  Uiso   1.00
C128   C     0.55069   0.22196   0.21578   0.00000  Uiso   1.00
C129   C     0.55362   0.27998   0.19000   0.00000  Uiso   1.00
C130   C     0.51801   0.28538   0.13425   0.00000  Uiso   1.00
C131   C     0.34785   0.87545   0.61354   0.00000  Uiso   1.00
C132   C     0.30926   0.85497   0.56442   0.00000  Uiso   1.00
C133   C     0.29027   0.90178   0.52420   0.00000  Uiso   1.00
C134   C     0.77809   0.55072   0.21555   0.00000  Uiso   1.00
C135   C     0.50000  -0.00000   0.02670   0.00000  Uiso   1.00
C136   C     0.72018   0.55388   0.18951   0.00000  Uiso   1.00
C137   C     0.71482   0.51825   0.13377   0.00000  Uiso   1.00
C138   C     0.12460   0.34787   0.61352   0.00000  Uiso   1.00
C139   C     0.14512   0.30931   0.56439   0.00000  Uiso   1.00
C140   C     0.09834   0.29032   0.52414   0.00000  Uiso   1.00
C141   C     0.00000   0.50000   0.97330   0.00000  Uiso   1.00
C142   C    -0.00000   0.50000   0.02670   0.00000  Uiso   1.00
C143   C    -0.00000   0.50000   0.09002   0.00000  Uiso   1.00
C144   C    -0.00000   0.50000   0.90998   0.00000  Uiso   1.00
C145   C     0.50000  -0.00000   0.09002   0.00000  Uiso   1.00
C146   C     0.50000   0.00000   0.90998   0.00000  Uiso   1.00
C147   C     0.50000  -0.00000   0.59002   0.00000  Uiso   1.00
C148   C     0.27127   0.77125   0.24999   0.00000  Uiso   1.00
C149   C     0.50000   0.00000   0.40998   0.00000  Uiso   1.00
C150   C    -0.00000   0.50000   0.59002   0.00000  Uiso   1.00
C151   C    -0.00000   0.50000   0.40998   0.00000  Uiso   1.00
C152   C     0.10527   0.60527   0.25000   0.00000  Uiso   1.00
C153   C     0.89479   0.39479   0.75000   0.00000  Uiso   1.00
C154   C     0.60527   0.89473   0.25000   0.00000  Uiso   1.00
C155   C     0.39479   0.10521   0.75000   0.00000  Uiso   1.00
C156   C     0.89473   0.39473   0.25000   0.00000  Uiso   1.00
C157   C     0.10521   0.60521   0.75000   0.00000  Uiso   1.00
C158   C     0.39473   0.10527   0.25000   0.00000  Uiso   1.00
C159   C     0.72894   0.22894   0.75000   0.00000  Uiso   1.00
C160   C     0.60521   0.89479   0.75000   0.00000  Uiso   1.00
C161   C     0.89473   0.60527   0.75000   0.00000  Uiso   1.00
C162   C     0.10521   0.39479   0.25000   0.00000  Uiso   1.00
C163   C     0.39473   0.89473   0.75000   0.00000  Uiso   1.00
C164   C     0.60521   0.10521   0.25000   0.00000  Uiso   1.00
C165   C     0.10527   0.39473   0.75000   0.00000  Uiso   1.00
C166   C     0.89479   0.60521   0.25000   0.00000  Uiso   1.00
C167   C     0.60527   0.10527   0.75000   0.00000  Uiso   1.00
C168   C     0.39479   0.89479   0.25000   0.00000  Uiso   1.00
C169   C     0.17436   0.25722   0.23801   0.00000  Uiso   1.00
C170   C     0.77126   0.72874   0.25000   0.00000  Uiso   1.00
C171   C     0.80223   0.71978   0.80141   0.00000  Uiso   1.00
C172   C     0.25723   0.82562   0.23793   0.00000  Uiso   1.00
C173   C     0.71977   0.19778   0.80142   0.00000  Uiso   1.00
C174   C     0.82564   0.74278   0.23803   0.00000  Uiso   1.00
C175   C     0.19777   0.28022   0.80142   0.00000  Uiso   1.00
C176   C     0.74277   0.17437   0.23795   0.00000  Uiso   1.00
C177   C     0.28024   0.80221   0.80143   0.00000  Uiso   1.00
C178   C     0.82564   0.25722   0.76200   0.00000  Uiso   1.00
C179   C     0.19778   0.71976   0.19857   0.00000  Uiso   1.00
C180   C     0.74277   0.82563   0.76205   0.00000  Uiso   1.00
C181   C     0.22894   0.27106   0.75000   0.00000  Uiso   1.00
C182   C     0.28024   0.19779   0.19858   0.00000  Uiso   1.00
C183   C     0.17437   0.74278   0.76200   0.00000  Uiso   1.00
C184   C     0.80223   0.28022   0.19859   0.00000  Uiso   1.00
C185   C     0.25723   0.17437   0.76205   0.00000  Uiso   1.00
C186   C     0.71977   0.80222   0.19858   0.00000  Uiso   1.00
C187   C     0.67437   0.75723   0.73795   0.00000  Uiso   1.00
C188   C     0.30221   0.21976   0.30142   0.00000  Uiso   1.00
C189   C     0.75722   0.32563   0.73800   0.00000  Uiso   1.00
C190   C     0.21978   0.69777   0.30141   0.00000  Uiso   1.00
C191   C     0.32563   0.24277   0.73795   0.00000  Uiso   1.00
C192   C     0.72875   0.22873   0.25001   0.00000  Uiso   1.00
C193   C     0.69778   0.78023   0.30142   0.00000  Uiso   1.00
C194   C     0.24278   0.67436   0.73801   0.00000  Uiso   1.00
C195   C     0.78024   0.30222   0.30143   0.00000  Uiso   1.00
C196   C     0.32563   0.75723   0.26205   0.00000  Uiso   1.00
C197   C     0.69779   0.21976   0.69857   0.00000  Uiso   1.00
C198   C     0.24278   0.32564   0.26199   0.00000  Uiso   1.00
C199   C     0.78022   0.69777   0.69858   0.00000  Uiso   1.00
C200   C     0.67438   0.24276   0.26207   0.00000  Uiso   1.00
C201   C     0.30221   0.78023   0.69858   0.00000  Uiso   1.00
C202   C     0.75722   0.67436   0.26197   0.00000  Uiso   1.00
C203   C     0.27106   0.77106   0.75000   0.00000  Uiso   1.00
C204   C     0.21978   0.30223   0.69858   0.00000  Uiso   1.00
C205   C     0.13337   0.29692   0.24007   0.00000  Uiso   1.00
C206   C     0.84141   0.67826   0.80255   0.00000  Uiso   1.00
C207   C     0.29693   0.86661   0.23999   0.00000  Uiso   1.00
C208   C     0.67825   0.15860   0.80256   0.00000  Uiso   1.00
C209   C     0.86663   0.70308   0.24009   0.00000  Uiso   1.00
C210   C     0.15859   0.32174   0.80255   0.00000  Uiso   1.00
C211   C     0.70308   0.13338   0.24000   0.00000  Uiso   1.00
C212   C     0.32175   0.84139   0.80256   0.00000  Uiso   1.00
C213   C     0.86663   0.29692   0.75994   0.00000  Uiso   1.00
C214   C     0.77126   0.27126   0.75000   0.00000  Uiso   1.00
C215   C     0.15860   0.67825   0.19744   0.00000  Uiso   1.00
C216   C     0.70308   0.86662   0.75999   0.00000  Uiso   1.00
C217   C     0.32175   0.15861   0.19744   0.00000  Uiso   1.00
C218   C     0.13337   0.70308   0.75994   0.00000  Uiso   1.00
C219   C     0.84141   0.32174   0.19745   0.00000  Uiso   1.00
C220   C     0.29692   0.13338   0.75999   0.00000  Uiso   1.00
C221   C     0.67825   0.84140   0.19744   0.00000  Uiso   1.00
C222   C     0.63338   0.79692   0.74000   0.00000  Uiso   1.00
C223   C     0.34139   0.17825   0.30256   0.00000  Uiso   1.00
C224   C     0.79692   0.36663   0.74006   0.00000  Uiso   1.00
H1     H     0.16348   0.21502   0.22888   0.00000  Uiso   1.00
H2     H     0.20497   0.74389   0.15868   0.00000  Uiso   1.00
H3     H     0.23197   0.56706   0.05069   0.00000  Uiso   1.00
H4     H     0.23765   0.61449   0.98921   0.00000  Uiso   1.00
H5     H     0.17405   0.57875   0.00179   0.00000  Uiso   1.00
H6     H     0.71200   0.99284   0.72535   0.00000  Uiso   1.00
H7     H     0.69165   0.93533   0.68163   0.00000  Uiso   1.00
H8     H     0.80983   0.96054   0.72410   0.00000  Uiso   1.00
H9     H     0.78985   0.90337   0.67796   0.00000  Uiso   1.00
H10    H     0.75617   0.96817   0.59919   0.00000  Uiso   1.00
H11    H     0.82760   0.97876   0.61623   0.00000  Uiso   1.00
H12    H     0.77699   0.02553   0.64531   0.00000  Uiso   1.00
H13    H     0.78496   0.83651   0.77122   0.00000  Uiso   1.00
H14    H     0.39785   0.11768   0.09224   0.00000  Uiso   1.00
H15    H     0.40581   0.17376   0.14256   0.00000  Uiso   1.00
H16    H     0.32392   0.16933   0.03669   0.00000  Uiso   1.00
H17    H     0.33542   0.22719   0.08517   0.00000  Uiso   1.00
H18    H     0.43308   0.23197   0.05082   0.00000  Uiso   1.00
H19    H     0.38565   0.23781   0.98936   0.00000  Uiso   1.00
H20    H     0.42130   0.17414   0.00183   0.00000  Uiso   1.00
H21    H     0.00716   0.71204   0.72522   0.00000  Uiso   1.00
H22    H     0.06467   0.69155   0.68157   0.00000  Uiso   1.00
H23    H     0.03960   0.80983   0.72381   0.00000  Uiso   1.00
H24    H     0.25611   0.20499   0.15868   0.00000  Uiso   1.00
H25    H     0.09675   0.78970   0.67770   0.00000  Uiso   1.00
H26    H     0.03189   0.75598   0.59900   0.00000  Uiso   1.00
H27    H     0.02141   0.82746   0.61591   0.00000  Uiso   1.00
H28    H     0.97456   0.77697   0.64509   0.00000  Uiso   1.00
H29    H     0.88231   0.39787   0.09230   0.00000  Uiso   1.00
H30    H     0.82612   0.40571   0.14250   0.00000  Uiso   1.00
H31    H     0.83092   0.32386   0.03660   0.00000  Uiso   1.00
H32    H     0.77296   0.33517   0.08497   0.00000  Uiso   1.00
H33    H     0.76794   0.43284   0.05069   0.00000  Uiso   1.00
H34    H     0.76238   0.38544   0.98917   0.00000  Uiso   1.00
H35    H     0.16348   0.78498   0.77113   0.00000  Uiso   1.00
H36    H     0.82591   0.42127   0.00183   0.00000  Uiso   1.00
H37    H     0.28794   0.00715   0.72535   0.00000  Uiso   1.00
H38    H     0.30839   0.06464   0.68165   0.00000  Uiso   1.00
H39    H     0.19015   0.03958   0.72403   0.00000  Uiso   1.00
H40    H     0.21023   0.09671   0.67787   0.00000  Uiso   1.00
H41    H     0.24389   0.03183   0.59916   0.00000  Uiso   1.00
H42    H     0.17243   0.02134   0.61615   0.00000  Uiso   1.00
H43    H     0.22295   0.97451   0.64530   0.00000  Uiso   1.00
H44    H     0.60217   0.88233   0.09223   0.00000  Uiso   1.00
H45    H     0.59419   0.82626   0.14255   0.00000  Uiso   1.00
H46    H     0.79504   0.25609   0.15870   0.00000  Uiso   1.00
H47    H     0.67612   0.83067   0.03670   0.00000  Uiso   1.00
H48    H     0.66460   0.77281   0.08517   0.00000  Uiso   1.00
H49    H     0.56694   0.76805   0.05080   0.00000  Uiso   1.00
H50    H     0.61438   0.76220   0.98936   0.00000  Uiso   1.00
H51    H     0.57875   0.82587   0.00182   0.00000  Uiso   1.00
H52    H     0.50716   0.78800   0.77464   0.00000  Uiso   1.00
H53    H     0.56467   0.80835   0.81837   0.00000  Uiso   1.00
H54    H     0.53946   0.69017   0.77590   0.00000  Uiso   1.00
H55    H     0.59663   0.71015   0.82204   0.00000  Uiso   1.00
H56    H     0.53183   0.74383   0.90081   0.00000  Uiso   1.00
H57    H     0.21503   0.16349   0.77122   0.00000  Uiso   1.00
H58    H     0.52124   0.67240   0.88377   0.00000  Uiso   1.00
H59    H     0.47447   0.72301   0.85469   0.00000  Uiso   1.00
H60    H     0.38232   0.10215   0.40776   0.00000  Uiso   1.00
H61    H     0.32624   0.09418   0.35744   0.00000  Uiso   1.00
H62    H     0.33067   0.17608   0.46331   0.00000  Uiso   1.00
H63    H     0.27281   0.16458   0.41483   0.00000  Uiso   1.00
H64    H     0.26802   0.06692   0.44918   0.00000  Uiso   1.00
H65    H     0.26219   0.11435   0.51064   0.00000  Uiso   1.00
H66    H     0.32586   0.07870   0.49817   0.00000  Uiso   1.00
H67    H     0.78796   0.49283   0.77478   0.00000  Uiso   1.00
H68    H     0.74390   0.79502   0.15868   0.00000  Uiso   1.00
H69    H     0.80845   0.43533   0.81843   0.00000  Uiso   1.00
H70    H     0.69017   0.46040   0.77619   0.00000  Uiso   1.00
H71    H     0.71030   0.40325   0.82230   0.00000  Uiso   1.00
H72    H     0.74402   0.46811   0.90100   0.00000  Uiso   1.00
H73    H     0.67254   0.47859   0.88409   0.00000  Uiso   1.00
H74    H     0.72303   0.52544   0.85491   0.00000  Uiso   1.00
H75    H     0.10213   0.61769   0.40769   0.00000  Uiso   1.00
H76    H     0.09429   0.67388   0.35750   0.00000  Uiso   1.00
H77    H     0.17613   0.66907   0.46340   0.00000  Uiso   1.00
H78    H     0.16482   0.72704   0.41503   0.00000  Uiso   1.00
H79    H     0.66349   0.71503   0.72878   0.00000  Uiso   1.00
H80    H     0.06716   0.73206   0.44931   0.00000  Uiso   1.00
H81    H     0.11456   0.73762   0.51083   0.00000  Uiso   1.00
H82    H     0.07873   0.67409   0.49817   0.00000  Uiso   1.00
H83    H     0.49285   0.21206   0.77465   0.00000  Uiso   1.00
H84    H     0.43536   0.19161   0.81835   0.00000  Uiso   1.00
H85    H     0.46042   0.30985   0.77597   0.00000  Uiso   1.00
H86    H     0.40329   0.28977   0.82213   0.00000  Uiso   1.00
H87    H     0.46817   0.25611   0.90084   0.00000  Uiso   1.00
H88    H     0.47866   0.32757   0.88385   0.00000  Uiso   1.00
H89    H     0.52549   0.27705   0.85470   0.00000  Uiso   1.00
H90    H     0.29501   0.24389   0.34132   0.00000  Uiso   1.00
H91    H     0.61766   0.89783   0.40777   0.00000  Uiso   1.00
H92    H     0.67374   0.90580   0.35745   0.00000  Uiso   1.00
H93    H     0.66933   0.82388   0.46330   0.00000  Uiso   1.00
H94    H     0.72718   0.83540   0.41483   0.00000  Uiso   1.00
H95    H     0.73195   0.93306   0.44920   0.00000  Uiso   1.00
H96    H     0.73780   0.88562   0.51064   0.00000  Uiso   1.00
H97    H     0.67412   0.92125   0.49818   0.00000  Uiso   1.00
H98    H     0.21203   0.50716   0.77478   0.00000  Uiso   1.00
H99    H     0.19155   0.56467   0.81844   0.00000  Uiso   1.00
H100   H     0.30982   0.53958   0.77618   0.00000  Uiso   1.00
H101   H     0.71502   0.33652   0.72887   0.00000  Uiso   1.00
H102   H     0.28971   0.59673   0.82229   0.00000  Uiso   1.00
H103   H     0.25598   0.53188   0.90100   0.00000  Uiso   1.00
H104   H     0.32746   0.52139   0.88408   0.00000  Uiso   1.00
H105   H     0.27696   0.47455   0.85490   0.00000  Uiso   1.00
H106   H     0.89785   0.38234   0.40773   0.00000  Uiso   1.00
H107   H     0.90575   0.32619   0.35750   0.00000  Uiso   1.00
H108   H     0.82386   0.33084   0.46336   0.00000  Uiso   1.00
H109   H     0.83529   0.27291   0.41496   0.00000  Uiso   1.00
H110   H     0.93294   0.26803   0.44931   0.00000  Uiso   1.00
H111   H     0.88551   0.26235   0.51079   0.00000  Uiso   1.00
H112   H     0.79504   0.74391   0.84130   0.00000  Uiso   1.00
H113   H     0.24391   0.70496   0.34130   0.00000  Uiso   1.00
H114   H     0.92124   0.32595   0.49821   0.00000  Uiso   1.00
H115   H     0.49285   0.78798   0.22539   0.00000  Uiso   1.00
H116   H     0.43535   0.80834   0.18165   0.00000  Uiso   1.00
H117   H     0.46054   0.69016   0.22415   0.00000  Uiso   1.00
H118   H     0.40338   0.71014   0.17798   0.00000  Uiso   1.00
H119   H     0.46820   0.74380   0.09922   0.00000  Uiso   1.00
H120   H     0.47879   0.67237   0.11629   0.00000  Uiso   1.00
H121   H     0.52555   0.72299   0.14537   0.00000  Uiso   1.00
H122   H     0.61766   0.10215   0.59225   0.00000  Uiso   1.00
H123   H     0.67376   0.09420   0.64255   0.00000  Uiso   1.00
H124   H     0.33651   0.28496   0.72878   0.00000  Uiso   1.00
H125   H     0.66928   0.17610   0.53667   0.00000  Uiso   1.00
H126   H     0.72716   0.16461   0.58512   0.00000  Uiso   1.00
H127   H     0.73194   0.06694   0.55077   0.00000  Uiso   1.00
H128   H     0.73775   0.11438   0.48931   0.00000  Uiso   1.00
H129   H     0.67409   0.07872   0.50181   0.00000  Uiso   1.00
H130   H     0.21205   0.49284   0.22520   0.00000  Uiso   1.00
H131   H     0.19153   0.43533   0.18156   0.00000  Uiso   1.00
H132   H     0.30983   0.46036   0.22376   0.00000  Uiso   1.00
H133   H     0.28966   0.40322   0.17765   0.00000  Uiso   1.00
H134   H     0.25595   0.46811   0.09897   0.00000  Uiso   1.00
H135   H     0.70498   0.75610   0.34131   0.00000  Uiso   1.00
H136   H     0.32743   0.47855   0.11585   0.00000  Uiso   1.00
H137   H     0.27698   0.52542   0.14506   0.00000  Uiso   1.00
H138   H     0.89779   0.61765   0.59222   0.00000  Uiso   1.00
H139   H     0.90575   0.67376   0.64250   0.00000  Uiso   1.00
H140   H     0.82380   0.66923   0.53669   0.00000  Uiso   1.00
H141   H     0.83529   0.72713   0.58512   0.00000  Uiso   1.00
H142   H     0.93293   0.73195   0.55070   0.00000  Uiso   1.00
H143   H     0.88546   0.73771   0.48926   0.00000  Uiso   1.00
H144   H     0.92115   0.67407   0.50176   0.00000  Uiso   1.00
H145   H     0.50716   0.21202   0.22539   0.00000  Uiso   1.00
H146   H     0.28498   0.66347   0.72887   0.00000  Uiso   1.00
H147   H     0.56467   0.19167   0.18165   0.00000  Uiso   1.00
H148   H     0.53947   0.30984   0.22416   0.00000  Uiso   1.00
H149   H     0.59664   0.28987   0.17800   0.00000  Uiso   1.00
H150   H     0.53183   0.25622   0.09923   0.00000  Uiso   1.00
H151   H     0.52124   0.32765   0.11631   0.00000  Uiso   1.00
H152   H     0.47447   0.27703   0.14537   0.00000  Uiso   1.00
H153   H     0.38233   0.89785   0.59226   0.00000  Uiso   1.00
H154   H     0.32622   0.90579   0.64255   0.00000  Uiso   1.00
H155   H     0.33073   0.82391   0.53667   0.00000  Uiso   1.00
H156   H     0.27284   0.83537   0.58512   0.00000  Uiso   1.00
H157   H     0.75611   0.29503   0.34132   0.00000  Uiso   1.00
H158   H     0.26802   0.93304   0.55079   0.00000  Uiso   1.00
H159   H     0.26224   0.88562   0.48932   0.00000  Uiso   1.00
H160   H     0.32589   0.92129   0.50183   0.00000  Uiso   1.00
H161   H     0.78783   0.50715   0.22516   0.00000  Uiso   1.00
H162   H     0.80856   0.56461   0.18157   0.00000  Uiso   1.00
H163   H     0.69013   0.53990   0.22356   0.00000  Uiso   1.00
H164   H     0.71053   0.59694   0.17742   0.00000  Uiso   1.00
H165   H     0.74420   0.53187   0.09889   0.00000  Uiso   1.00
H166   H     0.67265   0.52168   0.11562   0.00000  Uiso   1.00
H167   H     0.72290   0.47467   0.14499   0.00000  Uiso   1.00
H168   H     0.33651   0.71503   0.27123   0.00000  Uiso   1.00
H169   H     0.10219   0.38235   0.59224   0.00000  Uiso   1.00
H170   H     0.09425   0.32622   0.64250   0.00000  Uiso   1.00
H171   H     0.17618   0.33080   0.53667   0.00000  Uiso   1.00
H172   H     0.16472   0.27289   0.58508   0.00000  Uiso   1.00
H173   H     0.06707   0.26804   0.55069   0.00000  Uiso   1.00
H174   H     0.11453   0.26232   0.48924   0.00000  Uiso   1.00
H175   H     0.07881   0.32594   0.50178   0.00000  Uiso   1.00
H176   H     0.70498   0.24389   0.65868   0.00000  Uiso   1.00
H177   H     0.28498   0.33652   0.27112   0.00000  Uiso   1.00
H178   H     0.75608   0.70496   0.65869   0.00000  Uiso   1.00
H179   H     0.66350   0.28496   0.27125   0.00000  Uiso   1.00
H180   H     0.21504   0.83650   0.22874   0.00000  Uiso   1.00
H181   H     0.29502   0.75611   0.65868   0.00000  Uiso   1.00
H182   H     0.71502   0.66347   0.27108   0.00000  Uiso   1.00
H183   H     0.24391   0.29504   0.65869   0.00000  Uiso   1.00
H184   H     0.00716   0.28795   0.27480   0.00000  Uiso   1.00
H185   H     0.06467   0.30847   0.31844   0.00000  Uiso   1.00
H186   H     0.03964   0.19017   0.27624   0.00000  Uiso   1.00
H187   H     0.09678   0.21034   0.32235   0.00000  Uiso   1.00
H188   H     0.03189   0.24405   0.40103   0.00000  Uiso   1.00
H189   H     0.02145   0.17256   0.38415   0.00000  Uiso   1.00
H190   H     0.97458   0.22302   0.35494   0.00000  Uiso   1.00
H191   H     0.74389   0.20498   0.84132   0.00000  Uiso   1.00
H192   H     0.88235   0.60221   0.90778   0.00000  Uiso   1.00
H193   H     0.82624   0.59425   0.85750   0.00000  Uiso   1.00
H194   H     0.83077   0.67620   0.96331   0.00000  Uiso   1.00
H195   H     0.77287   0.66471   0.91488   0.00000  Uiso   1.00
H196   H     0.76805   0.56707   0.94930   0.00000  Uiso   1.00
H197   H     0.76229   0.61454   0.01074   0.00000  Uiso   1.00
H198   H     0.82593   0.57884   0.99824   0.00000  Uiso   1.00
H199   H     0.28798   0.99283   0.27461   0.00000  Uiso   1.00
H200   H     0.30833   0.93533   0.31835   0.00000  Uiso   1.00
H201   H     0.19016   0.96053   0.27583   0.00000  Uiso   1.00
H202   H     0.83653   0.78498   0.22891   0.00000  Uiso   1.00
H203   H     0.21013   0.90336   0.32200   0.00000  Uiso   1.00
H204   H     0.24378   0.96817   0.40077   0.00000  Uiso   1.00
H205   H     0.17235   0.97876   0.38369   0.00000  Uiso   1.00
H206   H     0.22297   0.02553   0.35463   0.00000  Uiso   1.00
H207   H     0.60215   0.11767   0.90774   0.00000  Uiso   1.00
H208   H     0.59421   0.17378   0.85745   0.00000  Uiso   1.00
H209   H     0.67609   0.16927   0.96333   0.00000  Uiso   1.00
H210   H     0.66462   0.22716   0.91488   0.00000  Uiso   1.00
H211   H     0.56696   0.23197   0.94921   0.00000  Uiso   1.00
H212   H     0.61438   0.23776   0.01068   0.00000  Uiso   1.00
H213   H     0.20496   0.25609   0.84131   0.00000  Uiso   1.00
H214   H     0.57871   0.17411   0.99817   0.00000  Uiso   1.00
H215   H     0.99285   0.71217   0.27484   0.00000  Uiso   1.00
H216   H     0.93539   0.69144   0.31843   0.00000  Uiso   1.00
H217   H     0.96010   0.80987   0.27644   0.00000  Uiso   1.00
H218   H     0.90306   0.78947   0.32258   0.00000  Uiso   1.00
H219   H     0.96813   0.75580   0.40111   0.00000  Uiso   1.00
H220   H     0.97832   0.82735   0.38438   0.00000  Uiso   1.00
H221   H     0.02532   0.77710   0.35501   0.00000  Uiso   1.00
H222   H     0.11765   0.39781   0.90776   0.00000  Uiso   1.00
H223   H     0.17378   0.40575   0.85750   0.00000  Uiso   1.00
H224   H     0.78496   0.16349   0.22876   0.00000  Uiso   1.00
H225   H     0.16920   0.32382   0.96333   0.00000  Uiso   1.00
H226   H     0.22711   0.33528   0.91492   0.00000  Uiso   1.00
H227   H     0.23196   0.43293   0.94931   0.00000  Uiso   1.00
H228   H     0.23768   0.38547   0.01076   0.00000  Uiso   1.00
H229   H     0.17406   0.42118   0.99822   0.00000  Uiso   1.00
H230   H     0.71201   0.00715   0.27461   0.00000  Uiso   1.00
H231   H     0.69166   0.06465   0.31835   0.00000  Uiso   1.00
H232   H     0.80984   0.03946   0.27585   0.00000  Uiso   1.00
H233   H     0.78986   0.09662   0.32202   0.00000  Uiso   1.00
H234   H     0.75620   0.03180   0.40077   0.00000  Uiso   1.00
H235   H     0.25611   0.79502   0.84132   0.00000  Uiso   1.00
H236   H     0.82763   0.02121   0.38371   0.00000  Uiso   1.00
H237   H     0.77701   0.97445   0.35463   0.00000  Uiso   1.00
H238   H     0.39785   0.88233   0.90775   0.00000  Uiso   1.00
H239   H     0.40580   0.82623   0.85746   0.00000  Uiso   1.00
H240   H     0.32390   0.83072   0.96333   0.00000  Uiso   1.00
H241   H     0.33539   0.77284   0.91488   0.00000  Uiso   1.00
H242   H     0.43306   0.76805   0.94923   0.00000  Uiso   1.00
H243   H     0.38562   0.76225   0.01069   0.00000  Uiso   1.00
H244   H     0.42128   0.82591   0.99819   0.00000  Uiso   1.00
H245   H     0.99284   0.28797   0.72522   0.00000  Uiso   1.00
H246   H     0.83652   0.21502   0.77113   0.00000  Uiso   1.00
H247   H     0.93533   0.30845   0.68156   0.00000  Uiso   1.00
H248   H     0.96042   0.19018   0.72382   0.00000  Uiso   1.00
H249   H     0.90327   0.21029   0.67771   0.00000  Uiso   1.00
H250   H     0.96812   0.24402   0.59900   0.00000  Uiso   1.00
H251   H     0.97861   0.17254   0.61592   0.00000  Uiso   1.00
H252   H     0.02545   0.22304   0.64510   0.00000  Uiso   1.00
H253   H     0.11766   0.60215   0.09226   0.00000  Uiso   1.00
H254   H     0.17381   0.59424   0.14250   0.00000  Uiso   1.00
H255   H     0.16916   0.67614   0.03664   0.00000  Uiso   1.00
H256   H     0.22709   0.66471   0.08503   0.00000  Uiso   1.00
O1     O    -0.00000   0.50000   0.25000   0.00000  Uiso   1.00
O2     O     0.00000   0.45454   0.88202   0.00000  Uiso   1.00
O3     O     0.54546   0.00000   0.11798   0.00000  Uiso   1.00
O4     O     0.45454   0.00000   0.88202   0.00000  Uiso   1.00
O5     O     0.50000   0.95454   0.61798   0.00000  Uiso   1.00
O6     O     0.50000   0.04546   0.38202   0.00000  Uiso   1.00
O7     O     0.95454   0.50000   0.61798   0.00000  Uiso   1.00
O8     O     0.04546   0.50000   0.38202   0.00000  Uiso   1.00
O9     O     0.50000   0.04546   0.61798   0.00000  Uiso   1.00
O10    O     0.50000   0.95454   0.38202   0.00000  Uiso   1.00
O11    O     0.04546   0.50000   0.61798   0.00000  Uiso   1.00
O12    O    -0.00000   0.50000   0.75000   0.00000  Uiso   1.00
O13    O     0.95454   0.50000   0.38202   0.00000  Uiso   1.00
O14    O     0.06399   0.60947   0.21539   0.00000  Uiso   1.00
O15    O     0.93601   0.39053   0.78461   0.00000  Uiso   1.00
O16    O     0.60947   0.93601   0.21539   0.00000  Uiso   1.00
O17    O     0.39053   0.06399   0.78461   0.00000  Uiso   1.00
O18    O     0.93601   0.39053   0.21539   0.00000  Uiso   1.00
O19    O     0.06399   0.60947   0.78461   0.00000  Uiso   1.00
O20    O     0.39053   0.06399   0.21539   0.00000  Uiso   1.00
O21    O     0.60947   0.93601   0.78461   0.00000  Uiso   1.00
O22    O     0.93601   0.60947   0.78461   0.00000  Uiso   1.00
O23    O     0.50000   0.00000   0.25000   0.00000  Uiso   1.00
O24    O     0.06399   0.39053   0.21539   0.00000  Uiso   1.00
O25    O     0.39053   0.93601   0.78461   0.00000  Uiso   1.00
O26    O     0.60947   0.06399   0.21539   0.00000  Uiso   1.00
O27    O     0.06399   0.39053   0.78461   0.00000  Uiso   1.00
O28    O     0.93601   0.60947   0.21539   0.00000  Uiso   1.00
O29    O     0.60947   0.06399   0.78461   0.00000  Uiso   1.00
O30    O     0.39053   0.93601   0.21539   0.00000  Uiso   1.00
O31    O     0.56399   0.10947   0.71539   0.00000  Uiso   1.00
O32    O     0.43601   0.89053   0.28461   0.00000  Uiso   1.00
O33    O     0.10947   0.43601   0.71539   0.00000  Uiso   1.00
O34    O     0.50000   0.00000   0.75000   0.00000  Uiso   1.00
O35    O     0.89053   0.56399   0.28461   0.00000  Uiso   1.00
O36    O     0.43601   0.89053   0.71539   0.00000  Uiso   1.00
O37    O     0.56399   0.10947   0.28461   0.00000  Uiso   1.00
O38    O     0.89053   0.56399   0.71539   0.00000  Uiso   1.00
O39    O     0.10947   0.43601   0.28461   0.00000  Uiso   1.00
O40    O     0.43601   0.10947   0.28461   0.00000  Uiso   1.00
O41    O     0.56399   0.89053   0.71539   0.00000  Uiso   1.00
O42    O     0.89053   0.43601   0.28461   0.00000  Uiso   1.00
O43    O     0.10947   0.56399   0.71539   0.00000  Uiso   1.00
O44    O     0.56399   0.89053   0.28461   0.00000  Uiso   1.00
O45    O    -0.00000   0.45454   0.11798   0.00000  Uiso   1.00
O46    O     0.43601   0.10947   0.71539   0.00000  Uiso   1.00
O47    O     0.10947   0.56399   0.28461   0.00000  Uiso   1.00
O48    O     0.89053   0.43601   0.71539   0.00000  Uiso   1.00
O49    O     0.07975   0.28113   0.22964   0.00000  Uiso   1.00
O50    O     0.87050   0.66947   0.85478   0.00000  Uiso   1.00
O51    O     0.28115   0.92023   0.22949   0.00000  Uiso   1.00
O52    O     0.66945   0.12953   0.85479   0.00000  Uiso   1.00
O53    O     0.92025   0.71887   0.22968   0.00000  Uiso   1.00
O54    O     0.12950   0.33053   0.85478   0.00000  Uiso   1.00
O55    O     0.71885   0.07976   0.22949   0.00000  Uiso   1.00
O56    O    -0.00000   0.54546   0.88202   0.00000  Uiso   1.00
O57    O     0.33055   0.87048   0.85480   0.00000  Uiso   1.00
O58    O     0.92025   0.28114   0.77038   0.00000  Uiso   1.00
O59    O     0.12951   0.66945   0.14521   0.00000  Uiso   1.00
O60    O     0.71885   0.92023   0.77048   0.00000  Uiso   1.00
O61    O     0.33056   0.12953   0.14520   0.00000  Uiso   1.00
O62    O     0.07975   0.71886   0.77038   0.00000  Uiso   1.00
O63    O     0.87049   0.33054   0.14522   0.00000  Uiso   1.00
O64    O     0.28115   0.07976   0.77048   0.00000  Uiso   1.00
O65    O     0.66945   0.87048   0.14521   0.00000  Uiso   1.00
O66    O     0.57976   0.78115   0.72952   0.00000  Uiso   1.00
O67    O     0.45454   0.00000   0.11798   0.00000  Uiso   1.00
O68    O     0.37047   0.16944   0.35480   0.00000  Uiso   1.00
O69    O     0.78114   0.42025   0.72962   0.00000  Uiso   1.00
O70    O     0.16946   0.62951   0.35478   0.00000  Uiso   1.00
O71    O     0.42023   0.21885   0.72953   0.00000  Uiso   1.00
O72    O     0.62952   0.83055   0.35479   0.00000  Uiso   1.00
O73    O     0.21886   0.57975   0.72962   0.00000  Uiso   1.00
O74    O     0.83054   0.37049   0.35479   0.00000  Uiso   1.00
O75    O     0.42024   0.78115   0.27051   0.00000  Uiso   1.00
O76    O     0.62952   0.16945   0.64520   0.00000  Uiso   1.00
O77    O     0.21886   0.42025   0.27036   0.00000  Uiso   1.00
O78    O     0.54546   0.00000   0.88202   0.00000  Uiso   1.00
O79    O     0.83052   0.62950   0.64522   0.00000  Uiso   1.00
O80    O     0.57977   0.21885   0.27051   0.00000  Uiso   1.00
O81    O     0.37047   0.83055   0.64521   0.00000  Uiso   1.00
O82    O     0.78113   0.57974   0.27032   0.00000  Uiso   1.00
O83    O     0.16947   0.37050   0.64522   0.00000  Uiso   1.00
O84    O    -0.00000   0.54546   0.11798   0.00000  Uiso   1.00
Zn1    Zn    0.06497   0.50000   0.29947   0.00000  Uiso   1.00
Zn2    Zn    0.43503   0.00000   0.20053   0.00000  Uiso   1.00
Zn3    Zn    0.00000   0.43503   0.79947   0.00000  Uiso   1.00
Zn4    Zn   -0.00000   0.56497   0.20053   0.00000  Uiso   1.00
Zn5    Zn    0.43503   0.00000   0.79947   0.00000  Uiso   1.00
Zn6    Zn    0.56497   0.00000   0.20053   0.00000  Uiso   1.00
Zn7    Zn    0.00000   0.56497   0.79947   0.00000  Uiso   1.00
Zn8    Zn   -0.00000   0.43503   0.20053   0.00000  Uiso   1.00
Zn9    Zn    0.93503   0.50000   0.70053   0.00000  Uiso   1.00
Zn10   Zn    0.50000   0.93503   0.29947   0.00000  Uiso   1.00
Zn11   Zn    0.50000   0.06497   0.70053   0.00000  Uiso   1.00
Zn12   Zn    0.93503   0.50000   0.29947   0.00000  Uiso   1.00
Zn13   Zn    0.06497   0.50000   0.70053   0.00000  Uiso   1.00
Zn14   Zn    0.50000   0.06497   0.29947   0.00000  Uiso   1.00
Zn15   Zn    0.50000   0.93503   0.70053   0.00000  Uiso   1.00
Zn16   Zn    0.56497   0.00000   0.79947   0.00000  Uiso   1.00
loop_
_geom_bond_atom_site_label_1
_geom_bond_atom_site_label_2
_geom_bond_distance
_geom_bond_site_symmetry_2
_ccdc_geom_bond_type
C1     C198    1.398   .     A
C1     C169    1.398   .     A
C1     C24     1.462   .     S
C2     C190    1.397   .     A
C2     C179    1.397   .     A
C2     C148    1.462   .     S
C3     O70     1.384   .     S
C3     C190    1.394   .     A
C3     C27     1.416   .     A
C4     C191    1.394   .     A
C4     O71     1.385   .     S
C4     C32     1.415   .     A
C5     C33     1.416   .     A
C5     O72     1.384   .     S
C5     C193    1.394   .     A
C6     O73     1.385   .     S
C6     C30     1.415   .     A
C6     C194    1.394   .     A
C7     C195    1.394   .     A
C7     O74     1.384   .     S
C7     C31     1.416   .     A
C8     C19     1.415   .     A
C8     C196    1.394   .     A
C8     O75     1.385   .     S
C9     C197    1.394   .     A
C9     C20     1.416   .     A
C9     O76     1.384   .     S
C10    C198    1.394   .     A
C10    O77     1.385   .     S
C10    C17     1.415   .     A
C11    C18     1.416   .     A
C11    O79     1.384   .     S
C11    C199    1.394   .     A
C12    C23     1.415   .     A
C12    C200    1.394   .     A
C12    O80     1.385   .     S
C13    C112    1.462   .     S
C13    C187    1.398   .     A
C13    C180    1.398   .     A
C14    C201    1.394   .     A
C14    O81     1.384   .     S
C14    C25     1.416   .     A
C15    O82     1.385   .     S
C15    C202    1.394   .     A
C15    C21     1.415   .     A
C16    O83     1.384   .     S
C16    C204    1.394   .     A
C16    C22     1.416   .     A
C17    C205    1.415   .     A
C17    C162    1.467   .     S
C18    C161    1.470   .     S
C18    C206    1.416   .     A
C19    C207    1.415   .     A
C19    C168    1.467   .     S
C20    C167    1.470   .     S
C20    C208    1.416   .     A
C21    C166    1.467   .     S
C21    C209    1.415   .     A
C22    C210    1.416   .     A
C22    C165    1.470   .     S
C23    C211    1.415   .     A
C23    C164    1.467   .     S
C24    C188    1.397   .     A
C24    C182    1.397   .     A
C25    C163    1.470   .     S
C25    C212    1.416   .     A
C26    C224    1.415   .     A
C26    C213    1.415   .     A
C26    C153    1.467   .     S
C27    C152    1.470   .     S
C27    C215    1.416   .     A
C28    C216    1.415   .     A
C28    C222    1.415   .     A
C28    C160    1.467   .     S
C29    C158    1.470   .     S
C29    C223    1.416   .     A
C29    C217    1.416   .     A
C30    C157    1.467   .     S
C30    C218    1.415   .     A
C31    C156    1.470   .     S
C31    C219    1.416   .     A
C32    C220    1.415   .     A
C32    C155    1.467   .     S
C33    C154    1.470   .     S
C33    C221    1.416   .     A
C34    C36     1.532   .     S
C34    H185    1.116   .     S
C34    O49     1.417   .     S
C34    H184    1.111   .     S
C35    C183    1.398   .     A
C35    C194    1.398   .     A
C35    C203    1.462   .     S
C36    C37     1.526   .     S
C36    H187    1.111   .     S
C36    H186    1.112   .     S
C37    H189    1.110   .     S
C37    H188    1.111   .     S
C37    H190    1.111   1_455 S
C38    H193    1.118   .     S
C38    C39     1.532   .     S
C38    H192    1.111   .     S
C38    O50     1.417   .     S
C39    H194    1.112   .     S
C39    H195    1.111   .     S
C39    C40     1.527   .     S
C40    H198    1.111   .     S
C40    H196    1.110   .     S
C40    H197    1.110   1_556 S
C41    H200    1.116   .     S
C41    O51     1.417   .     S
C41    C42     1.531   .     S
C41    H199    1.111   .     S
C42    H201    1.112   .     S
C42    H203    1.111   .     S
C42    C43     1.526   .     S
C43    H204    1.111   .     S
C43    H205    1.110   .     S
C43    H206    1.111   1_565 S
C44    O52     1.417   .     S
C44    H207    1.111   .     S
C44    C45     1.532   .     S
C44    H208    1.118   .     S
C45    H209    1.112   .     S
C45    C47     1.527   .     S
C45    H210    1.111   .     S
C46    C184    1.397   .     A
C46    C192    1.462   .     S
C46    C195    1.397   .     A
C47    H211    1.110   .     S
C47    H214    1.111   .     S
C47    H212    1.110   1_556 S
C48    H215    1.111   .     S
C48    O53     1.417   .     S
C48    C49     1.532   .     S
C48    H216    1.116   .     S
C49    H217    1.112   .     S
C49    C50     1.526   .     S
C49    H218    1.111   .     S
C50    H219    1.111   .     S
C50    H220    1.110   .     S
C50    H221    1.111   1_655 S
C51    C52     1.532   .     S
C51    H222    1.111   .     S
C51    O54     1.417   .     S
C51    H223    1.118   .     S
C52    H226    1.111   .     S
C52    C53     1.527   .     S
C52    H225    1.112   .     S
C53    H227    1.110   .     S
C53    H229    1.111   .     S
C53    H228    1.110   1_556 S
C54    O55     1.417   .     S
C54    C55     1.531   .     S
C54    H230    1.111   .     S
C54    H231    1.116   .     S
C55    C56     1.526   .     S
C55    H232    1.112   .     S
C55    H233    1.111   .     S
C56    H234    1.111   .     S
C56    H236    1.110   .     S
C56    H237    1.111   1_545 S
C57    C185    1.398   .     A
C57    C191    1.398   .     A
C57    C181    1.462   .     S
C58    H239    1.118   .     S
C58    H238    1.111   .     S
C58    O57     1.417   .     S
C58    C59     1.532   .     S
C59    C60     1.527   .     S
C59    H240    1.112   .     S
C59    H241    1.111   .     S
C60    H242    1.110   .     S
C60    H244    1.111   .     S
C60    H243    1.110   1_556 S
C61    O58     1.417   .     S
C61    H245    1.111   .     S
C61    C62     1.532   .     S
C61    H247    1.116   .     S
C62    H248    1.111   .     S
C62    C63     1.526   .     S
C62    H249    1.111   .     S
C63    H250    1.111   .     S
C63    H251    1.110   .     S
C63    H252    1.111   1_655 S
C64    H254    1.118   .     S
C64    O59     1.417   .     S
C64    H253    1.111   .     S
C64    C65     1.532   .     S
C65    H255    1.112   .     S
C65    H256    1.111   .     S
C65    C66     1.527   .     S
C66    H3      1.110   .     S
C66    H5      1.111   .     S
C66    H4      1.110   1_554 S
C67    H7      1.116   .     S
C67    O60     1.417   .     S
C67    H6      1.111   .     S
C67    C69     1.531   .     S
C68    C193    1.397   .     A
C68    C170    1.462   .     S
C68    C186    1.397   .     A
C69    H8      1.112   .     S
C69    C70     1.526   .     S
C69    H9      1.111   .     S
C70    H11     1.110   .     S
C70    H10     1.111   .     S
C70    H12     1.111   1_565 S
C71    O61     1.417   .     S
C71    C72     1.532   .     S
C71    H14     1.111   .     S
C71    H15     1.118   .     S
C72    H17     1.111   .     S
C72    H16     1.112   .     S
C72    C73     1.527   .     S
C73    H18     1.110   .     S
C73    H20     1.111   .     S
C73    H19     1.110   1_554 S
C74    H21     1.111   .     S
C74    H22     1.116   .     S
C74    O62     1.417   .     S
C74    C75     1.532   .     S
C75    C76     1.526   .     S
C75    H23     1.111   .     S
C75    H25     1.111   .     S
C76    H26     1.111   .     S
C76    H27     1.110   .     S
C76    H28     1.111   1_455 S
C77    H29     1.111   .     S
C77    C78     1.532   .     S
C77    O63     1.417   .     S
C77    H30     1.118   .     S
C78    H31     1.112   .     S
C78    H32     1.111   .     S
C78    C80     1.527   .     S
C79    C90     1.195   .     T
C79    C151    1.416   .     S
C80    H33     1.110   .     S
C80    H36     1.111   .     S
C80    H34     1.110   1_554 S
C81    H37     1.111   .     S
C81    C82     1.532   .     S
C81    O64     1.417   .     S
C81    H38     1.116   .     S
C82    H40     1.111   .     S
C82    C83     1.526   .     S
C82    H39     1.111   .     S
C83    H41     1.111   .     S
C83    H42     1.110   .     S
C83    H43     1.111   1_545 S
C84    O65     1.417   .     S
C84    H45     1.118   .     S
C84    H44     1.111   .     S
C84    C85     1.532   .     S
C85    H47     1.112   .     S
C85    C86     1.527   .     S
C85    H48     1.111   .     S
C86    H51     1.111   .     S
C86    H49     1.110   .     S
C86    H50     1.110   1_554 S
C87    O66     1.417   .     S
C87    C88     1.531   .     S
C87    H53     1.116   .     S
C87    H52     1.111   .     S
C88    H55     1.111   .     S
C88    C89     1.526   .     S
C88    H54     1.112   .     S
C89    H56     1.111   .     S
C89    H58     1.110   .     S
C89    H59     1.111   .     S
C90    C150    1.416   .     S
C91    H61     1.118   .     S
C91    C92     1.532   .     S
C91    O68     1.417   .     S
C91    H60     1.111   .     S
C92    H63     1.111   .     S
C92    H62     1.112   .     S
C92    C93     1.527   .     S
C93    H64     1.110   .     S
C93    H66     1.111   .     S
C93    H65     1.110   .     S
C94    O69     1.417   .     S
C94    H69     1.116   .     S
C94    H67     1.111   .     S
C94    C95     1.532   .     S
C95    H70     1.112   .     S
C95    H71     1.111   .     S
C95    C96     1.526   .     S
C96    H73     1.110   .     S
C96    H74     1.111   .     S
C96    H72     1.111   .     S
C97    H76     1.118   .     S
C97    C98     1.532   .     S
C97    O70     1.417   .     S
C97    H75     1.111   .     S
C98    H78     1.111   .     S
C98    C99     1.527   .     S
C98    H77     1.112   .     S
C99    H81     1.110   .     S
C99    H80     1.110   .     S
C99    H82     1.111   .     S
C100   O71     1.417   .     S
C100   H83     1.111   .     S
C100   C102    1.532   .     S
C100   H84     1.116   .     S
C101   C149    1.416   .     S
C101   C113    1.195   .     S
C102   H86     1.111   .     S
C102   C103    1.526   .     S
C102   H85     1.111   .     S
C103   H87     1.111   .     S
C103   H89     1.111   .     S
C103   H88     1.110   .     S
C104   C105    1.532   .     S
C104   H92     1.118   .     S
C104   O72     1.417   .     S
C104   H91     1.111   .     S
C105   H94     1.111   .     S
C105   C106    1.527   .     S
C105   H93     1.112   .     S
C106   H96     1.110   .     S
C106   H95     1.110   .     S
C106   H97     1.111   .     S
C107   H99     1.116   .     S
C107   O73     1.417   .     S
C107   C108    1.532   .     S
C107   H98     1.111   .     S
C108   H100    1.112   .     S
C108   C109    1.526   .     S
C108   H102    1.111   .     S
C109   H105    1.111   .     S
C109   H104    1.110   .     S
C109   H103    1.111   .     S
C110   C111    1.532   .     S
C110   O74     1.417   .     S
C110   H107    1.118   .     S
C110   H106    1.111   .     S
C111   H108    1.112   .     S
C111   C114    1.527   .     S
C111   H109    1.111   .     S
C112   C171    1.397   .     A
C112   C199    1.397   .     A
C113   C147    1.416   .     S
C114   H111    1.110   .     S
C114   H110    1.110   .     S
C114   H114    1.111   .     S
C115   O75     1.417   .     S
C115   C116    1.531   .     S
C115   H116    1.116   .     S
C115   H115    1.111   .     S
C116   H118    1.111   .     S
C116   C117    1.526   .     S
C116   H117    1.112   .     S
C117   H120    1.110   .     S
C117   H121    1.111   .     S
C117   H119    1.111   .     S
C118   H122    1.111   .     S
C118   O76     1.417   .     S
C118   H123    1.118   .     S
C118   C119    1.532   .     S
C119   H126    1.111   .     S
C119   C120    1.527   .     S
C119   H125    1.112   .     S
C120   H127    1.110   .     S
C120   H128    1.110   .     S
C120   H129    1.111   .     S
C121   H131    1.116   .     S
C121   H130    1.111   .     S
C121   C122    1.532   .     S
C121   O77     1.417   .     S
C122   H132    1.112   .     S
C122   H133    1.111   .     S
C122   C123    1.526   .     S
C123   H137    1.111   .     S
C123   H136    1.110   .     S
C123   H134    1.111   .     S
C124   C135    1.195   1_556 S
C124   C146    1.416   .     S
C125   H138    1.111   .     S
C125   C126    1.532   .     S
C125   H139    1.118   .     S
C125   O79     1.417   .     S
C126   C127    1.527   .     S
C126   H141    1.111   .     S
C126   H140    1.112   .     S
C127   H144    1.111   .     S
C127   H142    1.110   .     S
C127   H143    1.110   .     S
C128   C129    1.532   .     S
C128   H145    1.111   .     S
C128   H147    1.116   .     S
C128   O80     1.417   .     S
C129   C130    1.526   .     S
C129   H149    1.111   .     S
C129   H148    1.112   .     S
C130   H152    1.111   .     S
C130   H151    1.110   .     S
C130   H150    1.111   .     S
C131   H153    1.111   .     S
C131   C132    1.532   .     S
C131   H154    1.118   .     S
C131   O81     1.417   .     S
C132   H156    1.111   .     S
C132   H155    1.112   .     S
C132   C133    1.527   .     S
C133   H160    1.111   .     S
C133   H159    1.110   .     S
C133   H158    1.110   .     S
C134   H162    1.116   .     S
C134   H161    1.111   .     S
C134   O82     1.417   .     S
C134   C136    1.532   .     S
C135   C145    1.416   .     S
C135   C124    1.195   1_554 S
C136   H164    1.111   .     S
C136   C137    1.526   .     S
C136   H163    1.112   .     S
C137   H166    1.110   .     S
C137   H165    1.111   .     S
C137   H167    1.111   .     S
C138   H169    1.111   .     S
C138   H170    1.118   .     S
C138   C139    1.532   .     S
C138   O83     1.417   .     S
C139   C140    1.527   .     S
C139   H172    1.111   .     S
C139   H171    1.112   .     S
C140   H173    1.110   .     S
C140   H175    1.111   .     S
C140   H174    1.110   .     S
C141   C142    1.195   1_556 S
C141   C144    1.416   .     S
C142   C143    1.416   .     S
C142   C141    1.195   1_554 S
C143   O45     1.274   .     A
C143   O84     1.274   .     A
C144   O56     1.274   .     A
C144   O2      1.274   .     S
C145   O3      1.274   .     S
C145   O67     1.274   .     S
C146   O4      1.274   .     A
C146   O78     1.274   .     A
C147   O5      1.274   1_545 A
C147   O9      1.274   .     S
C148   C196    1.398   .     A
C148   C172    1.398   .     A
C149   O6      1.274   .     A
C149   O10     1.274   1_545 S
C150   O7      1.274   1_455 A
C150   O11     1.274   .     S
C151   O13     1.274   1_455 A
C151   O8      1.274   .     S
C152   O14     1.275   .     A
C152   O47     1.275   .     A
C153   O48     1.274   .     A
C153   O15     1.274   .     A
C154   O16     1.275   .     A
C154   O44     1.275   .     A
C155   O17     1.274   .     A
C155   O46     1.274   .     A
C156   O18     1.275   .     A
C156   O42     1.275   .     A
C157   O19     1.274   .     A
C157   O43     1.274   .     A
C158   O20     1.275   .     A
C158   O40     1.275   .     A
C159   C214    1.462   .     S
C159   C197    1.397   .     A
C159   C173    1.397   .     A
C160   O21     1.274   .     A
C160   O41     1.274   .     A
C161   O22     1.275   .     A
C161   O38     1.275   .     A
C162   O24     1.274   .     A
C162   O39     1.274   .     A
C163   O25     1.275   .     A
C163   O36     1.275   .     A
C164   O26     1.274   .     A
C164   O37     1.274   .     A
C165   O27     1.275   .     A
C165   O33     1.275   .     A
C166   O28     1.274   .     A
C166   O35     1.274   .     A
C167   O31     1.275   .     A
C167   O29     1.275   .     A
C168   O32     1.274   .     A
C168   O30     1.274   .     A
C169   C205    1.394   .     A
C169   H1      1.084   .     S
C170   C174    1.398   .     A
C170   C202    1.398   .     A
C171   C206    1.394   .     A
C171   H112    1.084   .     S
C172   H180    1.084   .     S
C172   C207    1.394   .     A
C173   C208    1.394   .     A
C173   H191    1.084   .     S
C174   C209    1.394   .     A
C174   H202    1.084   .     S
C175   C210    1.394   .     A
C175   H213    1.084   .     S
C175   C181    1.397   .     A
C176   H224    1.084   .     S
C176   C211    1.394   .     A
C176   C192    1.398   .     A
C177   H235    1.084   .     S
C177   C212    1.394   .     A
C177   C203    1.397   .     A
C178   C213    1.394   .     A
C178   H246    1.084   .     S
C178   C214    1.398   .     A
C179   H2      1.084   .     S
C179   C215    1.394   .     A
C180   C216    1.394   .     A
C180   H13     1.084   .     S
C181   C204    1.397   .     A
C182   H24     1.084   .     S
C182   C217    1.394   .     A
C183   H35     1.084   .     S
C183   C218    1.394   .     A
C184   H46     1.084   .     S
C184   C219    1.394   .     A
C185   C220    1.394   .     A
C185   H57     1.084   .     S
C186   C221    1.394   .     A
C186   H68     1.084   .     S
C187   H79     1.084   .     S
C187   C222    1.394   .     A
C188   C223    1.394   .     A
C188   H90     1.084   .     S
C189   C224    1.394   .     A
C189   H101    1.084   .     S
C189   C214    1.398   .     A
C190   H113    1.084   .     S
C191   H124    1.084   .     S
C192   C200    1.398   .     A
C193   H135    1.084   .     S
C194   H146    1.084   .     S
C195   H157    1.084   .     S
C196   H168    1.084   .     S
C197   H176    1.084   .     S
C198   H177    1.084   .     S
C199   H178    1.084   .     S
C200   H179    1.084   .     S
C201   C203    1.397   .     A
C201   H181    1.084   .     S
C202   H182    1.084   .     S
C204   H183    1.084   .     S
C205   O49     1.385   .     S
C206   O50     1.384   .     S
C207   O51     1.385   .     S
C208   O52     1.384   .     S
C209   O53     1.385   .     S
C210   O54     1.384   .     S
C211   O55     1.385   .     S
C212   O57     1.384   .     S
C213   O58     1.385   .     S
C215   O59     1.384   .     S
C216   O60     1.385   .     S
C217   O61     1.384   .     S
C218   O62     1.385   .     S
C219   O63     1.384   .     S
C220   O64     1.385   .     S
C221   O65     1.384   .     S
C222   O66     1.385   .     S
C223   O68     1.384   .     S
C224   O69     1.385   .     S
H4     C66     1.110   1_556 S
H12    C70     1.111   1_545 S
H19    C73     1.110   1_556 S
H28    C76     1.111   1_655 S
H34    C80     1.110   1_556 S
H43    C83     1.111   1_565 S
H50    C86     1.110   1_556 S
H190   C37     1.111   1_655 S
H197   C40     1.110   1_554 S
H206   C43     1.111   1_545 S
H212   C47     1.110   1_554 S
H221   C50     1.111   1_455 S
H228   C53     1.110   1_554 S
H237   C56     1.111   1_565 S
H243   C60     1.110   1_554 S
H252   C63     1.111   1_455 S
O1     Zn4     1.935   .     S
O1     Zn8     1.935   .     S
O1     Zn12    1.935   1_455 S
O1     Zn1     1.935   .     S
O2     Zn3     1.907   .     S
O3     Zn6     1.907   .     S
O4     Zn5     1.907   .     S
O5     C147    1.274   1_565 A
O5     Zn15    1.907   .     S
O6     Zn14    1.907   .     S
O7     C150    1.274   1_655 A
O7     Zn9     1.907   .     S
O8     Zn1     1.907   .     S
O9     Zn11    1.907   .     S
O10    Zn10    1.907   .     S
O10    C149    1.274   1_565 S
O11    Zn13    1.907   .     S
O12    Zn9     1.935   1_455 S
O12    Zn3     1.935   .     S
O12    Zn7     1.935   .     S
O12    Zn13    1.935   .     S
O13    C151    1.274   1_655 A
O13    Zn12    1.907   .     S
O14    Zn4     1.932   .     S
O15    Zn3     1.932   1_655 S
O16    Zn6     1.932   1_565 S
O17    Zn5     1.932   .     S
O18    Zn8     1.932   1_655 S
O19    Zn7     1.932   .     S
O20    Zn2     1.932   .     S
O21    Zn16    1.932   1_565 S
O22    Zn7     1.932   1_655 S
O23    Zn6     1.935   .     S
O23    Zn14    1.935   .     S
O23    Zn2     1.935   .     S
O23    Zn10    1.935   1_545 S
O24    Zn8     1.932   .     S
O25    Zn5     1.932   1_565 S
O26    Zn6     1.932   .     S
O27    Zn3     1.932   .     S
O28    Zn4     1.932   1_655 S
O29    Zn16    1.932   .     S
O30    Zn2     1.932   1_565 S
O31    Zn11    1.932   .     S
O32    Zn10    1.932   .     S
O33    Zn13    1.932   .     S
O34    Zn5     1.935   .     S
O34    Zn16    1.935   .     S
O34    Zn11    1.935   .     S
O34    Zn15    1.935   1_545 S
O35    Zn12    1.932   .     S
O36    Zn15    1.932   .     S
O37    Zn14    1.932   .     S
O38    Zn9     1.932   .     S
O39    Zn1     1.932   .     S
O40    Zn14    1.932   .     S
O41    Zn15    1.932   .     S
O42    Zn12    1.932   .     S
O43    Zn13    1.932   .     S
O44    Zn10    1.932   .     S
O45    Zn8     1.907   .     S
O46    Zn11    1.932   .     S
O47    Zn1     1.932   .     S
O48    Zn9     1.932   .     S
O56    Zn7     1.907   .     S
O67    Zn2     1.907   .     S
O78    Zn16    1.907   .     S
O84    Zn4     1.907   .     S
Zn2    O30     1.932   1_545 S
Zn3    O15     1.932   1_455 S
Zn4    O28     1.932   1_455 S
Zn5    O25     1.932   1_545 S
Zn6    O16     1.932   1_545 S
Zn7    O22     1.932   1_455 S
Zn8    O18     1.932   1_455 S
Zn9    O12     1.935   1_655 S
Zn10   O23     1.935   1_565 S
Zn12   O1      1.935   1_655 S
Zn15   O34     1.935   1_565 S
Zn16   O21     1.932   1_545 S
