data_str_m1_o10_o18_pcu_sym.75
_audit_creation_date              2020-01-03
_audit_creation_method            'Materials Studio'
_symmetry_space_group_name_H-M    'P1'
_symmetry_Int_Tables_number       1
_symmetry_cell_setting            triclinic
loop_
_symmetry_equiv_pos_as_xyz
  x,y,z
_cell_length_a                    32.5404
_cell_length_b                    32.5360
_cell_length_c                    35.6876
_cell_angle_alpha                 98.4089
_cell_angle_beta                  72.7549
_cell_angle_gamma                 98.8265
loop_
_atom_site_label
_atom_site_type_symbol
_atom_site_fract_x
_atom_site_fract_y
_atom_site_fract_z
_atom_site_U_iso_or_equiv
_atom_site_adp_type
_atom_site_occupancy
C1     C     0.05240   0.15975   0.25898   0.00000  Uiso   1.00
C2     C     0.18553   0.12006   0.46219   0.00000  Uiso   1.00
C3     C     0.20642   0.10047   0.48196   0.00000  Uiso   1.00
C4     C     0.28116   0.17372   0.24110   0.00000  Uiso   1.00
C5     C     0.20239   0.11199   0.02194   0.00000  Uiso   1.00
C6     C     0.17407   0.14205   0.04327   0.00000  Uiso   1.00
C7     C     0.22701   0.09436   0.04076   0.00000  Uiso   1.00
C8     C     0.22236   0.10561   0.08098   0.00000  Uiso   1.00
C9     C     0.17401   0.15564   0.08261   0.00000  Uiso   1.00
C10    C     0.32750   0.17670   0.23716   0.00000  Uiso   1.00
C11    C     0.00712   0.15795   0.26200   0.00000  Uiso   1.00
C12    C     0.10392   0.22281   0.42207   0.00000  Uiso   1.00
C13    C     0.17992   0.32187   0.23620   0.00000  Uiso   1.00
C14    C     0.15166   0.01209   0.26189   0.00000  Uiso   1.00
C15    C     0.15555   0.05618   0.25915   0.00000  Uiso   1.00
C16    C     0.17665   0.27763   0.24097   0.00000  Uiso   1.00
C17    C     0.18819   0.14526   0.14399   0.00000  Uiso   1.00
C18    C     0.14538   0.18796   0.35631   0.00000  Uiso   1.00
C19    C     0.13386   0.19496   0.39994   0.00000  Uiso   1.00
C20    C     0.19630   0.13635   0.10155   0.00000  Uiso   1.00
C21    C     0.09047   0.22435   0.46315   0.00000  Uiso   1.00
C22    C     0.29685   0.08139   0.01313   0.00000  Uiso   1.00
C23    C     0.15206   0.17182   0.41982   0.00000  Uiso   1.00
C24    C     0.02833   0.23901   0.21621   0.00000  Uiso   1.00
C25    C     0.20582   0.32954   0.17056   0.00000  Uiso   1.00
C26    C     0.24479   0.01378   0.13885   0.00000  Uiso   1.00
C27    C     0.23904   0.00099   0.09766   0.00000  Uiso   1.00
C28    C     0.11286   0.28485   0.39578   0.00000  Uiso   1.00
C29    C     0.09874   0.31981   0.42894   0.00000  Uiso   1.00
C30    C     0.12446   0.02862   0.41853   0.00000  Uiso   1.00
C31    C     0.06729   0.14798   0.09589   0.00000  Uiso   1.00
C32    C     0.02021   0.15739   0.10724   0.00000  Uiso   1.00
C33    C     0.32230   0.12150   0.12657   0.00000  Uiso   1.00
C34    C     0.13949   0.17376   0.46134   0.00000  Uiso   1.00
C35    C     0.10823   0.20058   0.48282   0.00000  Uiso   1.00
C36    C     0.15804   0.15083   0.48204   0.00000  Uiso   1.00
C37    C     0.14850   0.15868   0.02395   0.00000  Uiso   1.00
C38    C     0.11321   0.18209   0.04454   0.00000  Uiso   1.00
C39    C     0.09461   0.20338   0.02383   0.00000  Uiso   1.00
H40    H     0.06911   0.22236   0.04024   0.00000  Uiso   1.00
H41    H     0.30637   0.08990   0.04097   0.00000  Uiso   1.00
H42    H     0.30337   0.10913   0.49636   0.00000  Uiso   1.00
H43    H     0.31760   0.05766   0.49478   0.00000  Uiso   1.00
H44    H     0.03887   0.24763   0.24358   0.00000  Uiso   1.00
H45    H     0.33100   0.25210   0.21952   0.00000  Uiso   1.00
H46    H     0.05363   0.25367   0.19199   0.00000  Uiso   1.00
H47    H     0.17669   0.01018   0.17037   0.00000  Uiso   1.00
H48    H     0.20052   0.29502   0.16319   0.00000  Uiso   1.00
H49    H     0.24899   0.04845   0.14447   0.00000  Uiso   1.00
H50    H     0.27452   0.00196   0.14029   0.00000  Uiso   1.00
H51    H     0.31756   0.14235   0.28601   0.00000  Uiso   1.00
H52    H     0.23627   0.29973   0.09107   0.00000  Uiso   1.00
H53    H     0.26762   0.01472   0.07543   0.00000  Uiso   1.00
H54    H     0.20951   0.01243   0.09539   0.00000  Uiso   1.00
H55    H     0.10949   0.29379   0.36803   0.00000  Uiso   1.00
H56    H     0.14799   0.28196   0.39030   0.00000  Uiso   1.00
H57    H     0.06369   0.32210   0.43429   0.00000  Uiso   1.00
H58    H     0.10388   0.31250   0.45654   0.00000  Uiso   1.00
H59    H     0.15956   0.02730   0.41387   0.00000  Uiso   1.00
H60    H     0.11340   0.05320   0.44308   0.00000  Uiso   1.00
H61    H     0.11942   0.03721   0.39134   0.00000  Uiso   1.00
H62    H     0.12556   0.33243   0.28552   0.00000  Uiso   1.00
H63    H     0.07393   0.13874   0.12212   0.00000  Uiso   1.00
H64    H     0.07208   0.12053   0.07287   0.00000  Uiso   1.00
H65    H     0.01629   0.18630   0.12822   0.00000  Uiso   1.00
H66    H     0.01194   0.16271   0.08040   0.00000  Uiso   1.00
H67    H     0.32486   0.09233   0.10594   0.00000  Uiso   1.00
H68    H     0.28860   0.12951   0.13462   0.00000  Uiso   1.00
H69    H     0.32950   0.11614   0.15390   0.00000  Uiso   1.00
H70    H     0.15769   0.18170   0.09929   0.00000  Uiso   1.00
H71    H     0.23917   0.09047   0.09611   0.00000  Uiso   1.00
H72    H     0.22707   0.07706   0.46524   0.00000  Uiso   1.00
H73    H     0.06626   0.24463   0.47976   0.00000  Uiso   1.00
H74    H     0.17672   0.15301   0.40206   0.00000  Uiso   1.00
H75    H     0.19080   0.10939   0.43130   0.00000  Uiso   1.00
O76    O     0.16667   0.16667   0.25000   0.00000  Uiso   1.00
O77    O     0.15693   0.12393   0.16625   0.00000  Uiso   1.00
O78    O     0.12687   0.20646   0.33749   0.00000  Uiso   1.00
O79    O     0.21088   0.17493   0.15877   0.00000  Uiso   1.00
O80    O     0.17198   0.16135   0.33749   0.00000  Uiso   1.00
O81    O     0.25315   0.06387   0.02048   0.00000  Uiso   1.00
O82    O     0.02422   0.19534   0.20611   0.00000  Uiso   1.00
O83    O     0.21421   0.00654   0.20764   0.00000  Uiso   1.00
O84    O     0.08551   0.24698   0.40400   0.00000  Uiso   1.00
O85    O     0.09555   0.18465   0.08501   0.00000  Uiso   1.00
O86    O     0.17849   0.08101   0.27820   0.00000  Uiso   1.00
O87    O     0.14581   0.26136   0.26767   0.00000  Uiso   1.00
O88    O     0.07452   0.13251   0.23607   0.00000  Uiso   1.00
O89    O     0.26785   0.19179   0.21806   0.00000  Uiso   1.00
O90    O     0.06990   0.18960   0.27820   0.00000  Uiso   1.00
O91    O     0.25440   0.15277   0.26768   0.00000  Uiso   1.00
O92    O     0.13800   0.06903   0.23607   0.00000  Uiso   1.00
O93    O     0.20437   0.25527   0.21806   0.00000  Uiso   1.00
Zn94   Zn    0.19244   0.14090   0.28278   0.00000  Uiso   1.00
Zn95   Zn    0.13459   0.12378   0.22258   0.00000  Uiso   1.00
Zn96   Zn    0.21166   0.19664   0.21188   0.00000  Uiso   1.00
Zn97   Zn    0.12798   0.20535   0.28277   0.00000  Uiso   1.00
C98    C     0.38573   0.15975   0.25898   0.00000  Uiso   1.00
C99    C     0.51886   0.12006   0.46219   0.00000  Uiso   1.00
C100   C     0.53975   0.10047   0.48196   0.00000  Uiso   1.00
C101   C     0.61449   0.17372   0.24110   0.00000  Uiso   1.00
C102   C     0.53573   0.11199   0.02194   0.00000  Uiso   1.00
C103   C     0.50740   0.14205   0.04327   0.00000  Uiso   1.00
C104   C     0.56035   0.09436   0.04076   0.00000  Uiso   1.00
C105   C     0.55569   0.10561   0.08098   0.00000  Uiso   1.00
C106   C     0.50734   0.15564   0.08261   0.00000  Uiso   1.00
C107   C     0.66084   0.17670   0.23716   0.00000  Uiso   1.00
C108   C     0.34046   0.15795   0.26200   0.00000  Uiso   1.00
C109   C     0.43725   0.22281   0.42207   0.00000  Uiso   1.00
C110   C     0.51325   0.32187   0.23620   0.00000  Uiso   1.00
C111   C     0.48500   0.01209   0.26189   0.00000  Uiso   1.00
C112   C     0.48888   0.05618   0.25915   0.00000  Uiso   1.00
C113   C     0.50998   0.27763   0.24097   0.00000  Uiso   1.00
C114   C     0.52152   0.14526   0.14399   0.00000  Uiso   1.00
C115   C     0.47872   0.18796   0.35631   0.00000  Uiso   1.00
C116   C     0.46720   0.19496   0.39994   0.00000  Uiso   1.00
C117   C     0.52963   0.13635   0.10155   0.00000  Uiso   1.00
C118   C     0.42380   0.22435   0.46315   0.00000  Uiso   1.00
C119   C     0.63018   0.08139   0.01313   0.00000  Uiso   1.00
C120   C     0.48540   0.17182   0.41982   0.00000  Uiso   1.00
C121   C     0.36166   0.23901   0.21621   0.00000  Uiso   1.00
C122   C     0.53915   0.32954   0.17056   0.00000  Uiso   1.00
C123   C     0.57812   0.01378   0.13885   0.00000  Uiso   1.00
C124   C     0.57238   0.00099   0.09766   0.00000  Uiso   1.00
C125   C     0.44619   0.28485   0.39578   0.00000  Uiso   1.00
C126   C     0.43207   0.31981   0.42894   0.00000  Uiso   1.00
C127   C     0.45780   0.02862   0.41853   0.00000  Uiso   1.00
C128   C     0.40062   0.14798   0.09589   0.00000  Uiso   1.00
C129   C     0.35355   0.15739   0.10724   0.00000  Uiso   1.00
C130   C     0.65563   0.12150   0.12657   0.00000  Uiso   1.00
C131   C     0.47282   0.17376   0.46134   0.00000  Uiso   1.00
C132   C     0.44157   0.20058   0.48282   0.00000  Uiso   1.00
C133   C     0.49137   0.15083   0.48204   0.00000  Uiso   1.00
C134   C     0.48183   0.15868   0.02395   0.00000  Uiso   1.00
C135   C     0.44654   0.18209   0.04454   0.00000  Uiso   1.00
C136   C     0.42794   0.20338   0.02383   0.00000  Uiso   1.00
H137   H     0.40244   0.22236   0.04024   0.00000  Uiso   1.00
H138   H     0.63970   0.08990   0.04097   0.00000  Uiso   1.00
H139   H     0.63670   0.10913   0.49636   0.00000  Uiso   1.00
H140   H     0.65093   0.05766   0.49478   0.00000  Uiso   1.00
H141   H     0.37221   0.24763   0.24358   0.00000  Uiso   1.00
H142   H     0.66434   0.25210   0.21952   0.00000  Uiso   1.00
H143   H     0.38696   0.25367   0.19199   0.00000  Uiso   1.00
H144   H     0.51002   0.01018   0.17037   0.00000  Uiso   1.00
H145   H     0.53386   0.29502   0.16319   0.00000  Uiso   1.00
H146   H     0.58233   0.04845   0.14447   0.00000  Uiso   1.00
H147   H     0.60786   0.00196   0.14029   0.00000  Uiso   1.00
H148   H     0.65090   0.14235   0.28601   0.00000  Uiso   1.00
H149   H     0.56960   0.29973   0.09107   0.00000  Uiso   1.00
H150   H     0.60095   0.01472   0.07543   0.00000  Uiso   1.00
H151   H     0.54284   0.01243   0.09539   0.00000  Uiso   1.00
H152   H     0.44283   0.29379   0.36803   0.00000  Uiso   1.00
H153   H     0.48132   0.28196   0.39030   0.00000  Uiso   1.00
H154   H     0.39702   0.32210   0.43429   0.00000  Uiso   1.00
H155   H     0.43721   0.31250   0.45654   0.00000  Uiso   1.00
H156   H     0.49289   0.02730   0.41387   0.00000  Uiso   1.00
H157   H     0.44673   0.05320   0.44308   0.00000  Uiso   1.00
H158   H     0.45276   0.03721   0.39134   0.00000  Uiso   1.00
H159   H     0.45890   0.33243   0.28552   0.00000  Uiso   1.00
H160   H     0.40727   0.13874   0.12212   0.00000  Uiso   1.00
H161   H     0.40542   0.12053   0.07287   0.00000  Uiso   1.00
H162   H     0.34963   0.18630   0.12822   0.00000  Uiso   1.00
H163   H     0.34527   0.16271   0.08040   0.00000  Uiso   1.00
H164   H     0.65820   0.09233   0.10594   0.00000  Uiso   1.00
H165   H     0.62194   0.12951   0.13462   0.00000  Uiso   1.00
H166   H     0.66284   0.11614   0.15390   0.00000  Uiso   1.00
H167   H     0.49102   0.18170   0.09929   0.00000  Uiso   1.00
H168   H     0.57250   0.09047   0.09611   0.00000  Uiso   1.00
H169   H     0.56040   0.07706   0.46524   0.00000  Uiso   1.00
H170   H     0.39960   0.24463   0.47976   0.00000  Uiso   1.00
H171   H     0.51006   0.15301   0.40206   0.00000  Uiso   1.00
H172   H     0.52413   0.10939   0.43130   0.00000  Uiso   1.00
O173   O     0.50000   0.16667   0.25000   0.00000  Uiso   1.00
O174   O     0.49027   0.12393   0.16625   0.00000  Uiso   1.00
O175   O     0.46020   0.20646   0.33749   0.00000  Uiso   1.00
O176   O     0.54421   0.17493   0.15877   0.00000  Uiso   1.00
O177   O     0.50532   0.16135   0.33749   0.00000  Uiso   1.00
O178   O     0.58648   0.06387   0.02048   0.00000  Uiso   1.00
O179   O     0.35755   0.19534   0.20611   0.00000  Uiso   1.00
O180   O     0.54754   0.00654   0.20764   0.00000  Uiso   1.00
O181   O     0.41885   0.24698   0.40400   0.00000  Uiso   1.00
O182   O     0.42888   0.18465   0.08501   0.00000  Uiso   1.00
O183   O     0.51182   0.08101   0.27820   0.00000  Uiso   1.00
O184   O     0.47914   0.26136   0.26767   0.00000  Uiso   1.00
O185   O     0.40785   0.13251   0.23607   0.00000  Uiso   1.00
O186   O     0.60119   0.19179   0.21806   0.00000  Uiso   1.00
O187   O     0.40323   0.18960   0.27820   0.00000  Uiso   1.00
O188   O     0.58773   0.15277   0.26768   0.00000  Uiso   1.00
O189   O     0.47133   0.06903   0.23607   0.00000  Uiso   1.00
O190   O     0.53771   0.25527   0.21806   0.00000  Uiso   1.00
Zn191  Zn    0.52577   0.14090   0.28278   0.00000  Uiso   1.00
Zn192  Zn    0.46792   0.12378   0.22258   0.00000  Uiso   1.00
Zn193  Zn    0.54500   0.19664   0.21188   0.00000  Uiso   1.00
Zn194  Zn    0.46131   0.20535   0.28277   0.00000  Uiso   1.00
C195   C     0.71907   0.15975   0.25898   0.00000  Uiso   1.00
C196   C     0.85220   0.12006   0.46219   0.00000  Uiso   1.00
C197   C     0.87308   0.10047   0.48196   0.00000  Uiso   1.00
C198   C     0.94782   0.17372   0.24110   0.00000  Uiso   1.00
C199   C     0.86906   0.11199   0.02194   0.00000  Uiso   1.00
C200   C     0.84073   0.14205   0.04327   0.00000  Uiso   1.00
C201   C     0.89368   0.09436   0.04076   0.00000  Uiso   1.00
C202   C     0.88903   0.10561   0.08098   0.00000  Uiso   1.00
C203   C     0.84068   0.15564   0.08261   0.00000  Uiso   1.00
C204   C     0.99417   0.17670   0.23716   0.00000  Uiso   1.00
C205   C     0.67379   0.15795   0.26200   0.00000  Uiso   1.00
C206   C     0.77059   0.22281   0.42207   0.00000  Uiso   1.00
C207   C     0.84658   0.32187   0.23620   0.00000  Uiso   1.00
C208   C     0.81833   0.01209   0.26189   0.00000  Uiso   1.00
C209   C     0.82221   0.05618   0.25915   0.00000  Uiso   1.00
C210   C     0.84332   0.27763   0.24097   0.00000  Uiso   1.00
C211   C     0.85486   0.14526   0.14399   0.00000  Uiso   1.00
C212   C     0.81205   0.18796   0.35631   0.00000  Uiso   1.00
C213   C     0.80053   0.19496   0.39994   0.00000  Uiso   1.00
C214   C     0.86297   0.13635   0.10155   0.00000  Uiso   1.00
C215   C     0.75713   0.22435   0.46315   0.00000  Uiso   1.00
C216   C     0.96351   0.08139   0.01313   0.00000  Uiso   1.00
C217   C     0.81873   0.17182   0.41982   0.00000  Uiso   1.00
C218   C     0.69499   0.23901   0.21621   0.00000  Uiso   1.00
C219   C     0.87248   0.32954   0.17056   0.00000  Uiso   1.00
C220   C     0.91146   0.01378   0.13885   0.00000  Uiso   1.00
C221   C     0.90571   0.00099   0.09766   0.00000  Uiso   1.00
C222   C     0.77952   0.28485   0.39578   0.00000  Uiso   1.00
C223   C     0.76541   0.31981   0.42894   0.00000  Uiso   1.00
C224   C     0.79113   0.02862   0.41853   0.00000  Uiso   1.00
C225   C     0.73396   0.14798   0.09589   0.00000  Uiso   1.00
C226   C     0.68688   0.15739   0.10724   0.00000  Uiso   1.00
C227   C     0.98896   0.12150   0.12657   0.00000  Uiso   1.00
C228   C     0.80615   0.17376   0.46134   0.00000  Uiso   1.00
C229   C     0.77490   0.20058   0.48282   0.00000  Uiso   1.00
C230   C     0.82471   0.15083   0.48204   0.00000  Uiso   1.00
C231   C     0.81517   0.15868   0.02395   0.00000  Uiso   1.00
C232   C     0.77988   0.18209   0.04454   0.00000  Uiso   1.00
C233   C     0.76128   0.20338   0.02383   0.00000  Uiso   1.00
H234   H     0.73577   0.22236   0.04024   0.00000  Uiso   1.00
H235   H     0.97304   0.08990   0.04097   0.00000  Uiso   1.00
H236   H     0.97004   0.10913   0.49636   0.00000  Uiso   1.00
H237   H     0.98427   0.05766   0.49478   0.00000  Uiso   1.00
H238   H     0.70554   0.24763   0.24358   0.00000  Uiso   1.00
H239   H     0.99767   0.25210   0.21952   0.00000  Uiso   1.00
H240   H     0.72029   0.25367   0.19199   0.00000  Uiso   1.00
H241   H     0.84336   0.01018   0.17037   0.00000  Uiso   1.00
H242   H     0.86719   0.29502   0.16319   0.00000  Uiso   1.00
H243   H     0.91566   0.04845   0.14447   0.00000  Uiso   1.00
H244   H     0.94119   0.00196   0.14029   0.00000  Uiso   1.00
H245   H     0.98423   0.14235   0.28601   0.00000  Uiso   1.00
H246   H     0.90293   0.29973   0.09107   0.00000  Uiso   1.00
H247   H     0.93429   0.01472   0.07543   0.00000  Uiso   1.00
H248   H     0.87617   0.01243   0.09539   0.00000  Uiso   1.00
H249   H     0.77616   0.29379   0.36803   0.00000  Uiso   1.00
H250   H     0.81465   0.28196   0.39030   0.00000  Uiso   1.00
H251   H     0.73036   0.32210   0.43429   0.00000  Uiso   1.00
H252   H     0.77054   0.31250   0.45654   0.00000  Uiso   1.00
H253   H     0.82623   0.02730   0.41387   0.00000  Uiso   1.00
H254   H     0.78006   0.05320   0.44308   0.00000  Uiso   1.00
H255   H     0.78609   0.03721   0.39134   0.00000  Uiso   1.00
H256   H     0.79223   0.33243   0.28552   0.00000  Uiso   1.00
H257   H     0.74060   0.13874   0.12212   0.00000  Uiso   1.00
H258   H     0.73875   0.12053   0.07287   0.00000  Uiso   1.00
H259   H     0.68296   0.18630   0.12822   0.00000  Uiso   1.00
H260   H     0.67860   0.16271   0.08040   0.00000  Uiso   1.00
H261   H     0.99153   0.09233   0.10594   0.00000  Uiso   1.00
H262   H     0.95527   0.12951   0.13462   0.00000  Uiso   1.00
H263   H     0.99617   0.11614   0.15390   0.00000  Uiso   1.00
H264   H     0.82436   0.18170   0.09929   0.00000  Uiso   1.00
H265   H     0.90584   0.09047   0.09611   0.00000  Uiso   1.00
H266   H     0.89374   0.07706   0.46524   0.00000  Uiso   1.00
H267   H     0.73293   0.24463   0.47976   0.00000  Uiso   1.00
H268   H     0.84339   0.15301   0.40206   0.00000  Uiso   1.00
H269   H     0.85746   0.10939   0.43130   0.00000  Uiso   1.00
O270   O     0.83333   0.16667   0.25000   0.00000  Uiso   1.00
O271   O     0.82360   0.12393   0.16625   0.00000  Uiso   1.00
O272   O     0.79354   0.20646   0.33749   0.00000  Uiso   1.00
O273   O     0.87755   0.17493   0.15877   0.00000  Uiso   1.00
O274   O     0.83865   0.16135   0.33749   0.00000  Uiso   1.00
O275   O     0.91982   0.06387   0.02048   0.00000  Uiso   1.00
O276   O     0.69089   0.19534   0.20611   0.00000  Uiso   1.00
O277   O     0.88088   0.00654   0.20764   0.00000  Uiso   1.00
O278   O     0.75218   0.24698   0.40400   0.00000  Uiso   1.00
O279   O     0.76221   0.18465   0.08501   0.00000  Uiso   1.00
O280   O     0.84515   0.08101   0.27820   0.00000  Uiso   1.00
O281   O     0.81247   0.26136   0.26767   0.00000  Uiso   1.00
O282   O     0.74119   0.13251   0.23607   0.00000  Uiso   1.00
O283   O     0.93452   0.19179   0.21806   0.00000  Uiso   1.00
O284   O     0.73656   0.18960   0.27820   0.00000  Uiso   1.00
O285   O     0.92106   0.15277   0.26768   0.00000  Uiso   1.00
O286   O     0.80467   0.06903   0.23607   0.00000  Uiso   1.00
O287   O     0.87104   0.25527   0.21806   0.00000  Uiso   1.00
Zn288  Zn    0.85910   0.14090   0.28278   0.00000  Uiso   1.00
Zn289  Zn    0.80125   0.12378   0.22258   0.00000  Uiso   1.00
Zn290  Zn    0.87833   0.19664   0.21188   0.00000  Uiso   1.00
Zn291  Zn    0.79465   0.20535   0.28277   0.00000  Uiso   1.00
C292   C     0.05240   0.49308   0.25898   0.00000  Uiso   1.00
C293   C     0.18553   0.45339   0.46219   0.00000  Uiso   1.00
C294   C     0.20642   0.43380   0.48196   0.00000  Uiso   1.00
C295   C     0.28116   0.50705   0.24110   0.00000  Uiso   1.00
C296   C     0.20239   0.44533   0.02194   0.00000  Uiso   1.00
C297   C     0.17407   0.47538   0.04327   0.00000  Uiso   1.00
C298   C     0.22701   0.42769   0.04076   0.00000  Uiso   1.00
C299   C     0.22236   0.43894   0.08098   0.00000  Uiso   1.00
C300   C     0.17401   0.48897   0.08261   0.00000  Uiso   1.00
C301   C     0.32750   0.51003   0.23716   0.00000  Uiso   1.00
C302   C     0.00712   0.49128   0.26200   0.00000  Uiso   1.00
C303   C     0.10392   0.55614   0.42207   0.00000  Uiso   1.00
C304   C     0.17992   0.65521   0.23620   0.00000  Uiso   1.00
C305   C     0.15166   0.34542   0.26189   0.00000  Uiso   1.00
C306   C     0.15555   0.38951   0.25915   0.00000  Uiso   1.00
C307   C     0.17665   0.61097   0.24097   0.00000  Uiso   1.00
C308   C     0.18819   0.47859   0.14399   0.00000  Uiso   1.00
C309   C     0.14538   0.52130   0.35631   0.00000  Uiso   1.00
C310   C     0.13386   0.52829   0.39994   0.00000  Uiso   1.00
C311   C     0.19630   0.46968   0.10155   0.00000  Uiso   1.00
C312   C     0.09047   0.55768   0.46315   0.00000  Uiso   1.00
C313   C     0.29685   0.41472   0.01313   0.00000  Uiso   1.00
C314   C     0.15206   0.50516   0.41982   0.00000  Uiso   1.00
C315   C     0.02833   0.57234   0.21621   0.00000  Uiso   1.00
C316   C     0.20582   0.66287   0.17056   0.00000  Uiso   1.00
C317   C     0.24479   0.34711   0.13885   0.00000  Uiso   1.00
C318   C     0.23904   0.33432   0.09766   0.00000  Uiso   1.00
C319   C     0.11286   0.61818   0.39578   0.00000  Uiso   1.00
C320   C     0.09874   0.65315   0.42894   0.00000  Uiso   1.00
C321   C     0.12446   0.36195   0.41853   0.00000  Uiso   1.00
C322   C     0.06729   0.48132   0.09589   0.00000  Uiso   1.00
C323   C     0.02021   0.49072   0.10724   0.00000  Uiso   1.00
C324   C     0.32230   0.45483   0.12657   0.00000  Uiso   1.00
C325   C     0.13949   0.50710   0.46134   0.00000  Uiso   1.00
C326   C     0.10823   0.53392   0.48282   0.00000  Uiso   1.00
C327   C     0.15804   0.48417   0.48204   0.00000  Uiso   1.00
C328   C     0.14850   0.49201   0.02395   0.00000  Uiso   1.00
C329   C     0.11321   0.51542   0.04454   0.00000  Uiso   1.00
C330   C     0.09461   0.53671   0.02383   0.00000  Uiso   1.00
H331   H     0.06911   0.55569   0.04024   0.00000  Uiso   1.00
H332   H     0.30637   0.42323   0.04097   0.00000  Uiso   1.00
H333   H     0.30337   0.44246   0.49636   0.00000  Uiso   1.00
H334   H     0.31760   0.39100   0.49478   0.00000  Uiso   1.00
H335   H     0.03887   0.58097   0.24358   0.00000  Uiso   1.00
H336   H     0.33100   0.58544   0.21952   0.00000  Uiso   1.00
H337   H     0.05363   0.58701   0.19199   0.00000  Uiso   1.00
H338   H     0.17669   0.34352   0.17037   0.00000  Uiso   1.00
H339   H     0.20052   0.62836   0.16319   0.00000  Uiso   1.00
H340   H     0.24899   0.38179   0.14447   0.00000  Uiso   1.00
H341   H     0.27452   0.33529   0.14029   0.00000  Uiso   1.00
H342   H     0.31756   0.47568   0.28601   0.00000  Uiso   1.00
H343   H     0.23627   0.63306   0.09107   0.00000  Uiso   1.00
H344   H     0.26762   0.34806   0.07543   0.00000  Uiso   1.00
H345   H     0.20951   0.34577   0.09539   0.00000  Uiso   1.00
H346   H     0.10949   0.62712   0.36803   0.00000  Uiso   1.00
H347   H     0.14799   0.61529   0.39030   0.00000  Uiso   1.00
H348   H     0.06369   0.65543   0.43429   0.00000  Uiso   1.00
H349   H     0.10388   0.64584   0.45654   0.00000  Uiso   1.00
H350   H     0.15956   0.36064   0.41387   0.00000  Uiso   1.00
H351   H     0.11340   0.38653   0.44308   0.00000  Uiso   1.00
H352   H     0.11942   0.37054   0.39134   0.00000  Uiso   1.00
H353   H     0.12556   0.66576   0.28552   0.00000  Uiso   1.00
H354   H     0.07393   0.47208   0.12212   0.00000  Uiso   1.00
H355   H     0.07208   0.45386   0.07287   0.00000  Uiso   1.00
H356   H     0.01629   0.51963   0.12822   0.00000  Uiso   1.00
H357   H     0.01194   0.49604   0.08040   0.00000  Uiso   1.00
H358   H     0.32486   0.42566   0.10594   0.00000  Uiso   1.00
H359   H     0.28860   0.46285   0.13462   0.00000  Uiso   1.00
H360   H     0.32950   0.44948   0.15390   0.00000  Uiso   1.00
H361   H     0.15769   0.51504   0.09929   0.00000  Uiso   1.00
H362   H     0.23917   0.42380   0.09611   0.00000  Uiso   1.00
H363   H     0.22707   0.41040   0.46524   0.00000  Uiso   1.00
H364   H     0.06626   0.57797   0.47976   0.00000  Uiso   1.00
H365   H     0.17672   0.48634   0.40206   0.00000  Uiso   1.00
H366   H     0.19080   0.44272   0.43130   0.00000  Uiso   1.00
O367   O     0.16667   0.50000   0.25000   0.00000  Uiso   1.00
O368   O     0.15693   0.45726   0.16625   0.00000  Uiso   1.00
O369   O     0.12687   0.53979   0.33749   0.00000  Uiso   1.00
O370   O     0.21088   0.50826   0.15877   0.00000  Uiso   1.00
O371   O     0.17198   0.49468   0.33749   0.00000  Uiso   1.00
O372   O     0.25315   0.39720   0.02048   0.00000  Uiso   1.00
O373   O     0.02422   0.52867   0.20611   0.00000  Uiso   1.00
O374   O     0.21421   0.33987   0.20764   0.00000  Uiso   1.00
O375   O     0.08551   0.58032   0.40400   0.00000  Uiso   1.00
O376   O     0.09555   0.51798   0.08501   0.00000  Uiso   1.00
O377   O     0.17849   0.41434   0.27820   0.00000  Uiso   1.00
O378   O     0.14581   0.59469   0.26767   0.00000  Uiso   1.00
O379   O     0.07452   0.46584   0.23607   0.00000  Uiso   1.00
O380   O     0.26785   0.52512   0.21806   0.00000  Uiso   1.00
O381   O     0.06990   0.52293   0.27820   0.00000  Uiso   1.00
O382   O     0.25440   0.48610   0.26768   0.00000  Uiso   1.00
O383   O     0.13800   0.40236   0.23607   0.00000  Uiso   1.00
O384   O     0.20437   0.58860   0.21806   0.00000  Uiso   1.00
Zn385  Zn    0.19244   0.47423   0.28278   0.00000  Uiso   1.00
Zn386  Zn    0.13459   0.45711   0.22258   0.00000  Uiso   1.00
Zn387  Zn    0.21166   0.52997   0.21188   0.00000  Uiso   1.00
Zn388  Zn    0.12798   0.53868   0.28277   0.00000  Uiso   1.00
C389   C     0.38573   0.49308   0.25898   0.00000  Uiso   1.00
C390   C     0.51886   0.45339   0.46219   0.00000  Uiso   1.00
C391   C     0.53975   0.43380   0.48196   0.00000  Uiso   1.00
C392   C     0.61449   0.50705   0.24110   0.00000  Uiso   1.00
C393   C     0.53573   0.44533   0.02194   0.00000  Uiso   1.00
C394   C     0.50740   0.47538   0.04327   0.00000  Uiso   1.00
C395   C     0.56035   0.42769   0.04076   0.00000  Uiso   1.00
C396   C     0.55569   0.43894   0.08098   0.00000  Uiso   1.00
C397   C     0.50734   0.48897   0.08261   0.00000  Uiso   1.00
C398   C     0.66084   0.51003   0.23716   0.00000  Uiso   1.00
C399   C     0.34046   0.49128   0.26200   0.00000  Uiso   1.00
C400   C     0.43725   0.55614   0.42207   0.00000  Uiso   1.00
C401   C     0.51325   0.65521   0.23620   0.00000  Uiso   1.00
C402   C     0.48500   0.34542   0.26189   0.00000  Uiso   1.00
C403   C     0.48888   0.38951   0.25915   0.00000  Uiso   1.00
C404   C     0.50998   0.61097   0.24097   0.00000  Uiso   1.00
C405   C     0.52152   0.47859   0.14399   0.00000  Uiso   1.00
C406   C     0.47872   0.52130   0.35631   0.00000  Uiso   1.00
C407   C     0.46720   0.52829   0.39994   0.00000  Uiso   1.00
C408   C     0.52963   0.46968   0.10155   0.00000  Uiso   1.00
C409   C     0.42380   0.55768   0.46315   0.00000  Uiso   1.00
C410   C     0.63018   0.41472   0.01313   0.00000  Uiso   1.00
C411   C     0.48540   0.50516   0.41982   0.00000  Uiso   1.00
C412   C     0.36166   0.57234   0.21621   0.00000  Uiso   1.00
C413   C     0.53915   0.66287   0.17056   0.00000  Uiso   1.00
C414   C     0.57812   0.34711   0.13885   0.00000  Uiso   1.00
C415   C     0.57238   0.33432   0.09766   0.00000  Uiso   1.00
C416   C     0.44619   0.61818   0.39578   0.00000  Uiso   1.00
C417   C     0.43207   0.65315   0.42894   0.00000  Uiso   1.00
C418   C     0.45780   0.36195   0.41853   0.00000  Uiso   1.00
C419   C     0.40062   0.48132   0.09589   0.00000  Uiso   1.00
C420   C     0.35355   0.49072   0.10724   0.00000  Uiso   1.00
C421   C     0.65563   0.45483   0.12657   0.00000  Uiso   1.00
C422   C     0.47282   0.50710   0.46134   0.00000  Uiso   1.00
C423   C     0.44157   0.53392   0.48282   0.00000  Uiso   1.00
C424   C     0.49137   0.48417   0.48204   0.00000  Uiso   1.00
C425   C     0.48183   0.49201   0.02395   0.00000  Uiso   1.00
C426   C     0.44654   0.51542   0.04454   0.00000  Uiso   1.00
C427   C     0.42794   0.53671   0.02383   0.00000  Uiso   1.00
H428   H     0.40244   0.55569   0.04024   0.00000  Uiso   1.00
H429   H     0.63970   0.42323   0.04097   0.00000  Uiso   1.00
H430   H     0.63670   0.44246   0.49636   0.00000  Uiso   1.00
H431   H     0.65093   0.39100   0.49478   0.00000  Uiso   1.00
H432   H     0.37221   0.58097   0.24358   0.00000  Uiso   1.00
H433   H     0.66434   0.58544   0.21952   0.00000  Uiso   1.00
H434   H     0.38696   0.58701   0.19199   0.00000  Uiso   1.00
H435   H     0.51002   0.34352   0.17037   0.00000  Uiso   1.00
H436   H     0.53386   0.62836   0.16319   0.00000  Uiso   1.00
H437   H     0.58233   0.38179   0.14447   0.00000  Uiso   1.00
H438   H     0.60786   0.33529   0.14029   0.00000  Uiso   1.00
H439   H     0.65090   0.47568   0.28601   0.00000  Uiso   1.00
H440   H     0.56960   0.63306   0.09107   0.00000  Uiso   1.00
H441   H     0.60095   0.34806   0.07543   0.00000  Uiso   1.00
H442   H     0.54284   0.34577   0.09539   0.00000  Uiso   1.00
H443   H     0.44283   0.62712   0.36803   0.00000  Uiso   1.00
H444   H     0.48132   0.61529   0.39030   0.00000  Uiso   1.00
H445   H     0.39702   0.65543   0.43429   0.00000  Uiso   1.00
H446   H     0.43721   0.64584   0.45654   0.00000  Uiso   1.00
H447   H     0.49289   0.36064   0.41387   0.00000  Uiso   1.00
H448   H     0.44673   0.38653   0.44308   0.00000  Uiso   1.00
H449   H     0.45276   0.37054   0.39134   0.00000  Uiso   1.00
H450   H     0.45890   0.66576   0.28552   0.00000  Uiso   1.00
H451   H     0.40727   0.47208   0.12212   0.00000  Uiso   1.00
H452   H     0.40542   0.45386   0.07287   0.00000  Uiso   1.00
H453   H     0.34963   0.51963   0.12822   0.00000  Uiso   1.00
H454   H     0.34527   0.49604   0.08040   0.00000  Uiso   1.00
H455   H     0.65820   0.42566   0.10594   0.00000  Uiso   1.00
H456   H     0.62194   0.46285   0.13462   0.00000  Uiso   1.00
H457   H     0.66284   0.44948   0.15390   0.00000  Uiso   1.00
H458   H     0.49102   0.51504   0.09929   0.00000  Uiso   1.00
H459   H     0.57250   0.42380   0.09611   0.00000  Uiso   1.00
H460   H     0.56040   0.41040   0.46524   0.00000  Uiso   1.00
H461   H     0.39960   0.57797   0.47976   0.00000  Uiso   1.00
H462   H     0.51006   0.48634   0.40206   0.00000  Uiso   1.00
H463   H     0.52413   0.44272   0.43130   0.00000  Uiso   1.00
O464   O     0.50000   0.50000   0.25000   0.00000  Uiso   1.00
O465   O     0.49027   0.45726   0.16625   0.00000  Uiso   1.00
O466   O     0.46020   0.53979   0.33749   0.00000  Uiso   1.00
O467   O     0.54421   0.50826   0.15877   0.00000  Uiso   1.00
O468   O     0.50532   0.49468   0.33749   0.00000  Uiso   1.00
O469   O     0.58648   0.39720   0.02048   0.00000  Uiso   1.00
O470   O     0.35755   0.52867   0.20611   0.00000  Uiso   1.00
O471   O     0.54754   0.33987   0.20764   0.00000  Uiso   1.00
O472   O     0.41885   0.58032   0.40400   0.00000  Uiso   1.00
O473   O     0.42888   0.51798   0.08501   0.00000  Uiso   1.00
O474   O     0.51182   0.41434   0.27820   0.00000  Uiso   1.00
O475   O     0.47914   0.59469   0.26767   0.00000  Uiso   1.00
O476   O     0.40785   0.46584   0.23607   0.00000  Uiso   1.00
O477   O     0.60119   0.52512   0.21806   0.00000  Uiso   1.00
O478   O     0.40323   0.52293   0.27820   0.00000  Uiso   1.00
O479   O     0.58773   0.48610   0.26768   0.00000  Uiso   1.00
O480   O     0.47133   0.40236   0.23607   0.00000  Uiso   1.00
O481   O     0.53771   0.58860   0.21806   0.00000  Uiso   1.00
Zn482  Zn    0.52577   0.47423   0.28278   0.00000  Uiso   1.00
Zn483  Zn    0.46792   0.45711   0.22258   0.00000  Uiso   1.00
Zn484  Zn    0.54500   0.52997   0.21188   0.00000  Uiso   1.00
Zn485  Zn    0.46131   0.53868   0.28277   0.00000  Uiso   1.00
C486   C     0.71907   0.49308   0.25898   0.00000  Uiso   1.00
C487   C     0.85220   0.45339   0.46219   0.00000  Uiso   1.00
C488   C     0.87308   0.43380   0.48196   0.00000  Uiso   1.00
C489   C     0.94782   0.50705   0.24110   0.00000  Uiso   1.00
C490   C     0.86906   0.44533   0.02194   0.00000  Uiso   1.00
C491   C     0.84073   0.47538   0.04327   0.00000  Uiso   1.00
C492   C     0.89368   0.42769   0.04076   0.00000  Uiso   1.00
C493   C     0.88903   0.43894   0.08098   0.00000  Uiso   1.00
C494   C     0.84068   0.48897   0.08261   0.00000  Uiso   1.00
C495   C     0.99417   0.51003   0.23716   0.00000  Uiso   1.00
C496   C     0.67379   0.49128   0.26200   0.00000  Uiso   1.00
C497   C     0.77059   0.55614   0.42207   0.00000  Uiso   1.00
C498   C     0.84658   0.65521   0.23620   0.00000  Uiso   1.00
C499   C     0.81833   0.34542   0.26189   0.00000  Uiso   1.00
C500   C     0.82221   0.38951   0.25915   0.00000  Uiso   1.00
C501   C     0.84332   0.61097   0.24097   0.00000  Uiso   1.00
C502   C     0.85486   0.47859   0.14399   0.00000  Uiso   1.00
C503   C     0.81205   0.52130   0.35631   0.00000  Uiso   1.00
C504   C     0.80053   0.52829   0.39994   0.00000  Uiso   1.00
C505   C     0.86297   0.46968   0.10155   0.00000  Uiso   1.00
C506   C     0.75713   0.55768   0.46315   0.00000  Uiso   1.00
C507   C     0.96351   0.41472   0.01313   0.00000  Uiso   1.00
C508   C     0.81873   0.50516   0.41982   0.00000  Uiso   1.00
C509   C     0.69499   0.57234   0.21621   0.00000  Uiso   1.00
C510   C     0.87248   0.66287   0.17056   0.00000  Uiso   1.00
C511   C     0.91146   0.34711   0.13885   0.00000  Uiso   1.00
C512   C     0.90571   0.33432   0.09766   0.00000  Uiso   1.00
C513   C     0.77952   0.61818   0.39578   0.00000  Uiso   1.00
C514   C     0.76541   0.65315   0.42894   0.00000  Uiso   1.00
C515   C     0.79113   0.36195   0.41853   0.00000  Uiso   1.00
C516   C     0.73396   0.48132   0.09589   0.00000  Uiso   1.00
C517   C     0.68688   0.49072   0.10724   0.00000  Uiso   1.00
C518   C     0.98896   0.45483   0.12657   0.00000  Uiso   1.00
C519   C     0.80615   0.50710   0.46134   0.00000  Uiso   1.00
C520   C     0.77490   0.53392   0.48282   0.00000  Uiso   1.00
C521   C     0.82471   0.48417   0.48204   0.00000  Uiso   1.00
C522   C     0.81517   0.49201   0.02395   0.00000  Uiso   1.00
C523   C     0.77988   0.51542   0.04454   0.00000  Uiso   1.00
C524   C     0.76128   0.53671   0.02383   0.00000  Uiso   1.00
H525   H     0.73577   0.55569   0.04024   0.00000  Uiso   1.00
H526   H     0.97304   0.42323   0.04097   0.00000  Uiso   1.00
H527   H     0.97004   0.44246   0.49636   0.00000  Uiso   1.00
H528   H     0.98427   0.39100   0.49478   0.00000  Uiso   1.00
H529   H     0.70554   0.58097   0.24358   0.00000  Uiso   1.00
H530   H     0.99767   0.58544   0.21952   0.00000  Uiso   1.00
H531   H     0.72029   0.58701   0.19199   0.00000  Uiso   1.00
H532   H     0.84336   0.34352   0.17037   0.00000  Uiso   1.00
H533   H     0.86719   0.62836   0.16319   0.00000  Uiso   1.00
H534   H     0.91566   0.38179   0.14447   0.00000  Uiso   1.00
H535   H     0.94119   0.33529   0.14029   0.00000  Uiso   1.00
H536   H     0.98423   0.47568   0.28601   0.00000  Uiso   1.00
H537   H     0.90293   0.63306   0.09107   0.00000  Uiso   1.00
H538   H     0.93429   0.34806   0.07543   0.00000  Uiso   1.00
H539   H     0.87617   0.34577   0.09539   0.00000  Uiso   1.00
H540   H     0.77616   0.62712   0.36803   0.00000  Uiso   1.00
H541   H     0.81465   0.61529   0.39030   0.00000  Uiso   1.00
H542   H     0.73036   0.65543   0.43429   0.00000  Uiso   1.00
H543   H     0.77054   0.64584   0.45654   0.00000  Uiso   1.00
H544   H     0.82623   0.36064   0.41387   0.00000  Uiso   1.00
H545   H     0.78006   0.38653   0.44308   0.00000  Uiso   1.00
H546   H     0.78609   0.37054   0.39134   0.00000  Uiso   1.00
H547   H     0.79223   0.66576   0.28552   0.00000  Uiso   1.00
H548   H     0.74060   0.47208   0.12212   0.00000  Uiso   1.00
H549   H     0.73875   0.45386   0.07287   0.00000  Uiso   1.00
H550   H     0.68296   0.51963   0.12822   0.00000  Uiso   1.00
H551   H     0.67860   0.49604   0.08040   0.00000  Uiso   1.00
H552   H     0.99153   0.42566   0.10594   0.00000  Uiso   1.00
H553   H     0.95527   0.46285   0.13462   0.00000  Uiso   1.00
H554   H     0.99617   0.44948   0.15390   0.00000  Uiso   1.00
H555   H     0.82436   0.51504   0.09929   0.00000  Uiso   1.00
H556   H     0.90584   0.42380   0.09611   0.00000  Uiso   1.00
H557   H     0.89374   0.41040   0.46524   0.00000  Uiso   1.00
H558   H     0.73293   0.57797   0.47976   0.00000  Uiso   1.00
H559   H     0.84339   0.48634   0.40206   0.00000  Uiso   1.00
H560   H     0.85746   0.44272   0.43130   0.00000  Uiso   1.00
O561   O     0.83333   0.50000   0.25000   0.00000  Uiso   1.00
O562   O     0.82360   0.45726   0.16625   0.00000  Uiso   1.00
O563   O     0.79354   0.53979   0.33749   0.00000  Uiso   1.00
O564   O     0.87755   0.50826   0.15877   0.00000  Uiso   1.00
O565   O     0.83865   0.49468   0.33749   0.00000  Uiso   1.00
O566   O     0.91982   0.39720   0.02048   0.00000  Uiso   1.00
O567   O     0.69089   0.52867   0.20611   0.00000  Uiso   1.00
O568   O     0.88088   0.33987   0.20764   0.00000  Uiso   1.00
O569   O     0.75218   0.58032   0.40400   0.00000  Uiso   1.00
O570   O     0.76221   0.51798   0.08501   0.00000  Uiso   1.00
O571   O     0.84515   0.41434   0.27820   0.00000  Uiso   1.00
O572   O     0.81247   0.59469   0.26767   0.00000  Uiso   1.00
O573   O     0.74119   0.46584   0.23607   0.00000  Uiso   1.00
O574   O     0.93452   0.52512   0.21806   0.00000  Uiso   1.00
O575   O     0.73656   0.52293   0.27820   0.00000  Uiso   1.00
O576   O     0.92106   0.48610   0.26768   0.00000  Uiso   1.00
O577   O     0.80467   0.40236   0.23607   0.00000  Uiso   1.00
O578   O     0.87104   0.58860   0.21806   0.00000  Uiso   1.00
Zn579  Zn    0.85910   0.47423   0.28278   0.00000  Uiso   1.00
Zn580  Zn    0.80125   0.45711   0.22258   0.00000  Uiso   1.00
Zn581  Zn    0.87833   0.52997   0.21188   0.00000  Uiso   1.00
Zn582  Zn    0.79465   0.53868   0.28277   0.00000  Uiso   1.00
C583   C     0.05240   0.82641   0.25898   0.00000  Uiso   1.00
C584   C     0.18553   0.78672   0.46219   0.00000  Uiso   1.00
C585   C     0.20642   0.76714   0.48196   0.00000  Uiso   1.00
C586   C     0.28116   0.84038   0.24110   0.00000  Uiso   1.00
C587   C     0.20239   0.77866   0.02194   0.00000  Uiso   1.00
C588   C     0.17407   0.80871   0.04327   0.00000  Uiso   1.00
C589   C     0.22701   0.76102   0.04076   0.00000  Uiso   1.00
C590   C     0.22236   0.77228   0.08098   0.00000  Uiso   1.00
C591   C     0.17401   0.82231   0.08261   0.00000  Uiso   1.00
C592   C     0.32750   0.84336   0.23716   0.00000  Uiso   1.00
C593   C     0.00712   0.82462   0.26200   0.00000  Uiso   1.00
C594   C     0.10392   0.88948   0.42207   0.00000  Uiso   1.00
C595   C     0.17992   0.98854   0.23620   0.00000  Uiso   1.00
C596   C     0.15166   0.67875   0.26189   0.00000  Uiso   1.00
C597   C     0.15555   0.72285   0.25915   0.00000  Uiso   1.00
C598   C     0.17665   0.94430   0.24097   0.00000  Uiso   1.00
C599   C     0.18819   0.81192   0.14399   0.00000  Uiso   1.00
C600   C     0.14538   0.85463   0.35631   0.00000  Uiso   1.00
C601   C     0.13386   0.86163   0.39994   0.00000  Uiso   1.00
C602   C     0.19630   0.80302   0.10155   0.00000  Uiso   1.00
C603   C     0.09047   0.89102   0.46315   0.00000  Uiso   1.00
C604   C     0.29685   0.74806   0.01313   0.00000  Uiso   1.00
C605   C     0.15206   0.83849   0.41982   0.00000  Uiso   1.00
C606   C     0.02833   0.90567   0.21621   0.00000  Uiso   1.00
C607   C     0.20582   0.99620   0.17056   0.00000  Uiso   1.00
C608   C     0.24479   0.68045   0.13885   0.00000  Uiso   1.00
C609   C     0.23904   0.66765   0.09766   0.00000  Uiso   1.00
C610   C     0.11286   0.95152   0.39578   0.00000  Uiso   1.00
C611   C     0.09874   0.98648   0.42894   0.00000  Uiso   1.00
C612   C     0.12446   0.69528   0.41853   0.00000  Uiso   1.00
C613   C     0.06729   0.81465   0.09589   0.00000  Uiso   1.00
C614   C     0.02021   0.82406   0.10724   0.00000  Uiso   1.00
C615   C     0.32230   0.78817   0.12657   0.00000  Uiso   1.00
C616   C     0.13949   0.84043   0.46134   0.00000  Uiso   1.00
C617   C     0.10823   0.86725   0.48282   0.00000  Uiso   1.00
C618   C     0.15804   0.81750   0.48204   0.00000  Uiso   1.00
C619   C     0.14850   0.82535   0.02395   0.00000  Uiso   1.00
C620   C     0.11321   0.84876   0.04454   0.00000  Uiso   1.00
C621   C     0.09461   0.87004   0.02383   0.00000  Uiso   1.00
H622   H     0.06911   0.88903   0.04024   0.00000  Uiso   1.00
H623   H     0.30637   0.75656   0.04097   0.00000  Uiso   1.00
H624   H     0.30337   0.77579   0.49636   0.00000  Uiso   1.00
H625   H     0.31760   0.72433   0.49478   0.00000  Uiso   1.00
H626   H     0.03887   0.91430   0.24358   0.00000  Uiso   1.00
H627   H     0.33100   0.91877   0.21952   0.00000  Uiso   1.00
H628   H     0.05363   0.92034   0.19199   0.00000  Uiso   1.00
H629   H     0.17669   0.67685   0.17037   0.00000  Uiso   1.00
H630   H     0.20052   0.96169   0.16319   0.00000  Uiso   1.00
H631   H     0.24899   0.71512   0.14447   0.00000  Uiso   1.00
H632   H     0.27452   0.66863   0.14029   0.00000  Uiso   1.00
H633   H     0.31756   0.80901   0.28601   0.00000  Uiso   1.00
H634   H     0.23627   0.96640   0.09107   0.00000  Uiso   1.00
H635   H     0.26762   0.68139   0.07543   0.00000  Uiso   1.00
H636   H     0.20951   0.67910   0.09539   0.00000  Uiso   1.00
H637   H     0.10949   0.96045   0.36803   0.00000  Uiso   1.00
H638   H     0.14799   0.94863   0.39030   0.00000  Uiso   1.00
H639   H     0.06369   0.98877   0.43429   0.00000  Uiso   1.00
H640   H     0.10388   0.97917   0.45654   0.00000  Uiso   1.00
H641   H     0.15956   0.69397   0.41387   0.00000  Uiso   1.00
H642   H     0.11340   0.71986   0.44308   0.00000  Uiso   1.00
H643   H     0.11942   0.70387   0.39134   0.00000  Uiso   1.00
H644   H     0.12556   0.99909   0.28552   0.00000  Uiso   1.00
H645   H     0.07393   0.80541   0.12212   0.00000  Uiso   1.00
H646   H     0.07208   0.78719   0.07287   0.00000  Uiso   1.00
H647   H     0.01629   0.85296   0.12822   0.00000  Uiso   1.00
H648   H     0.01194   0.82938   0.08040   0.00000  Uiso   1.00
H649   H     0.32486   0.75900   0.10594   0.00000  Uiso   1.00
H650   H     0.28860   0.79618   0.13462   0.00000  Uiso   1.00
H651   H     0.32950   0.78281   0.15390   0.00000  Uiso   1.00
H652   H     0.15769   0.84837   0.09929   0.00000  Uiso   1.00
H653   H     0.23917   0.75714   0.09611   0.00000  Uiso   1.00
H654   H     0.22707   0.74373   0.46524   0.00000  Uiso   1.00
H655   H     0.06626   0.91130   0.47976   0.00000  Uiso   1.00
H656   H     0.17672   0.81968   0.40206   0.00000  Uiso   1.00
H657   H     0.19080   0.77605   0.43130   0.00000  Uiso   1.00
O658   O     0.16667   0.83333   0.25000   0.00000  Uiso   1.00
O659   O     0.15693   0.79060   0.16625   0.00000  Uiso   1.00
O660   O     0.12687   0.87313   0.33749   0.00000  Uiso   1.00
O661   O     0.21088   0.84159   0.15877   0.00000  Uiso   1.00
O662   O     0.17198   0.82802   0.33749   0.00000  Uiso   1.00
O663   O     0.25315   0.73053   0.02048   0.00000  Uiso   1.00
O664   O     0.02422   0.86200   0.20611   0.00000  Uiso   1.00
O665   O     0.21421   0.67320   0.20764   0.00000  Uiso   1.00
O666   O     0.08551   0.91365   0.40400   0.00000  Uiso   1.00
O667   O     0.09555   0.85131   0.08501   0.00000  Uiso   1.00
O668   O     0.17849   0.74768   0.27820   0.00000  Uiso   1.00
O669   O     0.14581   0.92803   0.26767   0.00000  Uiso   1.00
O670   O     0.07452   0.79917   0.23607   0.00000  Uiso   1.00
O671   O     0.26785   0.85845   0.21806   0.00000  Uiso   1.00
O672   O     0.06990   0.85627   0.27820   0.00000  Uiso   1.00
O673   O     0.25440   0.81944   0.26768   0.00000  Uiso   1.00
O674   O     0.13800   0.73570   0.23607   0.00000  Uiso   1.00
O675   O     0.20437   0.92193   0.21806   0.00000  Uiso   1.00
Zn676  Zn    0.19244   0.80756   0.28278   0.00000  Uiso   1.00
Zn677  Zn    0.13459   0.79044   0.22258   0.00000  Uiso   1.00
Zn678  Zn    0.21166   0.86331   0.21188   0.00000  Uiso   1.00
Zn679  Zn    0.12798   0.87202   0.28277   0.00000  Uiso   1.00
C680   C     0.38573   0.82641   0.25898   0.00000  Uiso   1.00
C681   C     0.51886   0.78672   0.46219   0.00000  Uiso   1.00
C682   C     0.53975   0.76714   0.48196   0.00000  Uiso   1.00
C683   C     0.61449   0.84038   0.24110   0.00000  Uiso   1.00
C684   C     0.53573   0.77866   0.02194   0.00000  Uiso   1.00
C685   C     0.50740   0.80871   0.04327   0.00000  Uiso   1.00
C686   C     0.56035   0.76102   0.04076   0.00000  Uiso   1.00
C687   C     0.55569   0.77228   0.08098   0.00000  Uiso   1.00
C688   C     0.50734   0.82231   0.08261   0.00000  Uiso   1.00
C689   C     0.66084   0.84336   0.23716   0.00000  Uiso   1.00
C690   C     0.34046   0.82462   0.26200   0.00000  Uiso   1.00
C691   C     0.43725   0.88948   0.42207   0.00000  Uiso   1.00
C692   C     0.51325   0.98854   0.23620   0.00000  Uiso   1.00
C693   C     0.48500   0.67875   0.26189   0.00000  Uiso   1.00
C694   C     0.48888   0.72285   0.25915   0.00000  Uiso   1.00
C695   C     0.50998   0.94430   0.24097   0.00000  Uiso   1.00
C696   C     0.52152   0.81192   0.14399   0.00000  Uiso   1.00
C697   C     0.47872   0.85463   0.35631   0.00000  Uiso   1.00
C698   C     0.46720   0.86163   0.39994   0.00000  Uiso   1.00
C699   C     0.52963   0.80302   0.10155   0.00000  Uiso   1.00
C700   C     0.42380   0.89102   0.46315   0.00000  Uiso   1.00
C701   C     0.63018   0.74806   0.01313   0.00000  Uiso   1.00
C702   C     0.48540   0.83849   0.41982   0.00000  Uiso   1.00
C703   C     0.36166   0.90567   0.21621   0.00000  Uiso   1.00
C704   C     0.53915   0.99620   0.17056   0.00000  Uiso   1.00
C705   C     0.57812   0.68045   0.13885   0.00000  Uiso   1.00
C706   C     0.57238   0.66765   0.09766   0.00000  Uiso   1.00
C707   C     0.44619   0.95152   0.39578   0.00000  Uiso   1.00
C708   C     0.43207   0.98648   0.42894   0.00000  Uiso   1.00
C709   C     0.45780   0.69528   0.41853   0.00000  Uiso   1.00
C710   C     0.40062   0.81465   0.09589   0.00000  Uiso   1.00
C711   C     0.35355   0.82406   0.10724   0.00000  Uiso   1.00
C712   C     0.65563   0.78817   0.12657   0.00000  Uiso   1.00
C713   C     0.47282   0.84043   0.46134   0.00000  Uiso   1.00
C714   C     0.44157   0.86725   0.48282   0.00000  Uiso   1.00
C715   C     0.49137   0.81750   0.48204   0.00000  Uiso   1.00
C716   C     0.48183   0.82535   0.02395   0.00000  Uiso   1.00
C717   C     0.44654   0.84876   0.04454   0.00000  Uiso   1.00
C718   C     0.42794   0.87004   0.02383   0.00000  Uiso   1.00
H719   H     0.40244   0.88903   0.04024   0.00000  Uiso   1.00
H720   H     0.63970   0.75656   0.04097   0.00000  Uiso   1.00
H721   H     0.63670   0.77579   0.49636   0.00000  Uiso   1.00
H722   H     0.65093   0.72433   0.49478   0.00000  Uiso   1.00
H723   H     0.37221   0.91430   0.24358   0.00000  Uiso   1.00
H724   H     0.66434   0.91877   0.21952   0.00000  Uiso   1.00
H725   H     0.38696   0.92034   0.19199   0.00000  Uiso   1.00
H726   H     0.51002   0.67685   0.17037   0.00000  Uiso   1.00
H727   H     0.53386   0.96169   0.16319   0.00000  Uiso   1.00
H728   H     0.58233   0.71512   0.14447   0.00000  Uiso   1.00
H729   H     0.60786   0.66863   0.14029   0.00000  Uiso   1.00
H730   H     0.65090   0.80901   0.28601   0.00000  Uiso   1.00
H731   H     0.56960   0.96640   0.09107   0.00000  Uiso   1.00
H732   H     0.60095   0.68139   0.07543   0.00000  Uiso   1.00
H733   H     0.54284   0.67910   0.09539   0.00000  Uiso   1.00
H734   H     0.44283   0.96045   0.36803   0.00000  Uiso   1.00
H735   H     0.48132   0.94863   0.39030   0.00000  Uiso   1.00
H736   H     0.39702   0.98877   0.43429   0.00000  Uiso   1.00
H737   H     0.43721   0.97917   0.45654   0.00000  Uiso   1.00
H738   H     0.49289   0.69397   0.41387   0.00000  Uiso   1.00
H739   H     0.44673   0.71986   0.44308   0.00000  Uiso   1.00
H740   H     0.45276   0.70387   0.39134   0.00000  Uiso   1.00
H741   H     0.45890   0.99909   0.28552   0.00000  Uiso   1.00
H742   H     0.40727   0.80541   0.12212   0.00000  Uiso   1.00
H743   H     0.40542   0.78719   0.07287   0.00000  Uiso   1.00
H744   H     0.34963   0.85296   0.12822   0.00000  Uiso   1.00
H745   H     0.34527   0.82938   0.08040   0.00000  Uiso   1.00
H746   H     0.65820   0.75900   0.10594   0.00000  Uiso   1.00
H747   H     0.62194   0.79618   0.13462   0.00000  Uiso   1.00
H748   H     0.66284   0.78281   0.15390   0.00000  Uiso   1.00
H749   H     0.49102   0.84837   0.09929   0.00000  Uiso   1.00
H750   H     0.57250   0.75714   0.09611   0.00000  Uiso   1.00
H751   H     0.56040   0.74373   0.46524   0.00000  Uiso   1.00
H752   H     0.39960   0.91130   0.47976   0.00000  Uiso   1.00
H753   H     0.51006   0.81968   0.40206   0.00000  Uiso   1.00
H754   H     0.52413   0.77605   0.43130   0.00000  Uiso   1.00
O755   O     0.50000   0.83333   0.25000   0.00000  Uiso   1.00
O756   O     0.49027   0.79060   0.16625   0.00000  Uiso   1.00
O757   O     0.46020   0.87313   0.33749   0.00000  Uiso   1.00
O758   O     0.54421   0.84159   0.15877   0.00000  Uiso   1.00
O759   O     0.50532   0.82802   0.33749   0.00000  Uiso   1.00
O760   O     0.58648   0.73053   0.02048   0.00000  Uiso   1.00
O761   O     0.35755   0.86200   0.20611   0.00000  Uiso   1.00
O762   O     0.54754   0.67320   0.20764   0.00000  Uiso   1.00
O763   O     0.41885   0.91365   0.40400   0.00000  Uiso   1.00
O764   O     0.42888   0.85131   0.08501   0.00000  Uiso   1.00
O765   O     0.51182   0.74768   0.27820   0.00000  Uiso   1.00
O766   O     0.47914   0.92803   0.26767   0.00000  Uiso   1.00
O767   O     0.40785   0.79917   0.23607   0.00000  Uiso   1.00
O768   O     0.60119   0.85845   0.21806   0.00000  Uiso   1.00
O769   O     0.40323   0.85627   0.27820   0.00000  Uiso   1.00
O770   O     0.58773   0.81944   0.26768   0.00000  Uiso   1.00
O771   O     0.47133   0.73570   0.23607   0.00000  Uiso   1.00
O772   O     0.53771   0.92193   0.21806   0.00000  Uiso   1.00
Zn773  Zn    0.52577   0.80756   0.28278   0.00000  Uiso   1.00
Zn774  Zn    0.46792   0.79044   0.22258   0.00000  Uiso   1.00
Zn775  Zn    0.54500   0.86331   0.21188   0.00000  Uiso   1.00
Zn776  Zn    0.46131   0.87202   0.28277   0.00000  Uiso   1.00
C777   C     0.71907   0.82641   0.25898   0.00000  Uiso   1.00
C778   C     0.85220   0.78672   0.46219   0.00000  Uiso   1.00
C779   C     0.87308   0.76714   0.48196   0.00000  Uiso   1.00
C780   C     0.94782   0.84038   0.24110   0.00000  Uiso   1.00
C781   C     0.86906   0.77866   0.02194   0.00000  Uiso   1.00
C782   C     0.84073   0.80871   0.04327   0.00000  Uiso   1.00
C783   C     0.89368   0.76102   0.04076   0.00000  Uiso   1.00
C784   C     0.88903   0.77228   0.08098   0.00000  Uiso   1.00
C785   C     0.84068   0.82231   0.08261   0.00000  Uiso   1.00
C786   C     0.99417   0.84336   0.23716   0.00000  Uiso   1.00
C787   C     0.67379   0.82462   0.26200   0.00000  Uiso   1.00
C788   C     0.77059   0.88948   0.42207   0.00000  Uiso   1.00
C789   C     0.84658   0.98854   0.23620   0.00000  Uiso   1.00
C790   C     0.81833   0.67875   0.26189   0.00000  Uiso   1.00
C791   C     0.82221   0.72285   0.25915   0.00000  Uiso   1.00
C792   C     0.84332   0.94430   0.24097   0.00000  Uiso   1.00
C793   C     0.85486   0.81192   0.14399   0.00000  Uiso   1.00
C794   C     0.81205   0.85463   0.35631   0.00000  Uiso   1.00
C795   C     0.80053   0.86163   0.39994   0.00000  Uiso   1.00
C796   C     0.86297   0.80302   0.10155   0.00000  Uiso   1.00
C797   C     0.75713   0.89102   0.46315   0.00000  Uiso   1.00
C798   C     0.96351   0.74806   0.01313   0.00000  Uiso   1.00
C799   C     0.81873   0.83849   0.41982   0.00000  Uiso   1.00
C800   C     0.69499   0.90567   0.21621   0.00000  Uiso   1.00
C801   C     0.87248   0.99620   0.17056   0.00000  Uiso   1.00
C802   C     0.91146   0.68045   0.13885   0.00000  Uiso   1.00
C803   C     0.90571   0.66765   0.09766   0.00000  Uiso   1.00
C804   C     0.77952   0.95152   0.39578   0.00000  Uiso   1.00
C805   C     0.76541   0.98648   0.42894   0.00000  Uiso   1.00
C806   C     0.79113   0.69528   0.41853   0.00000  Uiso   1.00
C807   C     0.73396   0.81465   0.09589   0.00000  Uiso   1.00
C808   C     0.68688   0.82406   0.10724   0.00000  Uiso   1.00
C809   C     0.98896   0.78817   0.12657   0.00000  Uiso   1.00
C810   C     0.80615   0.84043   0.46134   0.00000  Uiso   1.00
C811   C     0.77490   0.86725   0.48282   0.00000  Uiso   1.00
C812   C     0.82471   0.81750   0.48204   0.00000  Uiso   1.00
C813   C     0.81517   0.82535   0.02395   0.00000  Uiso   1.00
C814   C     0.77988   0.84876   0.04454   0.00000  Uiso   1.00
C815   C     0.76128   0.87004   0.02383   0.00000  Uiso   1.00
H816   H     0.73577   0.88903   0.04024   0.00000  Uiso   1.00
H817   H     0.97304   0.75656   0.04097   0.00000  Uiso   1.00
H818   H     0.97004   0.77579   0.49636   0.00000  Uiso   1.00
H819   H     0.98427   0.72433   0.49478   0.00000  Uiso   1.00
H820   H     0.70554   0.91430   0.24358   0.00000  Uiso   1.00
H821   H     0.99767   0.91877   0.21952   0.00000  Uiso   1.00
H822   H     0.72029   0.92034   0.19199   0.00000  Uiso   1.00
H823   H     0.84336   0.67685   0.17037   0.00000  Uiso   1.00
H824   H     0.86719   0.96169   0.16319   0.00000  Uiso   1.00
H825   H     0.91566   0.71512   0.14447   0.00000  Uiso   1.00
H826   H     0.94119   0.66863   0.14029   0.00000  Uiso   1.00
H827   H     0.98423   0.80901   0.28601   0.00000  Uiso   1.00
H828   H     0.90293   0.96640   0.09107   0.00000  Uiso   1.00
H829   H     0.93429   0.68139   0.07543   0.00000  Uiso   1.00
H830   H     0.87617   0.67910   0.09539   0.00000  Uiso   1.00
H831   H     0.77616   0.96045   0.36803   0.00000  Uiso   1.00
H832   H     0.81465   0.94863   0.39030   0.00000  Uiso   1.00
H833   H     0.73036   0.98877   0.43429   0.00000  Uiso   1.00
H834   H     0.77054   0.97917   0.45654   0.00000  Uiso   1.00
H835   H     0.82623   0.69397   0.41387   0.00000  Uiso   1.00
H836   H     0.78006   0.71986   0.44308   0.00000  Uiso   1.00
H837   H     0.78609   0.70387   0.39134   0.00000  Uiso   1.00
H838   H     0.79223   0.99909   0.28552   0.00000  Uiso   1.00
H839   H     0.74060   0.80541   0.12212   0.00000  Uiso   1.00
H840   H     0.73875   0.78719   0.07287   0.00000  Uiso   1.00
H841   H     0.68296   0.85296   0.12822   0.00000  Uiso   1.00
H842   H     0.67860   0.82938   0.08040   0.00000  Uiso   1.00
H843   H     0.99153   0.75900   0.10594   0.00000  Uiso   1.00
H844   H     0.95527   0.79618   0.13462   0.00000  Uiso   1.00
H845   H     0.99617   0.78281   0.15390   0.00000  Uiso   1.00
H846   H     0.82436   0.84837   0.09929   0.00000  Uiso   1.00
H847   H     0.90584   0.75714   0.09611   0.00000  Uiso   1.00
H848   H     0.89374   0.74373   0.46524   0.00000  Uiso   1.00
H849   H     0.73293   0.91130   0.47976   0.00000  Uiso   1.00
H850   H     0.84339   0.81968   0.40206   0.00000  Uiso   1.00
H851   H     0.85746   0.77605   0.43130   0.00000  Uiso   1.00
O852   O     0.83333   0.83333   0.25000   0.00000  Uiso   1.00
O853   O     0.82360   0.79060   0.16625   0.00000  Uiso   1.00
O854   O     0.79354   0.87313   0.33749   0.00000  Uiso   1.00
O855   O     0.87755   0.84159   0.15877   0.00000  Uiso   1.00
O856   O     0.83865   0.82802   0.33749   0.00000  Uiso   1.00
O857   O     0.91982   0.73053   0.02048   0.00000  Uiso   1.00
O858   O     0.69089   0.86200   0.20611   0.00000  Uiso   1.00
O859   O     0.88088   0.67320   0.20764   0.00000  Uiso   1.00
O860   O     0.75218   0.91365   0.40400   0.00000  Uiso   1.00
O861   O     0.76221   0.85131   0.08501   0.00000  Uiso   1.00
O862   O     0.84515   0.74768   0.27820   0.00000  Uiso   1.00
O863   O     0.81247   0.92803   0.26767   0.00000  Uiso   1.00
O864   O     0.74119   0.79917   0.23607   0.00000  Uiso   1.00
O865   O     0.93452   0.85845   0.21806   0.00000  Uiso   1.00
O866   O     0.73656   0.85627   0.27820   0.00000  Uiso   1.00
O867   O     0.92106   0.81944   0.26768   0.00000  Uiso   1.00
O868   O     0.80467   0.73570   0.23607   0.00000  Uiso   1.00
O869   O     0.87104   0.92193   0.21806   0.00000  Uiso   1.00
Zn870  Zn    0.85910   0.80756   0.28278   0.00000  Uiso   1.00
Zn871  Zn    0.80125   0.79044   0.22258   0.00000  Uiso   1.00
Zn872  Zn    0.87833   0.86331   0.21188   0.00000  Uiso   1.00
Zn873  Zn    0.79465   0.87202   0.28277   0.00000  Uiso   1.00
C874   C     0.05240   0.15975   0.75898   0.00000  Uiso   1.00
C875   C     0.18553   0.12006   0.96219   0.00000  Uiso   1.00
C876   C     0.20642   0.10047   0.98196   0.00000  Uiso   1.00
C877   C     0.28116   0.17372   0.74110   0.00000  Uiso   1.00
C878   C     0.20239   0.11199   0.52194   0.00000  Uiso   1.00
C879   C     0.17407   0.14205   0.54327   0.00000  Uiso   1.00
C880   C     0.22701   0.09436   0.54076   0.00000  Uiso   1.00
C881   C     0.22236   0.10561   0.58098   0.00000  Uiso   1.00
C882   C     0.17401   0.15564   0.58261   0.00000  Uiso   1.00
C883   C     0.32750   0.17670   0.73716   0.00000  Uiso   1.00
C884   C     0.00712   0.15795   0.76200   0.00000  Uiso   1.00
C885   C     0.10392   0.22281   0.92207   0.00000  Uiso   1.00
C886   C     0.17992   0.32187   0.73620   0.00000  Uiso   1.00
C887   C     0.15166   0.01209   0.76189   0.00000  Uiso   1.00
C888   C     0.15555   0.05618   0.75915   0.00000  Uiso   1.00
C889   C     0.17665   0.27763   0.74097   0.00000  Uiso   1.00
C890   C     0.18819   0.14526   0.64399   0.00000  Uiso   1.00
C891   C     0.14538   0.18796   0.85631   0.00000  Uiso   1.00
C892   C     0.13386   0.19496   0.89994   0.00000  Uiso   1.00
C893   C     0.19630   0.13635   0.60155   0.00000  Uiso   1.00
C894   C     0.09047   0.22435   0.96315   0.00000  Uiso   1.00
C895   C     0.29685   0.08139   0.51313   0.00000  Uiso   1.00
C896   C     0.15206   0.17182   0.91982   0.00000  Uiso   1.00
C897   C     0.02833   0.23901   0.71621   0.00000  Uiso   1.00
C898   C     0.20582   0.32954   0.67056   0.00000  Uiso   1.00
C899   C     0.24479   0.01378   0.63885   0.00000  Uiso   1.00
C900   C     0.23904   0.00099   0.59766   0.00000  Uiso   1.00
C901   C     0.11286   0.28485   0.89578   0.00000  Uiso   1.00
C902   C     0.09874   0.31981   0.92894   0.00000  Uiso   1.00
C903   C     0.12446   0.02862   0.91853   0.00000  Uiso   1.00
C904   C     0.06729   0.14798   0.59589   0.00000  Uiso   1.00
C905   C     0.02021   0.15739   0.60724   0.00000  Uiso   1.00
C906   C     0.32230   0.12150   0.62657   0.00000  Uiso   1.00
C907   C     0.13949   0.17376   0.96134   0.00000  Uiso   1.00
C908   C     0.10823   0.20058   0.98282   0.00000  Uiso   1.00
C909   C     0.15804   0.15083   0.98204   0.00000  Uiso   1.00
C910   C     0.14850   0.15868   0.52395   0.00000  Uiso   1.00
C911   C     0.11321   0.18209   0.54454   0.00000  Uiso   1.00
C912   C     0.09461   0.20338   0.52383   0.00000  Uiso   1.00
H913   H     0.06911   0.22236   0.54024   0.00000  Uiso   1.00
H914   H     0.30637   0.08990   0.54097   0.00000  Uiso   1.00
H915   H     0.30337   0.10913   0.99636   0.00000  Uiso   1.00
H916   H     0.31760   0.05766   0.99478   0.00000  Uiso   1.00
H917   H     0.03887   0.24763   0.74358   0.00000  Uiso   1.00
H918   H     0.33100   0.25210   0.71952   0.00000  Uiso   1.00
H919   H     0.05363   0.25367   0.69199   0.00000  Uiso   1.00
H920   H     0.17669   0.01018   0.67037   0.00000  Uiso   1.00
H921   H     0.20052   0.29502   0.66319   0.00000  Uiso   1.00
H922   H     0.24899   0.04845   0.64447   0.00000  Uiso   1.00
H923   H     0.27452   0.00196   0.64029   0.00000  Uiso   1.00
H924   H     0.31756   0.14235   0.78601   0.00000  Uiso   1.00
H925   H     0.23627   0.29973   0.59107   0.00000  Uiso   1.00
H926   H     0.26762   0.01472   0.57543   0.00000  Uiso   1.00
H927   H     0.20951   0.01243   0.59539   0.00000  Uiso   1.00
H928   H     0.10949   0.29379   0.86803   0.00000  Uiso   1.00
H929   H     0.14799   0.28196   0.89030   0.00000  Uiso   1.00
H930   H     0.06369   0.32210   0.93429   0.00000  Uiso   1.00
H931   H     0.10388   0.31250   0.95654   0.00000  Uiso   1.00
H932   H     0.15956   0.02730   0.91387   0.00000  Uiso   1.00
H933   H     0.11340   0.05320   0.94308   0.00000  Uiso   1.00
H934   H     0.11942   0.03721   0.89134   0.00000  Uiso   1.00
H935   H     0.12556   0.33243   0.78552   0.00000  Uiso   1.00
H936   H     0.07393   0.13874   0.62212   0.00000  Uiso   1.00
H937   H     0.07208   0.12053   0.57287   0.00000  Uiso   1.00
H938   H     0.01629   0.18630   0.62822   0.00000  Uiso   1.00
H939   H     0.01194   0.16271   0.58040   0.00000  Uiso   1.00
H940   H     0.32486   0.09233   0.60594   0.00000  Uiso   1.00
H941   H     0.28860   0.12951   0.63462   0.00000  Uiso   1.00
H942   H     0.32950   0.11614   0.65390   0.00000  Uiso   1.00
H943   H     0.15769   0.18170   0.59929   0.00000  Uiso   1.00
H944   H     0.23917   0.09047   0.59611   0.00000  Uiso   1.00
H945   H     0.22707   0.07706   0.96524   0.00000  Uiso   1.00
H946   H     0.06626   0.24463   0.97976   0.00000  Uiso   1.00
H947   H     0.17672   0.15301   0.90206   0.00000  Uiso   1.00
H948   H     0.19080   0.10939   0.93130   0.00000  Uiso   1.00
O949   O     0.16667   0.16667   0.75000   0.00000  Uiso   1.00
O950   O     0.15693   0.12393   0.66625   0.00000  Uiso   1.00
O951   O     0.12687   0.20646   0.83749   0.00000  Uiso   1.00
O952   O     0.21088   0.17493   0.65877   0.00000  Uiso   1.00
O953   O     0.17198   0.16135   0.83749   0.00000  Uiso   1.00
O954   O     0.25315   0.06387   0.52048   0.00000  Uiso   1.00
O955   O     0.02422   0.19534   0.70611   0.00000  Uiso   1.00
O956   O     0.21421   0.00654   0.70764   0.00000  Uiso   1.00
O957   O     0.08551   0.24698   0.90400   0.00000  Uiso   1.00
O958   O     0.09555   0.18465   0.58501   0.00000  Uiso   1.00
O959   O     0.17849   0.08101   0.77820   0.00000  Uiso   1.00
O960   O     0.14581   0.26136   0.76767   0.00000  Uiso   1.00
O961   O     0.07452   0.13251   0.73607   0.00000  Uiso   1.00
O962   O     0.26785   0.19179   0.71806   0.00000  Uiso   1.00
O963   O     0.06990   0.18960   0.77820   0.00000  Uiso   1.00
O964   O     0.25440   0.15277   0.76768   0.00000  Uiso   1.00
O965   O     0.13800   0.06903   0.73607   0.00000  Uiso   1.00
O966   O     0.20437   0.25527   0.71806   0.00000  Uiso   1.00
Zn967  Zn    0.19244   0.14090   0.78278   0.00000  Uiso   1.00
Zn968  Zn    0.13459   0.12378   0.72258   0.00000  Uiso   1.00
Zn969  Zn    0.21166   0.19664   0.71188   0.00000  Uiso   1.00
Zn970  Zn    0.12798   0.20535   0.78277   0.00000  Uiso   1.00
C971   C     0.38573   0.15975   0.75898   0.00000  Uiso   1.00
C972   C     0.51886   0.12006   0.96219   0.00000  Uiso   1.00
C973   C     0.53975   0.10047   0.98196   0.00000  Uiso   1.00
C974   C     0.61449   0.17372   0.74110   0.00000  Uiso   1.00
C975   C     0.53573   0.11199   0.52194   0.00000  Uiso   1.00
C976   C     0.50740   0.14205   0.54327   0.00000  Uiso   1.00
C977   C     0.56035   0.09436   0.54076   0.00000  Uiso   1.00
C978   C     0.55569   0.10561   0.58098   0.00000  Uiso   1.00
C979   C     0.50734   0.15564   0.58261   0.00000  Uiso   1.00
C980   C     0.66084   0.17670   0.73716   0.00000  Uiso   1.00
C981   C     0.34046   0.15795   0.76200   0.00000  Uiso   1.00
C982   C     0.43725   0.22281   0.92207   0.00000  Uiso   1.00
C983   C     0.51325   0.32187   0.73620   0.00000  Uiso   1.00
C984   C     0.48500   0.01209   0.76189   0.00000  Uiso   1.00
C985   C     0.48888   0.05618   0.75915   0.00000  Uiso   1.00
C986   C     0.50998   0.27763   0.74097   0.00000  Uiso   1.00
C987   C     0.52152   0.14526   0.64399   0.00000  Uiso   1.00
C988   C     0.47872   0.18796   0.85631   0.00000  Uiso   1.00
C989   C     0.46720   0.19496   0.89994   0.00000  Uiso   1.00
C990   C     0.52963   0.13635   0.60155   0.00000  Uiso   1.00
C991   C     0.42380   0.22435   0.96315   0.00000  Uiso   1.00
C992   C     0.63018   0.08139   0.51313   0.00000  Uiso   1.00
C993   C     0.48540   0.17182   0.91982   0.00000  Uiso   1.00
C994   C     0.36166   0.23901   0.71621   0.00000  Uiso   1.00
C995   C     0.53915   0.32954   0.67056   0.00000  Uiso   1.00
C996   C     0.57812   0.01378   0.63885   0.00000  Uiso   1.00
C997   C     0.57238   0.00099   0.59766   0.00000  Uiso   1.00
C998   C     0.44619   0.28485   0.89578   0.00000  Uiso   1.00
C999   C     0.43207   0.31981   0.92894   0.00000  Uiso   1.00
C1000  C     0.45780   0.02862   0.91853   0.00000  Uiso   1.00
C1001  C     0.40062   0.14798   0.59589   0.00000  Uiso   1.00
C1002  C     0.35355   0.15739   0.60724   0.00000  Uiso   1.00
C1003  C     0.65563   0.12150   0.62657   0.00000  Uiso   1.00
C1004  C     0.47282   0.17376   0.96134   0.00000  Uiso   1.00
C1005  C     0.44157   0.20058   0.98282   0.00000  Uiso   1.00
C1006  C     0.49137   0.15083   0.98204   0.00000  Uiso   1.00
C1007  C     0.48183   0.15868   0.52395   0.00000  Uiso   1.00
C1008  C     0.44654   0.18209   0.54454   0.00000  Uiso   1.00
C1009  C     0.42794   0.20338   0.52383   0.00000  Uiso   1.00
H1010  H     0.40244   0.22236   0.54024   0.00000  Uiso   1.00
H1011  H     0.63970   0.08990   0.54097   0.00000  Uiso   1.00
H1012  H     0.63670   0.10913   0.99636   0.00000  Uiso   1.00
H1013  H     0.65093   0.05766   0.99478   0.00000  Uiso   1.00
H1014  H     0.37221   0.24763   0.74358   0.00000  Uiso   1.00
H1015  H     0.66434   0.25210   0.71952   0.00000  Uiso   1.00
H1016  H     0.38696   0.25367   0.69199   0.00000  Uiso   1.00
H1017  H     0.51002   0.01018   0.67037   0.00000  Uiso   1.00
H1018  H     0.53386   0.29502   0.66319   0.00000  Uiso   1.00
H1019  H     0.58233   0.04845   0.64447   0.00000  Uiso   1.00
H1020  H     0.60786   0.00196   0.64029   0.00000  Uiso   1.00
H1021  H     0.65090   0.14235   0.78601   0.00000  Uiso   1.00
H1022  H     0.56960   0.29973   0.59107   0.00000  Uiso   1.00
H1023  H     0.60095   0.01472   0.57543   0.00000  Uiso   1.00
H1024  H     0.54284   0.01243   0.59539   0.00000  Uiso   1.00
H1025  H     0.44283   0.29379   0.86803   0.00000  Uiso   1.00
H1026  H     0.48132   0.28196   0.89030   0.00000  Uiso   1.00
H1027  H     0.39702   0.32210   0.93429   0.00000  Uiso   1.00
H1028  H     0.43721   0.31250   0.95654   0.00000  Uiso   1.00
H1029  H     0.49289   0.02730   0.91387   0.00000  Uiso   1.00
H1030  H     0.44673   0.05320   0.94308   0.00000  Uiso   1.00
H1031  H     0.45276   0.03721   0.89134   0.00000  Uiso   1.00
H1032  H     0.45890   0.33243   0.78552   0.00000  Uiso   1.00
H1033  H     0.40727   0.13874   0.62212   0.00000  Uiso   1.00
H1034  H     0.40542   0.12053   0.57287   0.00000  Uiso   1.00
H1035  H     0.34963   0.18630   0.62822   0.00000  Uiso   1.00
H1036  H     0.34527   0.16271   0.58040   0.00000  Uiso   1.00
H1037  H     0.65820   0.09233   0.60594   0.00000  Uiso   1.00
H1038  H     0.62194   0.12951   0.63462   0.00000  Uiso   1.00
H1039  H     0.66284   0.11614   0.65390   0.00000  Uiso   1.00
H1040  H     0.49102   0.18170   0.59929   0.00000  Uiso   1.00
H1041  H     0.57250   0.09047   0.59611   0.00000  Uiso   1.00
H1042  H     0.56040   0.07706   0.96524   0.00000  Uiso   1.00
H1043  H     0.39960   0.24463   0.97976   0.00000  Uiso   1.00
H1044  H     0.51006   0.15301   0.90206   0.00000  Uiso   1.00
H1045  H     0.52413   0.10939   0.93130   0.00000  Uiso   1.00
O1046  O     0.50000   0.16667   0.75000   0.00000  Uiso   1.00
O1047  O     0.49027   0.12393   0.66625   0.00000  Uiso   1.00
O1048  O     0.46020   0.20646   0.83749   0.00000  Uiso   1.00
O1049  O     0.54421   0.17493   0.65877   0.00000  Uiso   1.00
O1050  O     0.50532   0.16135   0.83749   0.00000  Uiso   1.00
O1051  O     0.58648   0.06387   0.52048   0.00000  Uiso   1.00
O1052  O     0.35755   0.19534   0.70611   0.00000  Uiso   1.00
O1053  O     0.54754   0.00654   0.70764   0.00000  Uiso   1.00
O1054  O     0.41885   0.24698   0.90400   0.00000  Uiso   1.00
O1055  O     0.42888   0.18465   0.58501   0.00000  Uiso   1.00
O1056  O     0.51182   0.08101   0.77820   0.00000  Uiso   1.00
O1057  O     0.47914   0.26136   0.76767   0.00000  Uiso   1.00
O1058  O     0.40785   0.13251   0.73607   0.00000  Uiso   1.00
O1059  O     0.60119   0.19179   0.71806   0.00000  Uiso   1.00
O1060  O     0.40323   0.18960   0.77820   0.00000  Uiso   1.00
O1061  O     0.58773   0.15277   0.76768   0.00000  Uiso   1.00
O1062  O     0.47133   0.06903   0.73607   0.00000  Uiso   1.00
O1063  O     0.53771   0.25527   0.71806   0.00000  Uiso   1.00
Zn1064 Zn    0.52577   0.14090   0.78278   0.00000  Uiso   1.00
Zn1065 Zn    0.46792   0.12378   0.72258   0.00000  Uiso   1.00
Zn1066 Zn    0.54500   0.19664   0.71188   0.00000  Uiso   1.00
Zn1067 Zn    0.46131   0.20535   0.78277   0.00000  Uiso   1.00
C1068  C     0.71907   0.15975   0.75898   0.00000  Uiso   1.00
C1069  C     0.85220   0.12006   0.96219   0.00000  Uiso   1.00
C1070  C     0.87308   0.10047   0.98196   0.00000  Uiso   1.00
C1071  C     0.94782   0.17372   0.74110   0.00000  Uiso   1.00
C1072  C     0.86906   0.11199   0.52194   0.00000  Uiso   1.00
C1073  C     0.84073   0.14205   0.54327   0.00000  Uiso   1.00
C1074  C     0.89368   0.09436   0.54076   0.00000  Uiso   1.00
C1075  C     0.88903   0.10561   0.58098   0.00000  Uiso   1.00
C1076  C     0.84068   0.15564   0.58261   0.00000  Uiso   1.00
C1077  C     0.99417   0.17670   0.73716   0.00000  Uiso   1.00
C1078  C     0.67379   0.15795   0.76200   0.00000  Uiso   1.00
C1079  C     0.77059   0.22281   0.92207   0.00000  Uiso   1.00
C1080  C     0.84658   0.32187   0.73620   0.00000  Uiso   1.00
C1081  C     0.81833   0.01209   0.76189   0.00000  Uiso   1.00
C1082  C     0.82221   0.05618   0.75915   0.00000  Uiso   1.00
C1083  C     0.84332   0.27763   0.74097   0.00000  Uiso   1.00
C1084  C     0.85486   0.14526   0.64399   0.00000  Uiso   1.00
C1085  C     0.81205   0.18796   0.85631   0.00000  Uiso   1.00
C1086  C     0.80053   0.19496   0.89994   0.00000  Uiso   1.00
C1087  C     0.86297   0.13635   0.60155   0.00000  Uiso   1.00
C1088  C     0.75713   0.22435   0.96315   0.00000  Uiso   1.00
C1089  C     0.96351   0.08139   0.51313   0.00000  Uiso   1.00
C1090  C     0.81873   0.17182   0.91982   0.00000  Uiso   1.00
C1091  C     0.69499   0.23901   0.71621   0.00000  Uiso   1.00
C1092  C     0.87248   0.32954   0.67056   0.00000  Uiso   1.00
C1093  C     0.91146   0.01378   0.63885   0.00000  Uiso   1.00
C1094  C     0.90571   0.00099   0.59766   0.00000  Uiso   1.00
C1095  C     0.77952   0.28485   0.89578   0.00000  Uiso   1.00
C1096  C     0.76541   0.31981   0.92894   0.00000  Uiso   1.00
C1097  C     0.79113   0.02862   0.91853   0.00000  Uiso   1.00
C1098  C     0.73396   0.14798   0.59589   0.00000  Uiso   1.00
C1099  C     0.68688   0.15739   0.60724   0.00000  Uiso   1.00
C1100  C     0.98896   0.12150   0.62657   0.00000  Uiso   1.00
C1101  C     0.80615   0.17376   0.96134   0.00000  Uiso   1.00
C1102  C     0.77490   0.20058   0.98282   0.00000  Uiso   1.00
C1103  C     0.82471   0.15083   0.98204   0.00000  Uiso   1.00
C1104  C     0.81517   0.15868   0.52395   0.00000  Uiso   1.00
C1105  C     0.77988   0.18209   0.54454   0.00000  Uiso   1.00
C1106  C     0.76128   0.20338   0.52383   0.00000  Uiso   1.00
H1107  H     0.73577   0.22236   0.54024   0.00000  Uiso   1.00
H1108  H     0.97304   0.08990   0.54097   0.00000  Uiso   1.00
H1109  H     0.97004   0.10913   0.99636   0.00000  Uiso   1.00
H1110  H     0.98427   0.05766   0.99478   0.00000  Uiso   1.00
H1111  H     0.70554   0.24763   0.74358   0.00000  Uiso   1.00
H1112  H     0.99767   0.25210   0.71952   0.00000  Uiso   1.00
H1113  H     0.72029   0.25367   0.69199   0.00000  Uiso   1.00
H1114  H     0.84336   0.01018   0.67037   0.00000  Uiso   1.00
H1115  H     0.86719   0.29502   0.66319   0.00000  Uiso   1.00
H1116  H     0.91566   0.04845   0.64447   0.00000  Uiso   1.00
H1117  H     0.94119   0.00196   0.64029   0.00000  Uiso   1.00
H1118  H     0.98423   0.14235   0.78601   0.00000  Uiso   1.00
H1119  H     0.90293   0.29973   0.59107   0.00000  Uiso   1.00
H1120  H     0.93429   0.01472   0.57543   0.00000  Uiso   1.00
H1121  H     0.87617   0.01243   0.59539   0.00000  Uiso   1.00
H1122  H     0.77616   0.29379   0.86803   0.00000  Uiso   1.00
H1123  H     0.81465   0.28196   0.89030   0.00000  Uiso   1.00
H1124  H     0.73036   0.32210   0.93429   0.00000  Uiso   1.00
H1125  H     0.77054   0.31250   0.95654   0.00000  Uiso   1.00
H1126  H     0.82623   0.02730   0.91387   0.00000  Uiso   1.00
H1127  H     0.78006   0.05320   0.94308   0.00000  Uiso   1.00
H1128  H     0.78609   0.03721   0.89134   0.00000  Uiso   1.00
H1129  H     0.79223   0.33243   0.78552   0.00000  Uiso   1.00
H1130  H     0.74060   0.13874   0.62212   0.00000  Uiso   1.00
H1131  H     0.73875   0.12053   0.57287   0.00000  Uiso   1.00
H1132  H     0.68296   0.18630   0.62822   0.00000  Uiso   1.00
H1133  H     0.67860   0.16271   0.58040   0.00000  Uiso   1.00
H1134  H     0.99153   0.09233   0.60594   0.00000  Uiso   1.00
H1135  H     0.95527   0.12951   0.63462   0.00000  Uiso   1.00
H1136  H     0.99617   0.11614   0.65390   0.00000  Uiso   1.00
H1137  H     0.82436   0.18170   0.59929   0.00000  Uiso   1.00
H1138  H     0.90584   0.09047   0.59611   0.00000  Uiso   1.00
H1139  H     0.89374   0.07706   0.96524   0.00000  Uiso   1.00
H1140  H     0.73293   0.24463   0.97976   0.00000  Uiso   1.00
H1141  H     0.84339   0.15301   0.90206   0.00000  Uiso   1.00
H1142  H     0.85746   0.10939   0.93130   0.00000  Uiso   1.00
O1143  O     0.83333   0.16667   0.75000   0.00000  Uiso   1.00
O1144  O     0.82360   0.12393   0.66625   0.00000  Uiso   1.00
O1145  O     0.79354   0.20646   0.83749   0.00000  Uiso   1.00
O1146  O     0.87755   0.17493   0.65877   0.00000  Uiso   1.00
O1147  O     0.83865   0.16135   0.83749   0.00000  Uiso   1.00
O1148  O     0.91982   0.06387   0.52048   0.00000  Uiso   1.00
O1149  O     0.69089   0.19534   0.70611   0.00000  Uiso   1.00
O1150  O     0.88088   0.00654   0.70764   0.00000  Uiso   1.00
O1151  O     0.75218   0.24698   0.90400   0.00000  Uiso   1.00
O1152  O     0.76221   0.18465   0.58501   0.00000  Uiso   1.00
O1153  O     0.84515   0.08101   0.77820   0.00000  Uiso   1.00
O1154  O     0.81247   0.26136   0.76767   0.00000  Uiso   1.00
O1155  O     0.74119   0.13251   0.73607   0.00000  Uiso   1.00
O1156  O     0.93452   0.19179   0.71806   0.00000  Uiso   1.00
O1157  O     0.73656   0.18960   0.77820   0.00000  Uiso   1.00
O1158  O     0.92106   0.15277   0.76768   0.00000  Uiso   1.00
O1159  O     0.80467   0.06903   0.73607   0.00000  Uiso   1.00
O1160  O     0.87104   0.25527   0.71806   0.00000  Uiso   1.00
Zn1161 Zn    0.85910   0.14090   0.78278   0.00000  Uiso   1.00
Zn1162 Zn    0.80125   0.12378   0.72258   0.00000  Uiso   1.00
Zn1163 Zn    0.87833   0.19664   0.71188   0.00000  Uiso   1.00
Zn1164 Zn    0.79465   0.20535   0.78277   0.00000  Uiso   1.00
C1165  C     0.05240   0.49308   0.75898   0.00000  Uiso   1.00
C1166  C     0.18553   0.45339   0.96219   0.00000  Uiso   1.00
C1167  C     0.20642   0.43380   0.98196   0.00000  Uiso   1.00
C1168  C     0.28116   0.50705   0.74110   0.00000  Uiso   1.00
C1169  C     0.20239   0.44533   0.52194   0.00000  Uiso   1.00
C1170  C     0.17407   0.47538   0.54327   0.00000  Uiso   1.00
C1171  C     0.22701   0.42769   0.54076   0.00000  Uiso   1.00
C1172  C     0.22236   0.43894   0.58098   0.00000  Uiso   1.00
C1173  C     0.17401   0.48897   0.58261   0.00000  Uiso   1.00
C1174  C     0.32750   0.51003   0.73716   0.00000  Uiso   1.00
C1175  C     0.00712   0.49128   0.76200   0.00000  Uiso   1.00
C1176  C     0.10392   0.55614   0.92207   0.00000  Uiso   1.00
C1177  C     0.17992   0.65521   0.73620   0.00000  Uiso   1.00
C1178  C     0.15166   0.34542   0.76189   0.00000  Uiso   1.00
C1179  C     0.15555   0.38951   0.75915   0.00000  Uiso   1.00
C1180  C     0.17665   0.61097   0.74097   0.00000  Uiso   1.00
C1181  C     0.18819   0.47859   0.64399   0.00000  Uiso   1.00
C1182  C     0.14538   0.52130   0.85631   0.00000  Uiso   1.00
C1183  C     0.13386   0.52829   0.89994   0.00000  Uiso   1.00
C1184  C     0.19630   0.46968   0.60155   0.00000  Uiso   1.00
C1185  C     0.09047   0.55768   0.96315   0.00000  Uiso   1.00
C1186  C     0.29685   0.41472   0.51313   0.00000  Uiso   1.00
C1187  C     0.15206   0.50516   0.91982   0.00000  Uiso   1.00
C1188  C     0.02833   0.57234   0.71621   0.00000  Uiso   1.00
C1189  C     0.20582   0.66287   0.67056   0.00000  Uiso   1.00
C1190  C     0.24479   0.34711   0.63885   0.00000  Uiso   1.00
C1191  C     0.23904   0.33432   0.59766   0.00000  Uiso   1.00
C1192  C     0.11286   0.61818   0.89578   0.00000  Uiso   1.00
C1193  C     0.09874   0.65315   0.92894   0.00000  Uiso   1.00
C1194  C     0.12446   0.36195   0.91853   0.00000  Uiso   1.00
C1195  C     0.06729   0.48132   0.59589   0.00000  Uiso   1.00
C1196  C     0.02021   0.49072   0.60724   0.00000  Uiso   1.00
C1197  C     0.32230   0.45483   0.62657   0.00000  Uiso   1.00
C1198  C     0.13949   0.50710   0.96134   0.00000  Uiso   1.00
C1199  C     0.10823   0.53392   0.98282   0.00000  Uiso   1.00
C1200  C     0.15804   0.48417   0.98204   0.00000  Uiso   1.00
C1201  C     0.14850   0.49201   0.52395   0.00000  Uiso   1.00
C1202  C     0.11321   0.51542   0.54454   0.00000  Uiso   1.00
C1203  C     0.09461   0.53671   0.52383   0.00000  Uiso   1.00
H1204  H     0.06911   0.55569   0.54024   0.00000  Uiso   1.00
H1205  H     0.30637   0.42323   0.54097   0.00000  Uiso   1.00
H1206  H     0.30337   0.44246   0.99636   0.00000  Uiso   1.00
H1207  H     0.31760   0.39100   0.99478   0.00000  Uiso   1.00
H1208  H     0.03887   0.58097   0.74358   0.00000  Uiso   1.00
H1209  H     0.33100   0.58544   0.71952   0.00000  Uiso   1.00
H1210  H     0.05363   0.58701   0.69199   0.00000  Uiso   1.00
H1211  H     0.17669   0.34352   0.67037   0.00000  Uiso   1.00
H1212  H     0.20052   0.62836   0.66319   0.00000  Uiso   1.00
H1213  H     0.24899   0.38179   0.64447   0.00000  Uiso   1.00
H1214  H     0.27452   0.33529   0.64029   0.00000  Uiso   1.00
H1215  H     0.31756   0.47568   0.78601   0.00000  Uiso   1.00
H1216  H     0.23627   0.63306   0.59107   0.00000  Uiso   1.00
H1217  H     0.26762   0.34806   0.57543   0.00000  Uiso   1.00
H1218  H     0.20951   0.34577   0.59539   0.00000  Uiso   1.00
H1219  H     0.10949   0.62712   0.86803   0.00000  Uiso   1.00
H1220  H     0.14799   0.61529   0.89030   0.00000  Uiso   1.00
H1221  H     0.06369   0.65543   0.93429   0.00000  Uiso   1.00
H1222  H     0.10388   0.64584   0.95654   0.00000  Uiso   1.00
H1223  H     0.15956   0.36064   0.91387   0.00000  Uiso   1.00
H1224  H     0.11340   0.38653   0.94308   0.00000  Uiso   1.00
H1225  H     0.11942   0.37054   0.89134   0.00000  Uiso   1.00
H1226  H     0.12556   0.66576   0.78552   0.00000  Uiso   1.00
H1227  H     0.07393   0.47208   0.62212   0.00000  Uiso   1.00
H1228  H     0.07208   0.45386   0.57287   0.00000  Uiso   1.00
H1229  H     0.01629   0.51963   0.62822   0.00000  Uiso   1.00
H1230  H     0.01194   0.49604   0.58040   0.00000  Uiso   1.00
H1231  H     0.32486   0.42566   0.60594   0.00000  Uiso   1.00
H1232  H     0.28860   0.46285   0.63462   0.00000  Uiso   1.00
H1233  H     0.32950   0.44948   0.65390   0.00000  Uiso   1.00
H1234  H     0.15769   0.51504   0.59929   0.00000  Uiso   1.00
H1235  H     0.23917   0.42380   0.59611   0.00000  Uiso   1.00
H1236  H     0.22707   0.41040   0.96524   0.00000  Uiso   1.00
H1237  H     0.06626   0.57797   0.97976   0.00000  Uiso   1.00
H1238  H     0.17672   0.48634   0.90206   0.00000  Uiso   1.00
H1239  H     0.19080   0.44272   0.93130   0.00000  Uiso   1.00
O1240  O     0.16667   0.50000   0.75000   0.00000  Uiso   1.00
O1241  O     0.15693   0.45726   0.66625   0.00000  Uiso   1.00
O1242  O     0.12687   0.53979   0.83749   0.00000  Uiso   1.00
O1243  O     0.21088   0.50826   0.65877   0.00000  Uiso   1.00
O1244  O     0.17198   0.49468   0.83749   0.00000  Uiso   1.00
O1245  O     0.25315   0.39720   0.52048   0.00000  Uiso   1.00
O1246  O     0.02422   0.52867   0.70611   0.00000  Uiso   1.00
O1247  O     0.21421   0.33987   0.70764   0.00000  Uiso   1.00
O1248  O     0.08551   0.58032   0.90400   0.00000  Uiso   1.00
O1249  O     0.09555   0.51798   0.58501   0.00000  Uiso   1.00
O1250  O     0.17849   0.41434   0.77820   0.00000  Uiso   1.00
O1251  O     0.14581   0.59469   0.76767   0.00000  Uiso   1.00
O1252  O     0.07452   0.46584   0.73607   0.00000  Uiso   1.00
O1253  O     0.26785   0.52512   0.71806   0.00000  Uiso   1.00
O1254  O     0.06990   0.52293   0.77820   0.00000  Uiso   1.00
O1255  O     0.25440   0.48610   0.76768   0.00000  Uiso   1.00
O1256  O     0.13800   0.40236   0.73607   0.00000  Uiso   1.00
O1257  O     0.20437   0.58860   0.71806   0.00000  Uiso   1.00
Zn1258 Zn    0.19244   0.47423   0.78278   0.00000  Uiso   1.00
Zn1259 Zn    0.13459   0.45711   0.72258   0.00000  Uiso   1.00
Zn1260 Zn    0.21166   0.52997   0.71188   0.00000  Uiso   1.00
Zn1261 Zn    0.12798   0.53868   0.78277   0.00000  Uiso   1.00
C1262  C     0.38573   0.49308   0.75898   0.00000  Uiso   1.00
C1263  C     0.51886   0.45339   0.96219   0.00000  Uiso   1.00
C1264  C     0.53975   0.43380   0.98196   0.00000  Uiso   1.00
C1265  C     0.61449   0.50705   0.74110   0.00000  Uiso   1.00
C1266  C     0.53573   0.44533   0.52194   0.00000  Uiso   1.00
C1267  C     0.50740   0.47538   0.54327   0.00000  Uiso   1.00
C1268  C     0.56035   0.42769   0.54076   0.00000  Uiso   1.00
C1269  C     0.55569   0.43894   0.58098   0.00000  Uiso   1.00
C1270  C     0.50734   0.48897   0.58261   0.00000  Uiso   1.00
C1271  C     0.66084   0.51003   0.73716   0.00000  Uiso   1.00
C1272  C     0.34046   0.49128   0.76200   0.00000  Uiso   1.00
C1273  C     0.43725   0.55614   0.92207   0.00000  Uiso   1.00
C1274  C     0.51325   0.65521   0.73620   0.00000  Uiso   1.00
C1275  C     0.48500   0.34542   0.76189   0.00000  Uiso   1.00
C1276  C     0.48888   0.38951   0.75915   0.00000  Uiso   1.00
C1277  C     0.50998   0.61097   0.74097   0.00000  Uiso   1.00
C1278  C     0.52152   0.47859   0.64399   0.00000  Uiso   1.00
C1279  C     0.47872   0.52130   0.85631   0.00000  Uiso   1.00
C1280  C     0.46720   0.52829   0.89994   0.00000  Uiso   1.00
C1281  C     0.52963   0.46968   0.60155   0.00000  Uiso   1.00
C1282  C     0.42380   0.55768   0.96315   0.00000  Uiso   1.00
C1283  C     0.63018   0.41472   0.51313   0.00000  Uiso   1.00
C1284  C     0.48540   0.50516   0.91982   0.00000  Uiso   1.00
C1285  C     0.36166   0.57234   0.71621   0.00000  Uiso   1.00
C1286  C     0.53915   0.66287   0.67056   0.00000  Uiso   1.00
C1287  C     0.57812   0.34711   0.63885   0.00000  Uiso   1.00
C1288  C     0.57238   0.33432   0.59766   0.00000  Uiso   1.00
C1289  C     0.44619   0.61818   0.89578   0.00000  Uiso   1.00
C1290  C     0.43207   0.65315   0.92894   0.00000  Uiso   1.00
C1291  C     0.45780   0.36195   0.91853   0.00000  Uiso   1.00
C1292  C     0.40062   0.48132   0.59589   0.00000  Uiso   1.00
C1293  C     0.35355   0.49072   0.60724   0.00000  Uiso   1.00
C1294  C     0.65563   0.45483   0.62657   0.00000  Uiso   1.00
C1295  C     0.47282   0.50710   0.96134   0.00000  Uiso   1.00
C1296  C     0.44157   0.53392   0.98282   0.00000  Uiso   1.00
C1297  C     0.49137   0.48417   0.98204   0.00000  Uiso   1.00
C1298  C     0.48183   0.49201   0.52395   0.00000  Uiso   1.00
C1299  C     0.44654   0.51542   0.54454   0.00000  Uiso   1.00
C1300  C     0.42794   0.53671   0.52383   0.00000  Uiso   1.00
H1301  H     0.40244   0.55569   0.54024   0.00000  Uiso   1.00
H1302  H     0.63970   0.42323   0.54097   0.00000  Uiso   1.00
H1303  H     0.63670   0.44246   0.99636   0.00000  Uiso   1.00
H1304  H     0.65093   0.39100   0.99478   0.00000  Uiso   1.00
H1305  H     0.37221   0.58097   0.74358   0.00000  Uiso   1.00
H1306  H     0.66434   0.58544   0.71952   0.00000  Uiso   1.00
H1307  H     0.38696   0.58701   0.69199   0.00000  Uiso   1.00
H1308  H     0.51002   0.34352   0.67037   0.00000  Uiso   1.00
H1309  H     0.53386   0.62836   0.66319   0.00000  Uiso   1.00
H1310  H     0.58233   0.38179   0.64447   0.00000  Uiso   1.00
H1311  H     0.60786   0.33529   0.64029   0.00000  Uiso   1.00
H1312  H     0.65090   0.47568   0.78601   0.00000  Uiso   1.00
H1313  H     0.56960   0.63306   0.59107   0.00000  Uiso   1.00
H1314  H     0.60095   0.34806   0.57543   0.00000  Uiso   1.00
H1315  H     0.54284   0.34577   0.59539   0.00000  Uiso   1.00
H1316  H     0.44283   0.62712   0.86803   0.00000  Uiso   1.00
H1317  H     0.48132   0.61529   0.89030   0.00000  Uiso   1.00
H1318  H     0.39702   0.65543   0.93429   0.00000  Uiso   1.00
H1319  H     0.43721   0.64584   0.95654   0.00000  Uiso   1.00
H1320  H     0.49289   0.36064   0.91387   0.00000  Uiso   1.00
H1321  H     0.44673   0.38653   0.94308   0.00000  Uiso   1.00
H1322  H     0.45276   0.37054   0.89134   0.00000  Uiso   1.00
H1323  H     0.45890   0.66576   0.78552   0.00000  Uiso   1.00
H1324  H     0.40727   0.47208   0.62212   0.00000  Uiso   1.00
H1325  H     0.40542   0.45386   0.57287   0.00000  Uiso   1.00
H1326  H     0.34963   0.51963   0.62822   0.00000  Uiso   1.00
H1327  H     0.34527   0.49604   0.58040   0.00000  Uiso   1.00
H1328  H     0.65820   0.42566   0.60594   0.00000  Uiso   1.00
H1329  H     0.62194   0.46285   0.63462   0.00000  Uiso   1.00
H1330  H     0.66284   0.44948   0.65390   0.00000  Uiso   1.00
H1331  H     0.49102   0.51504   0.59929   0.00000  Uiso   1.00
H1332  H     0.57250   0.42380   0.59611   0.00000  Uiso   1.00
H1333  H     0.56040   0.41040   0.96524   0.00000  Uiso   1.00
H1334  H     0.39960   0.57797   0.97976   0.00000  Uiso   1.00
H1335  H     0.51006   0.48634   0.90206   0.00000  Uiso   1.00
H1336  H     0.52413   0.44272   0.93130   0.00000  Uiso   1.00
O1337  O     0.50000   0.50000   0.75000   0.00000  Uiso   1.00
O1338  O     0.49027   0.45726   0.66625   0.00000  Uiso   1.00
O1339  O     0.46020   0.53979   0.83749   0.00000  Uiso   1.00
O1340  O     0.54421   0.50826   0.65877   0.00000  Uiso   1.00
O1341  O     0.50532   0.49468   0.83749   0.00000  Uiso   1.00
O1342  O     0.58648   0.39720   0.52048   0.00000  Uiso   1.00
O1343  O     0.35755   0.52867   0.70611   0.00000  Uiso   1.00
O1344  O     0.54754   0.33987   0.70764   0.00000  Uiso   1.00
O1345  O     0.41885   0.58032   0.90400   0.00000  Uiso   1.00
O1346  O     0.42888   0.51798   0.58501   0.00000  Uiso   1.00
O1347  O     0.51182   0.41434   0.77820   0.00000  Uiso   1.00
O1348  O     0.47914   0.59469   0.76767   0.00000  Uiso   1.00
O1349  O     0.40785   0.46584   0.73607   0.00000  Uiso   1.00
O1350  O     0.60119   0.52512   0.71806   0.00000  Uiso   1.00
O1351  O     0.40323   0.52293   0.77820   0.00000  Uiso   1.00
O1352  O     0.58773   0.48610   0.76768   0.00000  Uiso   1.00
O1353  O     0.47133   0.40236   0.73607   0.00000  Uiso   1.00
O1354  O     0.53771   0.58860   0.71806   0.00000  Uiso   1.00
Zn1355 Zn    0.52577   0.47423   0.78278   0.00000  Uiso   1.00
Zn1356 Zn    0.46792   0.45711   0.72258   0.00000  Uiso   1.00
Zn1357 Zn    0.54500   0.52997   0.71188   0.00000  Uiso   1.00
Zn1358 Zn    0.46131   0.53868   0.78277   0.00000  Uiso   1.00
C1359  C     0.71907   0.49308   0.75898   0.00000  Uiso   1.00
C1360  C     0.85220   0.45339   0.96219   0.00000  Uiso   1.00
C1361  C     0.87308   0.43380   0.98196   0.00000  Uiso   1.00
C1362  C     0.94782   0.50705   0.74110   0.00000  Uiso   1.00
C1363  C     0.86906   0.44533   0.52194   0.00000  Uiso   1.00
C1364  C     0.84073   0.47538   0.54327   0.00000  Uiso   1.00
C1365  C     0.89368   0.42769   0.54076   0.00000  Uiso   1.00
C1366  C     0.88903   0.43894   0.58098   0.00000  Uiso   1.00
C1367  C     0.84068   0.48897   0.58261   0.00000  Uiso   1.00
C1368  C     0.99417   0.51003   0.73716   0.00000  Uiso   1.00
C1369  C     0.67379   0.49128   0.76200   0.00000  Uiso   1.00
C1370  C     0.77059   0.55614   0.92207   0.00000  Uiso   1.00
C1371  C     0.84658   0.65521   0.73620   0.00000  Uiso   1.00
C1372  C     0.81833   0.34542   0.76189   0.00000  Uiso   1.00
C1373  C     0.82221   0.38951   0.75915   0.00000  Uiso   1.00
C1374  C     0.84332   0.61097   0.74097   0.00000  Uiso   1.00
C1375  C     0.85486   0.47859   0.64399   0.00000  Uiso   1.00
C1376  C     0.81205   0.52130   0.85631   0.00000  Uiso   1.00
C1377  C     0.80053   0.52829   0.89994   0.00000  Uiso   1.00
C1378  C     0.86297   0.46968   0.60155   0.00000  Uiso   1.00
C1379  C     0.75713   0.55768   0.96315   0.00000  Uiso   1.00
C1380  C     0.96351   0.41472   0.51313   0.00000  Uiso   1.00
C1381  C     0.81873   0.50516   0.91982   0.00000  Uiso   1.00
C1382  C     0.69499   0.57234   0.71621   0.00000  Uiso   1.00
C1383  C     0.87248   0.66287   0.67056   0.00000  Uiso   1.00
C1384  C     0.91146   0.34711   0.63885   0.00000  Uiso   1.00
C1385  C     0.90571   0.33432   0.59766   0.00000  Uiso   1.00
C1386  C     0.77952   0.61818   0.89578   0.00000  Uiso   1.00
C1387  C     0.76541   0.65315   0.92894   0.00000  Uiso   1.00
C1388  C     0.79113   0.36195   0.91853   0.00000  Uiso   1.00
C1389  C     0.73396   0.48132   0.59589   0.00000  Uiso   1.00
C1390  C     0.68688   0.49072   0.60724   0.00000  Uiso   1.00
C1391  C     0.98896   0.45483   0.62657   0.00000  Uiso   1.00
C1392  C     0.80615   0.50710   0.96134   0.00000  Uiso   1.00
C1393  C     0.77490   0.53392   0.98282   0.00000  Uiso   1.00
C1394  C     0.82471   0.48417   0.98204   0.00000  Uiso   1.00
C1395  C     0.81517   0.49201   0.52395   0.00000  Uiso   1.00
C1396  C     0.77988   0.51542   0.54454   0.00000  Uiso   1.00
C1397  C     0.76128   0.53671   0.52383   0.00000  Uiso   1.00
H1398  H     0.73577   0.55569   0.54024   0.00000  Uiso   1.00
H1399  H     0.97304   0.42323   0.54097   0.00000  Uiso   1.00
H1400  H     0.97004   0.44246   0.99636   0.00000  Uiso   1.00
H1401  H     0.98427   0.39100   0.99478   0.00000  Uiso   1.00
H1402  H     0.70554   0.58097   0.74358   0.00000  Uiso   1.00
H1403  H     0.99767   0.58544   0.71952   0.00000  Uiso   1.00
H1404  H     0.72029   0.58701   0.69199   0.00000  Uiso   1.00
H1405  H     0.84336   0.34352   0.67037   0.00000  Uiso   1.00
H1406  H     0.86719   0.62836   0.66319   0.00000  Uiso   1.00
H1407  H     0.91566   0.38179   0.64447   0.00000  Uiso   1.00
H1408  H     0.94119   0.33529   0.64029   0.00000  Uiso   1.00
H1409  H     0.98423   0.47568   0.78601   0.00000  Uiso   1.00
H1410  H     0.90293   0.63306   0.59107   0.00000  Uiso   1.00
H1411  H     0.93429   0.34806   0.57543   0.00000  Uiso   1.00
H1412  H     0.87617   0.34577   0.59539   0.00000  Uiso   1.00
H1413  H     0.77616   0.62712   0.86803   0.00000  Uiso   1.00
H1414  H     0.81465   0.61529   0.89030   0.00000  Uiso   1.00
H1415  H     0.73036   0.65543   0.93429   0.00000  Uiso   1.00
H1416  H     0.77054   0.64584   0.95654   0.00000  Uiso   1.00
H1417  H     0.82623   0.36064   0.91387   0.00000  Uiso   1.00
H1418  H     0.78006   0.38653   0.94308   0.00000  Uiso   1.00
H1419  H     0.78609   0.37054   0.89134   0.00000  Uiso   1.00
H1420  H     0.79223   0.66576   0.78552   0.00000  Uiso   1.00
H1421  H     0.74060   0.47208   0.62212   0.00000  Uiso   1.00
H1422  H     0.73875   0.45386   0.57287   0.00000  Uiso   1.00
H1423  H     0.68296   0.51963   0.62822   0.00000  Uiso   1.00
H1424  H     0.67860   0.49604   0.58040   0.00000  Uiso   1.00
H1425  H     0.99153   0.42566   0.60594   0.00000  Uiso   1.00
H1426  H     0.95527   0.46285   0.63462   0.00000  Uiso   1.00
H1427  H     0.99617   0.44948   0.65390   0.00000  Uiso   1.00
H1428  H     0.82436   0.51504   0.59929   0.00000  Uiso   1.00
H1429  H     0.90584   0.42380   0.59611   0.00000  Uiso   1.00
H1430  H     0.89374   0.41040   0.96524   0.00000  Uiso   1.00
H1431  H     0.73293   0.57797   0.97976   0.00000  Uiso   1.00
H1432  H     0.84339   0.48634   0.90206   0.00000  Uiso   1.00
H1433  H     0.85746   0.44272   0.93130   0.00000  Uiso   1.00
O1434  O     0.83333   0.50000   0.75000   0.00000  Uiso   1.00
O1435  O     0.82360   0.45726   0.66625   0.00000  Uiso   1.00
O1436  O     0.79354   0.53979   0.83749   0.00000  Uiso   1.00
O1437  O     0.87755   0.50826   0.65877   0.00000  Uiso   1.00
O1438  O     0.83865   0.49468   0.83749   0.00000  Uiso   1.00
O1439  O     0.91982   0.39720   0.52048   0.00000  Uiso   1.00
O1440  O     0.69089   0.52867   0.70611   0.00000  Uiso   1.00
O1441  O     0.88088   0.33987   0.70764   0.00000  Uiso   1.00
O1442  O     0.75218   0.58032   0.90400   0.00000  Uiso   1.00
O1443  O     0.76221   0.51798   0.58501   0.00000  Uiso   1.00
O1444  O     0.84515   0.41434   0.77820   0.00000  Uiso   1.00
O1445  O     0.81247   0.59469   0.76767   0.00000  Uiso   1.00
O1446  O     0.74119   0.46584   0.73607   0.00000  Uiso   1.00
O1447  O     0.93452   0.52512   0.71806   0.00000  Uiso   1.00
O1448  O     0.73656   0.52293   0.77820   0.00000  Uiso   1.00
O1449  O     0.92106   0.48610   0.76768   0.00000  Uiso   1.00
O1450  O     0.80467   0.40236   0.73607   0.00000  Uiso   1.00
O1451  O     0.87104   0.58860   0.71806   0.00000  Uiso   1.00
Zn1452 Zn    0.85910   0.47423   0.78278   0.00000  Uiso   1.00
Zn1453 Zn    0.80125   0.45711   0.72258   0.00000  Uiso   1.00
Zn1454 Zn    0.87833   0.52997   0.71188   0.00000  Uiso   1.00
Zn1455 Zn    0.79465   0.53868   0.78277   0.00000  Uiso   1.00
C1456  C     0.05240   0.82641   0.75898   0.00000  Uiso   1.00
C1457  C     0.18553   0.78672   0.96219   0.00000  Uiso   1.00
C1458  C     0.20642   0.76714   0.98196   0.00000  Uiso   1.00
C1459  C     0.28116   0.84038   0.74110   0.00000  Uiso   1.00
C1460  C     0.20239   0.77866   0.52194   0.00000  Uiso   1.00
C1461  C     0.17407   0.80871   0.54327   0.00000  Uiso   1.00
C1462  C     0.22701   0.76102   0.54076   0.00000  Uiso   1.00
C1463  C     0.22236   0.77228   0.58098   0.00000  Uiso   1.00
C1464  C     0.17401   0.82231   0.58261   0.00000  Uiso   1.00
C1465  C     0.32750   0.84336   0.73716   0.00000  Uiso   1.00
C1466  C     0.00712   0.82462   0.76200   0.00000  Uiso   1.00
C1467  C     0.10392   0.88948   0.92207   0.00000  Uiso   1.00
C1468  C     0.17992   0.98854   0.73620   0.00000  Uiso   1.00
C1469  C     0.15166   0.67875   0.76189   0.00000  Uiso   1.00
C1470  C     0.15555   0.72285   0.75915   0.00000  Uiso   1.00
C1471  C     0.17665   0.94430   0.74097   0.00000  Uiso   1.00
C1472  C     0.18819   0.81192   0.64399   0.00000  Uiso   1.00
C1473  C     0.14538   0.85463   0.85631   0.00000  Uiso   1.00
C1474  C     0.13386   0.86163   0.89994   0.00000  Uiso   1.00
C1475  C     0.19630   0.80302   0.60155   0.00000  Uiso   1.00
C1476  C     0.09047   0.89102   0.96315   0.00000  Uiso   1.00
C1477  C     0.29685   0.74806   0.51313   0.00000  Uiso   1.00
C1478  C     0.15206   0.83849   0.91982   0.00000  Uiso   1.00
C1479  C     0.02833   0.90567   0.71621   0.00000  Uiso   1.00
C1480  C     0.20582   0.99620   0.67056   0.00000  Uiso   1.00
C1481  C     0.24479   0.68045   0.63885   0.00000  Uiso   1.00
C1482  C     0.23904   0.66765   0.59766   0.00000  Uiso   1.00
C1483  C     0.11286   0.95152   0.89578   0.00000  Uiso   1.00
C1484  C     0.09874   0.98648   0.92894   0.00000  Uiso   1.00
C1485  C     0.12446   0.69528   0.91853   0.00000  Uiso   1.00
C1486  C     0.06729   0.81465   0.59589   0.00000  Uiso   1.00
C1487  C     0.02021   0.82406   0.60724   0.00000  Uiso   1.00
C1488  C     0.32230   0.78817   0.62657   0.00000  Uiso   1.00
C1489  C     0.13949   0.84043   0.96134   0.00000  Uiso   1.00
C1490  C     0.10823   0.86725   0.98282   0.00000  Uiso   1.00
C1491  C     0.15804   0.81750   0.98204   0.00000  Uiso   1.00
C1492  C     0.14850   0.82535   0.52395   0.00000  Uiso   1.00
C1493  C     0.11321   0.84876   0.54454   0.00000  Uiso   1.00
C1494  C     0.09461   0.87004   0.52383   0.00000  Uiso   1.00
H1495  H     0.06911   0.88903   0.54024   0.00000  Uiso   1.00
H1496  H     0.30637   0.75656   0.54097   0.00000  Uiso   1.00
H1497  H     0.30337   0.77579   0.99636   0.00000  Uiso   1.00
H1498  H     0.31760   0.72433   0.99478   0.00000  Uiso   1.00
H1499  H     0.03887   0.91430   0.74358   0.00000  Uiso   1.00
H1500  H     0.33100   0.91877   0.71952   0.00000  Uiso   1.00
H1501  H     0.05363   0.92034   0.69199   0.00000  Uiso   1.00
H1502  H     0.17669   0.67685   0.67037   0.00000  Uiso   1.00
H1503  H     0.20052   0.96169   0.66319   0.00000  Uiso   1.00
H1504  H     0.24899   0.71512   0.64447   0.00000  Uiso   1.00
H1505  H     0.27452   0.66863   0.64029   0.00000  Uiso   1.00
H1506  H     0.31756   0.80901   0.78601   0.00000  Uiso   1.00
H1507  H     0.23627   0.96640   0.59107   0.00000  Uiso   1.00
H1508  H     0.26762   0.68139   0.57543   0.00000  Uiso   1.00
H1509  H     0.20951   0.67910   0.59539   0.00000  Uiso   1.00
H1510  H     0.10949   0.96045   0.86803   0.00000  Uiso   1.00
H1511  H     0.14799   0.94863   0.89030   0.00000  Uiso   1.00
H1512  H     0.06369   0.98877   0.93429   0.00000  Uiso   1.00
H1513  H     0.10388   0.97917   0.95654   0.00000  Uiso   1.00
H1514  H     0.15956   0.69397   0.91387   0.00000  Uiso   1.00
H1515  H     0.11340   0.71986   0.94308   0.00000  Uiso   1.00
H1516  H     0.11942   0.70387   0.89134   0.00000  Uiso   1.00
H1517  H     0.12556   0.99909   0.78552   0.00000  Uiso   1.00
H1518  H     0.07393   0.80541   0.62212   0.00000  Uiso   1.00
H1519  H     0.07208   0.78719   0.57287   0.00000  Uiso   1.00
H1520  H     0.01629   0.85296   0.62822   0.00000  Uiso   1.00
H1521  H     0.01194   0.82938   0.58040   0.00000  Uiso   1.00
H1522  H     0.32486   0.75900   0.60594   0.00000  Uiso   1.00
H1523  H     0.28860   0.79618   0.63462   0.00000  Uiso   1.00
H1524  H     0.32950   0.78281   0.65390   0.00000  Uiso   1.00
H1525  H     0.15769   0.84837   0.59929   0.00000  Uiso   1.00
H1526  H     0.23917   0.75714   0.59611   0.00000  Uiso   1.00
H1527  H     0.22707   0.74373   0.96524   0.00000  Uiso   1.00
H1528  H     0.06626   0.91130   0.97976   0.00000  Uiso   1.00
H1529  H     0.17672   0.81968   0.90206   0.00000  Uiso   1.00
H1530  H     0.19080   0.77605   0.93130   0.00000  Uiso   1.00
O1531  O     0.16667   0.83333   0.75000   0.00000  Uiso   1.00
O1532  O     0.15693   0.79060   0.66625   0.00000  Uiso   1.00
O1533  O     0.12687   0.87313   0.83749   0.00000  Uiso   1.00
O1534  O     0.21088   0.84159   0.65877   0.00000  Uiso   1.00
O1535  O     0.17198   0.82802   0.83749   0.00000  Uiso   1.00
O1536  O     0.25315   0.73053   0.52048   0.00000  Uiso   1.00
O1537  O     0.02422   0.86200   0.70611   0.00000  Uiso   1.00
O1538  O     0.21421   0.67320   0.70764   0.00000  Uiso   1.00
O1539  O     0.08551   0.91365   0.90400   0.00000  Uiso   1.00
O1540  O     0.09555   0.85131   0.58501   0.00000  Uiso   1.00
O1541  O     0.17849   0.74768   0.77820   0.00000  Uiso   1.00
O1542  O     0.14581   0.92803   0.76767   0.00000  Uiso   1.00
O1543  O     0.07452   0.79917   0.73607   0.00000  Uiso   1.00
O1544  O     0.26785   0.85845   0.71806   0.00000  Uiso   1.00
O1545  O     0.06990   0.85627   0.77820   0.00000  Uiso   1.00
O1546  O     0.25440   0.81944   0.76768   0.00000  Uiso   1.00
O1547  O     0.13800   0.73570   0.73607   0.00000  Uiso   1.00
O1548  O     0.20437   0.92193   0.71806   0.00000  Uiso   1.00
Zn1549 Zn    0.19244   0.80756   0.78278   0.00000  Uiso   1.00
Zn1550 Zn    0.13459   0.79044   0.72258   0.00000  Uiso   1.00
Zn1551 Zn    0.21166   0.86331   0.71188   0.00000  Uiso   1.00
Zn1552 Zn    0.12798   0.87202   0.78277   0.00000  Uiso   1.00
C1553  C     0.38573   0.82641   0.75898   0.00000  Uiso   1.00
C1554  C     0.51886   0.78672   0.96219   0.00000  Uiso   1.00
C1555  C     0.53975   0.76714   0.98196   0.00000  Uiso   1.00
C1556  C     0.61449   0.84038   0.74110   0.00000  Uiso   1.00
C1557  C     0.53573   0.77866   0.52194   0.00000  Uiso   1.00
C1558  C     0.50740   0.80871   0.54327   0.00000  Uiso   1.00
C1559  C     0.56035   0.76102   0.54076   0.00000  Uiso   1.00
C1560  C     0.55569   0.77228   0.58098   0.00000  Uiso   1.00
C1561  C     0.50734   0.82231   0.58261   0.00000  Uiso   1.00
C1562  C     0.66084   0.84336   0.73716   0.00000  Uiso   1.00
C1563  C     0.34046   0.82462   0.76200   0.00000  Uiso   1.00
C1564  C     0.43725   0.88948   0.92207   0.00000  Uiso   1.00
C1565  C     0.51325   0.98854   0.73620   0.00000  Uiso   1.00
C1566  C     0.48500   0.67875   0.76189   0.00000  Uiso   1.00
C1567  C     0.48888   0.72285   0.75915   0.00000  Uiso   1.00
C1568  C     0.50998   0.94430   0.74097   0.00000  Uiso   1.00
C1569  C     0.52152   0.81192   0.64399   0.00000  Uiso   1.00
C1570  C     0.47872   0.85463   0.85631   0.00000  Uiso   1.00
C1571  C     0.46720   0.86163   0.89994   0.00000  Uiso   1.00
C1572  C     0.52963   0.80302   0.60155   0.00000  Uiso   1.00
C1573  C     0.42380   0.89102   0.96315   0.00000  Uiso   1.00
C1574  C     0.63018   0.74806   0.51313   0.00000  Uiso   1.00
C1575  C     0.48540   0.83849   0.91982   0.00000  Uiso   1.00
C1576  C     0.36166   0.90567   0.71621   0.00000  Uiso   1.00
C1577  C     0.53915   0.99620   0.67056   0.00000  Uiso   1.00
C1578  C     0.57812   0.68045   0.63885   0.00000  Uiso   1.00
C1579  C     0.57238   0.66765   0.59766   0.00000  Uiso   1.00
C1580  C     0.44619   0.95152   0.89578   0.00000  Uiso   1.00
C1581  C     0.43207   0.98648   0.92894   0.00000  Uiso   1.00
C1582  C     0.45780   0.69528   0.91853   0.00000  Uiso   1.00
C1583  C     0.40062   0.81465   0.59589   0.00000  Uiso   1.00
C1584  C     0.35355   0.82406   0.60724   0.00000  Uiso   1.00
C1585  C     0.65563   0.78817   0.62657   0.00000  Uiso   1.00
C1586  C     0.47282   0.84043   0.96134   0.00000  Uiso   1.00
C1587  C     0.44157   0.86725   0.98282   0.00000  Uiso   1.00
C1588  C     0.49137   0.81750   0.98204   0.00000  Uiso   1.00
C1589  C     0.48183   0.82535   0.52395   0.00000  Uiso   1.00
C1590  C     0.44654   0.84876   0.54454   0.00000  Uiso   1.00
C1591  C     0.42794   0.87004   0.52383   0.00000  Uiso   1.00
H1592  H     0.40244   0.88903   0.54024   0.00000  Uiso   1.00
H1593  H     0.63970   0.75656   0.54097   0.00000  Uiso   1.00
H1594  H     0.63670   0.77579   0.99636   0.00000  Uiso   1.00
H1595  H     0.65093   0.72433   0.99478   0.00000  Uiso   1.00
H1596  H     0.37221   0.91430   0.74358   0.00000  Uiso   1.00
H1597  H     0.66434   0.91877   0.71952   0.00000  Uiso   1.00
H1598  H     0.38696   0.92034   0.69199   0.00000  Uiso   1.00
H1599  H     0.51002   0.67685   0.67037   0.00000  Uiso   1.00
H1600  H     0.53386   0.96169   0.66319   0.00000  Uiso   1.00
H1601  H     0.58233   0.71512   0.64447   0.00000  Uiso   1.00
H1602  H     0.60786   0.66863   0.64029   0.00000  Uiso   1.00
H1603  H     0.65090   0.80901   0.78601   0.00000  Uiso   1.00
H1604  H     0.56960   0.96640   0.59107   0.00000  Uiso   1.00
H1605  H     0.60095   0.68139   0.57543   0.00000  Uiso   1.00
H1606  H     0.54284   0.67910   0.59539   0.00000  Uiso   1.00
H1607  H     0.44283   0.96045   0.86803   0.00000  Uiso   1.00
H1608  H     0.48132   0.94863   0.89030   0.00000  Uiso   1.00
H1609  H     0.39702   0.98877   0.93429   0.00000  Uiso   1.00
H1610  H     0.43721   0.97917   0.95654   0.00000  Uiso   1.00
H1611  H     0.49289   0.69397   0.91387   0.00000  Uiso   1.00
H1612  H     0.44673   0.71986   0.94308   0.00000  Uiso   1.00
H1613  H     0.45276   0.70387   0.89134   0.00000  Uiso   1.00
H1614  H     0.45890   0.99909   0.78552   0.00000  Uiso   1.00
H1615  H     0.40727   0.80541   0.62212   0.00000  Uiso   1.00
H1616  H     0.40542   0.78719   0.57287   0.00000  Uiso   1.00
H1617  H     0.34963   0.85296   0.62822   0.00000  Uiso   1.00
H1618  H     0.34527   0.82938   0.58040   0.00000  Uiso   1.00
H1619  H     0.65820   0.75900   0.60594   0.00000  Uiso   1.00
H1620  H     0.62194   0.79618   0.63462   0.00000  Uiso   1.00
H1621  H     0.66284   0.78281   0.65390   0.00000  Uiso   1.00
H1622  H     0.49102   0.84837   0.59929   0.00000  Uiso   1.00
H1623  H     0.57250   0.75714   0.59611   0.00000  Uiso   1.00
H1624  H     0.56040   0.74373   0.96524   0.00000  Uiso   1.00
H1625  H     0.39960   0.91130   0.97976   0.00000  Uiso   1.00
H1626  H     0.51006   0.81968   0.90206   0.00000  Uiso   1.00
H1627  H     0.52413   0.77605   0.93130   0.00000  Uiso   1.00
O1628  O     0.50000   0.83333   0.75000   0.00000  Uiso   1.00
O1629  O     0.49027   0.79060   0.66625   0.00000  Uiso   1.00
O1630  O     0.46020   0.87313   0.83749   0.00000  Uiso   1.00
O1631  O     0.54421   0.84159   0.65877   0.00000  Uiso   1.00
O1632  O     0.50532   0.82802   0.83749   0.00000  Uiso   1.00
O1633  O     0.58648   0.73053   0.52048   0.00000  Uiso   1.00
O1634  O     0.35755   0.86200   0.70611   0.00000  Uiso   1.00
O1635  O     0.54754   0.67320   0.70764   0.00000  Uiso   1.00
O1636  O     0.41885   0.91365   0.90400   0.00000  Uiso   1.00
O1637  O     0.42888   0.85131   0.58501   0.00000  Uiso   1.00
O1638  O     0.51182   0.74768   0.77820   0.00000  Uiso   1.00
O1639  O     0.47914   0.92803   0.76767   0.00000  Uiso   1.00
O1640  O     0.40785   0.79917   0.73607   0.00000  Uiso   1.00
O1641  O     0.60119   0.85845   0.71806   0.00000  Uiso   1.00
O1642  O     0.40323   0.85627   0.77820   0.00000  Uiso   1.00
O1643  O     0.58773   0.81944   0.76768   0.00000  Uiso   1.00
O1644  O     0.47133   0.73570   0.73607   0.00000  Uiso   1.00
O1645  O     0.53771   0.92193   0.71806   0.00000  Uiso   1.00
Zn1646 Zn    0.52577   0.80756   0.78278   0.00000  Uiso   1.00
Zn1647 Zn    0.46792   0.79044   0.72258   0.00000  Uiso   1.00
Zn1648 Zn    0.54500   0.86331   0.71188   0.00000  Uiso   1.00
Zn1649 Zn    0.46131   0.87202   0.78277   0.00000  Uiso   1.00
C1650  C     0.71907   0.82641   0.75898   0.00000  Uiso   1.00
C1651  C     0.85220   0.78672   0.96219   0.00000  Uiso   1.00
C1652  C     0.87308   0.76714   0.98196   0.00000  Uiso   1.00
C1653  C     0.94782   0.84038   0.74110   0.00000  Uiso   1.00
C1654  C     0.86906   0.77866   0.52194   0.00000  Uiso   1.00
C1655  C     0.84073   0.80871   0.54327   0.00000  Uiso   1.00
C1656  C     0.89368   0.76102   0.54076   0.00000  Uiso   1.00
C1657  C     0.88903   0.77228   0.58098   0.00000  Uiso   1.00
C1658  C     0.84068   0.82231   0.58261   0.00000  Uiso   1.00
C1659  C     0.99417   0.84336   0.73716   0.00000  Uiso   1.00
C1660  C     0.67379   0.82462   0.76200   0.00000  Uiso   1.00
C1661  C     0.77059   0.88948   0.92207   0.00000  Uiso   1.00
C1662  C     0.84658   0.98854   0.73620   0.00000  Uiso   1.00
C1663  C     0.81833   0.67875   0.76189   0.00000  Uiso   1.00
C1664  C     0.82221   0.72285   0.75915   0.00000  Uiso   1.00
C1665  C     0.84332   0.94430   0.74097   0.00000  Uiso   1.00
C1666  C     0.85486   0.81192   0.64399   0.00000  Uiso   1.00
C1667  C     0.81205   0.85463   0.85631   0.00000  Uiso   1.00
C1668  C     0.80053   0.86163   0.89994   0.00000  Uiso   1.00
C1669  C     0.86297   0.80302   0.60155   0.00000  Uiso   1.00
C1670  C     0.75713   0.89102   0.96315   0.00000  Uiso   1.00
C1671  C     0.96351   0.74806   0.51313   0.00000  Uiso   1.00
C1672  C     0.81873   0.83849   0.91982   0.00000  Uiso   1.00
C1673  C     0.69499   0.90567   0.71621   0.00000  Uiso   1.00
C1674  C     0.87248   0.99620   0.67056   0.00000  Uiso   1.00
C1675  C     0.91146   0.68045   0.63885   0.00000  Uiso   1.00
C1676  C     0.90571   0.66765   0.59766   0.00000  Uiso   1.00
C1677  C     0.77952   0.95152   0.89578   0.00000  Uiso   1.00
C1678  C     0.76541   0.98648   0.92894   0.00000  Uiso   1.00
C1679  C     0.79113   0.69528   0.91853   0.00000  Uiso   1.00
C1680  C     0.73396   0.81465   0.59589   0.00000  Uiso   1.00
C1681  C     0.68688   0.82406   0.60724   0.00000  Uiso   1.00
C1682  C     0.98896   0.78817   0.62657   0.00000  Uiso   1.00
C1683  C     0.80615   0.84043   0.96134   0.00000  Uiso   1.00
C1684  C     0.77490   0.86725   0.98282   0.00000  Uiso   1.00
C1685  C     0.82471   0.81750   0.98204   0.00000  Uiso   1.00
C1686  C     0.81517   0.82535   0.52395   0.00000  Uiso   1.00
C1687  C     0.77988   0.84876   0.54454   0.00000  Uiso   1.00
C1688  C     0.76128   0.87004   0.52383   0.00000  Uiso   1.00
H1689  H     0.73577   0.88903   0.54024   0.00000  Uiso   1.00
H1690  H     0.97304   0.75656   0.54097   0.00000  Uiso   1.00
H1691  H     0.97004   0.77579   0.99636   0.00000  Uiso   1.00
H1692  H     0.98427   0.72433   0.99478   0.00000  Uiso   1.00
H1693  H     0.70554   0.91430   0.74358   0.00000  Uiso   1.00
H1694  H     0.99767   0.91877   0.71952   0.00000  Uiso   1.00
H1695  H     0.72029   0.92034   0.69199   0.00000  Uiso   1.00
H1696  H     0.84336   0.67685   0.67037   0.00000  Uiso   1.00
H1697  H     0.86719   0.96169   0.66319   0.00000  Uiso   1.00
H1698  H     0.91566   0.71512   0.64447   0.00000  Uiso   1.00
H1699  H     0.94119   0.66863   0.64029   0.00000  Uiso   1.00
H1700  H     0.98423   0.80901   0.78601   0.00000  Uiso   1.00
H1701  H     0.90293   0.96640   0.59107   0.00000  Uiso   1.00
H1702  H     0.93429   0.68139   0.57543   0.00000  Uiso   1.00
H1703  H     0.87617   0.67910   0.59539   0.00000  Uiso   1.00
H1704  H     0.77616   0.96045   0.86803   0.00000  Uiso   1.00
H1705  H     0.81465   0.94863   0.89030   0.00000  Uiso   1.00
H1706  H     0.73036   0.98877   0.93429   0.00000  Uiso   1.00
H1707  H     0.77054   0.97917   0.95654   0.00000  Uiso   1.00
H1708  H     0.82623   0.69397   0.91387   0.00000  Uiso   1.00
H1709  H     0.78006   0.71986   0.94308   0.00000  Uiso   1.00
H1710  H     0.78609   0.70387   0.89134   0.00000  Uiso   1.00
H1711  H     0.79223   0.99909   0.78552   0.00000  Uiso   1.00
H1712  H     0.74060   0.80541   0.62212   0.00000  Uiso   1.00
H1713  H     0.73875   0.78719   0.57287   0.00000  Uiso   1.00
H1714  H     0.68296   0.85296   0.62822   0.00000  Uiso   1.00
H1715  H     0.67860   0.82938   0.58040   0.00000  Uiso   1.00
H1716  H     0.99153   0.75900   0.60594   0.00000  Uiso   1.00
H1717  H     0.95527   0.79618   0.63462   0.00000  Uiso   1.00
H1718  H     0.99617   0.78281   0.65390   0.00000  Uiso   1.00
H1719  H     0.82436   0.84837   0.59929   0.00000  Uiso   1.00
H1720  H     0.90584   0.75714   0.59611   0.00000  Uiso   1.00
H1721  H     0.89374   0.74373   0.96524   0.00000  Uiso   1.00
H1722  H     0.73293   0.91130   0.97976   0.00000  Uiso   1.00
H1723  H     0.84339   0.81968   0.90206   0.00000  Uiso   1.00
H1724  H     0.85746   0.77605   0.93130   0.00000  Uiso   1.00
O1725  O     0.83333   0.83333   0.75000   0.00000  Uiso   1.00
O1726  O     0.82360   0.79060   0.66625   0.00000  Uiso   1.00
O1727  O     0.79354   0.87313   0.83749   0.00000  Uiso   1.00
O1728  O     0.87755   0.84159   0.65877   0.00000  Uiso   1.00
O1729  O     0.83865   0.82802   0.83749   0.00000  Uiso   1.00
O1730  O     0.91982   0.73053   0.52048   0.00000  Uiso   1.00
O1731  O     0.69089   0.86200   0.70611   0.00000  Uiso   1.00
O1732  O     0.88088   0.67320   0.70764   0.00000  Uiso   1.00
O1733  O     0.75218   0.91365   0.90400   0.00000  Uiso   1.00
O1734  O     0.76221   0.85131   0.58501   0.00000  Uiso   1.00
O1735  O     0.84515   0.74768   0.77820   0.00000  Uiso   1.00
O1736  O     0.81247   0.92803   0.76767   0.00000  Uiso   1.00
O1737  O     0.74119   0.79917   0.73607   0.00000  Uiso   1.00
O1738  O     0.93452   0.85845   0.71806   0.00000  Uiso   1.00
O1739  O     0.73656   0.85627   0.77820   0.00000  Uiso   1.00
O1740  O     0.92106   0.81944   0.76768   0.00000  Uiso   1.00
O1741  O     0.80467   0.73570   0.73607   0.00000  Uiso   1.00
O1742  O     0.87104   0.92193   0.71806   0.00000  Uiso   1.00
Zn1743 Zn    0.85910   0.80756   0.78278   0.00000  Uiso   1.00
Zn1744 Zn    0.80125   0.79044   0.72258   0.00000  Uiso   1.00
Zn1745 Zn    0.87833   0.86331   0.71188   0.00000  Uiso   1.00
Zn1746 Zn    0.79465   0.87202   0.78277   0.00000  Uiso   1.00
loop_
_geom_bond_atom_site_label_1
_geom_bond_atom_site_label_2
_geom_bond_distance
_geom_bond_site_symmetry_2
_ccdc_geom_bond_type
C1     O90     1.267   .     A
C1     C11     1.438   .     S
C1     O88     1.268   .     A
C2     C36     1.413   .     A
C2     C3      1.384   .     A
C2     H75     1.077   .     S
C3     H72     1.084   .     S
C3     C878    1.393   .     S
C4     O91     1.280   .     A
C4     O89     1.281   .     A
C4     C10     1.462   .     S
C5     C6      1.424   .     A
C5     C7      1.413   .     A
C5     C876    1.393   1_554 S
C6     C9      1.409   .     A
C6     C37     1.431   .     A
C7     C8      1.397   .     A
C7     O81     1.384   .     S
C8     C20     1.391   .     A
C8     H71     1.081   .     S
C9     H70     1.076   .     S
C9     C20     1.390   .     A
C10    C108    1.339   .     S
C10    O179    1.387   .     S
C11    C204    1.339   1_455 S
C11    H245    1.086   1_455 S
C12    O84     1.384   .     S
C12    C21     1.396   .     A
C12    C19     1.414   .     A
C13    C16     1.458   .     S
C13    C305    1.336   .     S
C13    O374    1.388   .     S
C14    C15     1.436   .     S
C14    C595    1.336   1_545 S
C14    H644    1.086   1_545 S
C15    O92     1.277   .     A
C15    O86     1.276   .     A
C16    O93     1.266   .     A
C16    O87     1.270   .     A
C17    O79     1.272   .     A
C17    C20     1.451   .     S
C17    O77     1.270   .     A
C18    C19     1.481   .     S
C18    O78     1.283   .     A
C18    O80     1.291   .     A
C19    C23     1.401   .     A
C21    H73     1.084   .     S
C21    C35     1.400   .     A
C22    H41     1.112   .     S
C22    O81     1.411   .     S
C22    H915    1.114   1_554 S
C22    H916    1.109   1_554 S
C23    C34     1.410   .     A
C23    H74     1.075   .     S
C24    O82     1.410   .     S
C24    H44     1.113   .     S
C24    H46     1.109   .     S
C24    H239    1.112   1_455 S
C25    H48     1.114   .     S
C25    C317    1.527   .     S
C25    H338    1.115   .     S
C25    O374    1.413   .     S
C26    H50     1.112   .     S
C26    H49     1.111   .     S
C26    C27     1.526   .     S
C26    C607    1.527   1_545 S
C27    H54     1.111   .     S
C27    H53     1.110   .     S
C27    H634    1.111   1_545 S
C28    O84     1.418   .     S
C28    H56     1.118   .     S
C28    C29     1.533   .     S
C28    H55     1.111   .     S
C29    H57     1.112   .     S
C29    H58     1.110   .     S
C29    C321    1.527   .     S
C30    H60     1.111   .     S
C30    H59     1.111   .     S
C30    H61     1.111   .     S
C30    C611    1.527   1_545 S
C31    O85     1.416   .     S
C31    H63     1.111   .     S
C31    C32     1.531   .     S
C31    H64     1.118   .     S
C32    H66     1.111   .     S
C32    H65     1.112   .     S
C32    C227    1.526   1_455 S
C33    H69     1.111   .     S
C33    H67     1.111   .     S
C33    H68     1.110   .     S
C33    C129    1.526   .     S
C34    C35     1.414   .     A
C34    C36     1.425   .     A
C35    C912    1.391   .     S
C36    C910    1.427   .     S
C37    C38     1.429   .     A
C37    C909    1.427   1_554 S
C38    O85     1.382   .     S
C38    C39     1.391   .     A
C39    H40     1.085   .     S
C39    C908    1.391   1_554 S
H42    C895    1.114   .     S
H43    C895    1.109   .     S
H45    C121    1.112   .     S
H47    C607    1.115   1_545 S
H51    C108    1.086   .     S
H52    C318    1.111   .     S
H62    C305    1.086   .     S
O76    Zn95    1.938   .     S
O76    Zn94    1.964   .     S
O76    Zn97    1.929   .     S
O76    Zn96    1.927   .     S
O77    Zn95    1.925   .     S
O78    Zn97    1.938   .     S
O79    Zn96    1.930   .     S
O80    Zn94    1.919   .     S
O82    C204    1.387   1_455 S
O83    C595    1.388   1_545 S
O83    C607    1.413   1_545 S
O86    Zn94    1.926   .     S
O87    Zn97    1.930   .     S
O88    Zn95    1.925   .     S
O89    Zn96    1.938   .     S
O90    Zn97    1.929   .     S
O91    Zn94    1.919   .     S
O92    Zn95    1.939   .     S
O93    Zn96    1.931   .     S
C98    O187    1.267   .     A
C98    C108    1.438   .     S
C98    O185    1.268   .     A
C99    C133    1.413   .     A
C99    C100    1.384   .     A
C99    H172    1.077   .     S
C100   H169    1.084   .     S
C100   C975    1.393   .     S
C101   O188    1.280   .     A
C101   O186    1.281   .     A
C101   C107    1.462   .     S
C102   C103    1.424   .     A
C102   C104    1.413   .     A
C102   C973    1.393   1_554 S
C103   C106    1.409   .     A
C103   C134    1.431   .     A
C104   C105    1.397   .     A
C104   O178    1.384   .     S
C105   C117    1.391   .     A
C105   H168    1.081   .     S
C106   H167    1.076   .     S
C106   C117    1.390   .     A
C107   C205    1.339   .     S
C107   O276    1.387   .     S
C109   O181    1.384   .     S
C109   C118    1.396   .     A
C109   C116    1.414   .     A
C110   C113    1.458   .     S
C110   C402    1.336   .     S
C110   O471    1.388   .     S
C111   C112    1.436   .     S
C111   C692    1.336   1_545 S
C111   H741    1.086   1_545 S
C112   O189    1.277   .     A
C112   O183    1.276   .     A
C113   O190    1.266   .     A
C113   O184    1.270   .     A
C114   O176    1.272   .     A
C114   C117    1.451   .     S
C114   O174    1.270   .     A
C115   C116    1.481   .     S
C115   O175    1.283   .     A
C115   O177    1.291   .     A
C116   C120    1.401   .     A
C118   H170    1.084   .     S
C118   C132    1.400   .     A
C119   H138    1.112   .     S
C119   O178    1.411   .     S
C119   H1012   1.114   1_554 S
C119   H1013   1.109   1_554 S
C120   C131    1.410   .     A
C120   H171    1.075   .     S
C121   O179    1.410   .     S
C121   H141    1.113   .     S
C121   H143    1.109   .     S
C122   H145    1.114   .     S
C122   C414    1.527   .     S
C122   H435    1.115   .     S
C122   O471    1.413   .     S
C123   H147    1.112   .     S
C123   H146    1.111   .     S
C123   C124    1.526   .     S
C123   C704    1.527   1_545 S
C124   H151    1.111   .     S
C124   H150    1.110   .     S
C124   H731    1.111   1_545 S
C125   O181    1.418   .     S
C125   H153    1.118   .     S
C125   C126    1.533   .     S
C125   H152    1.111   .     S
C126   H154    1.112   .     S
C126   H155    1.110   .     S
C126   C418    1.527   .     S
C127   H157    1.111   .     S
C127   H156    1.111   .     S
C127   H158    1.111   .     S
C127   C708    1.527   1_545 S
C128   O182    1.416   .     S
C128   H160    1.111   .     S
C128   C129    1.531   .     S
C128   H161    1.118   .     S
C129   H163    1.111   .     S
C129   H162    1.112   .     S
C130   H166    1.111   .     S
C130   H164    1.111   .     S
C130   H165    1.110   .     S
C130   C226    1.526   .     S
C131   C132    1.414   .     A
C131   C133    1.425   .     A
C132   C1009   1.391   .     S
C133   C1007   1.427   .     S
C134   C135    1.429   .     A
C134   C1006   1.427   1_554 S
C135   O182    1.382   .     S
C135   C136    1.391   .     A
C136   H137    1.085   .     S
C136   C1005   1.391   1_554 S
H139   C992    1.114   .     S
H140   C992    1.109   .     S
H142   C218    1.112   .     S
H144   C704    1.115   1_545 S
H148   C205    1.086   .     S
H149   C415    1.111   .     S
H159   C402    1.086   .     S
O173   Zn192   1.938   .     S
O173   Zn191   1.964   .     S
O173   Zn194   1.929   .     S
O173   Zn193   1.927   .     S
O174   Zn192   1.925   .     S
O175   Zn194   1.938   .     S
O176   Zn193   1.930   .     S
O177   Zn191   1.919   .     S
O180   C692    1.388   1_545 S
O180   C704    1.413   1_545 S
O183   Zn191   1.926   .     S
O184   Zn194   1.930   .     S
O185   Zn192   1.925   .     S
O186   Zn193   1.938   .     S
O187   Zn194   1.929   .     S
O188   Zn191   1.919   .     S
O189   Zn192   1.939   .     S
O190   Zn193   1.931   .     S
C195   O284    1.267   .     A
C195   C205    1.438   .     S
C195   O282    1.268   .     A
C196   C230    1.413   .     A
C196   C197    1.384   .     A
C196   H269    1.077   .     S
C197   H266    1.084   .     S
C197   C1072   1.393   .     S
C198   O285    1.280   .     A
C198   O283    1.281   .     A
C198   C204    1.462   .     S
C199   C200    1.424   .     A
C199   C201    1.413   .     A
C199   C1070   1.393   1_554 S
C200   C203    1.409   .     A
C200   C231    1.431   .     A
C201   C202    1.397   .     A
C201   O275    1.384   .     S
C202   C214    1.391   .     A
C202   H265    1.081   .     S
C203   H264    1.076   .     S
C203   C214    1.390   .     A
C204   C11     1.339   1_655 S
C204   O82     1.387   1_655 S
C206   O278    1.384   .     S
C206   C215    1.396   .     A
C206   C213    1.414   .     A
C207   C210    1.458   .     S
C207   C499    1.336   .     S
C207   O568    1.388   .     S
C208   C209    1.436   .     S
C208   C789    1.336   1_545 S
C208   H838    1.086   1_545 S
C209   O286    1.277   .     A
C209   O280    1.276   .     A
C210   O287    1.266   .     A
C210   O281    1.270   .     A
C211   O273    1.272   .     A
C211   C214    1.451   .     S
C211   O271    1.270   .     A
C212   C213    1.481   .     S
C212   O272    1.283   .     A
C212   O274    1.291   .     A
C213   C217    1.401   .     A
C215   H267    1.084   .     S
C215   C229    1.400   .     A
C216   H235    1.112   .     S
C216   O275    1.411   .     S
C216   H1109   1.114   1_554 S
C216   H1110   1.109   1_554 S
C217   C228    1.410   .     A
C217   H268    1.075   .     S
C218   O276    1.410   .     S
C218   H238    1.113   .     S
C218   H240    1.109   .     S
C219   H242    1.114   .     S
C219   C511    1.527   .     S
C219   H532    1.115   .     S
C219   O568    1.413   .     S
C220   H244    1.112   .     S
C220   H243    1.111   .     S
C220   C221    1.526   .     S
C220   C801    1.527   1_545 S
C221   H248    1.111   .     S
C221   H247    1.110   .     S
C221   H828    1.111   1_545 S
C222   O278    1.418   .     S
C222   H250    1.118   .     S
C222   C223    1.533   .     S
C222   H249    1.111   .     S
C223   H251    1.112   .     S
C223   H252    1.110   .     S
C223   C515    1.527   .     S
C224   H254    1.111   .     S
C224   H253    1.111   .     S
C224   H255    1.111   .     S
C224   C805    1.527   1_545 S
C225   O279    1.416   .     S
C225   H257    1.111   .     S
C225   C226    1.531   .     S
C225   H258    1.118   .     S
C226   H260    1.111   .     S
C226   H259    1.112   .     S
C227   H263    1.111   .     S
C227   H261    1.111   .     S
C227   H262    1.110   .     S
C227   C32     1.526   1_655 S
C228   C229    1.414   .     A
C228   C230    1.425   .     A
C229   C1106   1.391   .     S
C230   C1104   1.427   .     S
C231   C232    1.429   .     A
C231   C1103   1.427   1_554 S
C232   O279    1.382   .     S
C232   C233    1.391   .     A
C233   H234    1.085   .     S
C233   C1102   1.391   1_554 S
H236   C1089   1.114   .     S
H237   C1089   1.109   .     S
H239   C24     1.112   1_655 S
H241   C801    1.115   1_545 S
H245   C11     1.086   1_655 S
H246   C512    1.111   .     S
H256   C499    1.086   .     S
O270   Zn289   1.938   .     S
O270   Zn288   1.964   .     S
O270   Zn291   1.929   .     S
O270   Zn290   1.927   .     S
O271   Zn289   1.925   .     S
O272   Zn291   1.938   .     S
O273   Zn290   1.930   .     S
O274   Zn288   1.919   .     S
O277   C789    1.388   1_545 S
O277   C801    1.413   1_545 S
O280   Zn288   1.926   .     S
O281   Zn291   1.930   .     S
O282   Zn289   1.925   .     S
O283   Zn290   1.938   .     S
O284   Zn291   1.929   .     S
O285   Zn288   1.919   .     S
O286   Zn289   1.939   .     S
O287   Zn290   1.931   .     S
C292   O381    1.267   .     A
C292   C302    1.438   .     S
C292   O379    1.268   .     A
C293   C327    1.413   .     A
C293   C294    1.384   .     A
C293   H366    1.077   .     S
C294   H363    1.084   .     S
C294   C1169   1.393   .     S
C295   O382    1.280   .     A
C295   O380    1.281   .     A
C295   C301    1.462   .     S
C296   C297    1.424   .     A
C296   C298    1.413   .     A
C296   C1167   1.393   1_554 S
C297   C300    1.409   .     A
C297   C328    1.431   .     A
C298   C299    1.397   .     A
C298   O372    1.384   .     S
C299   C311    1.391   .     A
C299   H362    1.081   .     S
C300   H361    1.076   .     S
C300   C311    1.390   .     A
C301   C399    1.339   .     S
C301   O470    1.387   .     S
C302   C495    1.339   1_455 S
C302   H536    1.086   1_455 S
C303   O375    1.384   .     S
C303   C312    1.396   .     A
C303   C310    1.414   .     A
C304   C307    1.458   .     S
C304   C596    1.336   .     S
C304   O665    1.388   .     S
C305   C306    1.436   .     S
C306   O383    1.277   .     A
C306   O377    1.276   .     A
C307   O384    1.266   .     A
C307   O378    1.270   .     A
C308   O370    1.272   .     A
C308   C311    1.451   .     S
C308   O368    1.270   .     A
C309   C310    1.481   .     S
C309   O369    1.283   .     A
C309   O371    1.291   .     A
C310   C314    1.401   .     A
C312   H364    1.084   .     S
C312   C326    1.400   .     A
C313   H332    1.112   .     S
C313   O372    1.411   .     S
C313   H1206   1.114   1_554 S
C313   H1207   1.109   1_554 S
C314   C325    1.410   .     A
C314   H365    1.075   .     S
C315   O373    1.410   .     S
C315   H335    1.113   .     S
C315   H337    1.109   .     S
C315   H530    1.112   1_455 S
C316   H339    1.114   .     S
C316   C608    1.527   .     S
C316   H629    1.115   .     S
C316   O665    1.413   .     S
C317   H341    1.112   .     S
C317   H340    1.111   .     S
C317   C318    1.526   .     S
C318   H345    1.111   .     S
C318   H344    1.110   .     S
C319   O375    1.418   .     S
C319   H347    1.118   .     S
C319   C320    1.533   .     S
C319   H346    1.111   .     S
C320   H348    1.112   .     S
C320   H349    1.110   .     S
C320   C612    1.527   .     S
C321   H351    1.111   .     S
C321   H350    1.111   .     S
C321   H352    1.111   .     S
C322   O376    1.416   .     S
C322   H354    1.111   .     S
C322   C323    1.531   .     S
C322   H355    1.118   .     S
C323   H357    1.111   .     S
C323   H356    1.112   .     S
C323   C518    1.526   1_455 S
C324   H360    1.111   .     S
C324   H358    1.111   .     S
C324   H359    1.110   .     S
C324   C420    1.526   .     S
C325   C326    1.414   .     A
C325   C327    1.425   .     A
C326   C1203   1.391   .     S
C327   C1201   1.427   .     S
C328   C329    1.429   .     A
C328   C1200   1.427   1_554 S
C329   O376    1.382   .     S
C329   C330    1.391   .     A
C330   H331    1.085   .     S
C330   C1199   1.391   1_554 S
H333   C1186   1.114   .     S
H334   C1186   1.109   .     S
H336   C412    1.112   .     S
H342   C399    1.086   .     S
H343   C609    1.111   .     S
H353   C596    1.086   .     S
O367   Zn386   1.938   .     S
O367   Zn385   1.964   .     S
O367   Zn388   1.929   .     S
O367   Zn387   1.927   .     S
O368   Zn386   1.925   .     S
O369   Zn388   1.938   .     S
O370   Zn387   1.930   .     S
O371   Zn385   1.919   .     S
O373   C495    1.387   1_455 S
O377   Zn385   1.926   .     S
O378   Zn388   1.930   .     S
O379   Zn386   1.925   .     S
O380   Zn387   1.938   .     S
O381   Zn388   1.929   .     S
O382   Zn385   1.919   .     S
O383   Zn386   1.939   .     S
O384   Zn387   1.931   .     S
C389   O478    1.267   .     A
C389   C399    1.438   .     S
C389   O476    1.268   .     A
C390   C424    1.413   .     A
C390   C391    1.384   .     A
C390   H463    1.077   .     S
C391   H460    1.084   .     S
C391   C1266   1.393   .     S
C392   O479    1.280   .     A
C392   O477    1.281   .     A
C392   C398    1.462   .     S
C393   C394    1.424   .     A
C393   C395    1.413   .     A
C393   C1264   1.393   1_554 S
C394   C397    1.409   .     A
C394   C425    1.431   .     A
C395   C396    1.397   .     A
C395   O469    1.384   .     S
C396   C408    1.391   .     A
C396   H459    1.081   .     S
C397   H458    1.076   .     S
C397   C408    1.390   .     A
C398   C496    1.339   .     S
C398   O567    1.387   .     S
C400   O472    1.384   .     S
C400   C409    1.396   .     A
C400   C407    1.414   .     A
C401   C404    1.458   .     S
C401   C693    1.336   .     S
C401   O762    1.388   .     S
C402   C403    1.436   .     S
C403   O480    1.277   .     A
C403   O474    1.276   .     A
C404   O481    1.266   .     A
C404   O475    1.270   .     A
C405   O467    1.272   .     A
C405   C408    1.451   .     S
C405   O465    1.270   .     A
C406   C407    1.481   .     S
C406   O466    1.283   .     A
C406   O468    1.291   .     A
C407   C411    1.401   .     A
C409   H461    1.084   .     S
C409   C423    1.400   .     A
C410   H429    1.112   .     S
C410   O469    1.411   .     S
C410   H1303   1.114   1_554 S
C410   H1304   1.109   1_554 S
C411   C422    1.410   .     A
C411   H462    1.075   .     S
C412   O470    1.410   .     S
C412   H432    1.113   .     S
C412   H434    1.109   .     S
C413   H436    1.114   .     S
C413   C705    1.527   .     S
C413   H726    1.115   .     S
C413   O762    1.413   .     S
C414   H438    1.112   .     S
C414   H437    1.111   .     S
C414   C415    1.526   .     S
C415   H442    1.111   .     S
C415   H441    1.110   .     S
C416   O472    1.418   .     S
C416   H444    1.118   .     S
C416   C417    1.533   .     S
C416   H443    1.111   .     S
C417   H445    1.112   .     S
C417   H446    1.110   .     S
C417   C709    1.527   .     S
C418   H448    1.111   .     S
C418   H447    1.111   .     S
C418   H449    1.111   .     S
C419   O473    1.416   .     S
C419   H451    1.111   .     S
C419   C420    1.531   .     S
C419   H452    1.118   .     S
C420   H454    1.111   .     S
C420   H453    1.112   .     S
C421   H457    1.111   .     S
C421   H455    1.111   .     S
C421   H456    1.110   .     S
C421   C517    1.526   .     S
C422   C423    1.414   .     A
C422   C424    1.425   .     A
C423   C1300   1.391   .     S
C424   C1298   1.427   .     S
C425   C426    1.429   .     A
C425   C1297   1.427   1_554 S
C426   O473    1.382   .     S
C426   C427    1.391   .     A
C427   H428    1.085   .     S
C427   C1296   1.391   1_554 S
H430   C1283   1.114   .     S
H431   C1283   1.109   .     S
H433   C509    1.112   .     S
H439   C496    1.086   .     S
H440   C706    1.111   .     S
H450   C693    1.086   .     S
O464   Zn483   1.938   .     S
O464   Zn482   1.964   .     S
O464   Zn485   1.929   .     S
O464   Zn484   1.927   .     S
O465   Zn483   1.925   .     S
O466   Zn485   1.938   .     S
O467   Zn484   1.930   .     S
O468   Zn482   1.919   .     S
O474   Zn482   1.926   .     S
O475   Zn485   1.930   .     S
O476   Zn483   1.925   .     S
O477   Zn484   1.938   .     S
O478   Zn485   1.929   .     S
O479   Zn482   1.919   .     S
O480   Zn483   1.939   .     S
O481   Zn484   1.931   .     S
C486   O575    1.267   .     A
C486   C496    1.438   .     S
C486   O573    1.268   .     A
C487   C521    1.413   .     A
C487   C488    1.384   .     A
C487   H560    1.077   .     S
C488   H557    1.084   .     S
C488   C1363   1.393   .     S
C489   O576    1.280   .     A
C489   O574    1.281   .     A
C489   C495    1.462   .     S
C490   C491    1.424   .     A
C490   C492    1.413   .     A
C490   C1361   1.393   1_554 S
C491   C494    1.409   .     A
C491   C522    1.431   .     A
C492   C493    1.397   .     A
C492   O566    1.384   .     S
C493   C505    1.391   .     A
C493   H556    1.081   .     S
C494   H555    1.076   .     S
C494   C505    1.390   .     A
C495   C302    1.339   1_655 S
C495   O373    1.387   1_655 S
C497   O569    1.384   .     S
C497   C506    1.396   .     A
C497   C504    1.414   .     A
C498   C501    1.458   .     S
C498   C790    1.336   .     S
C498   O859    1.388   .     S
C499   C500    1.436   .     S
C500   O577    1.277   .     A
C500   O571    1.276   .     A
C501   O578    1.266   .     A
C501   O572    1.270   .     A
C502   O564    1.272   .     A
C502   C505    1.451   .     S
C502   O562    1.270   .     A
C503   C504    1.481   .     S
C503   O563    1.283   .     A
C503   O565    1.291   .     A
C504   C508    1.401   .     A
C506   H558    1.084   .     S
C506   C520    1.400   .     A
C507   H526    1.112   .     S
C507   O566    1.411   .     S
C507   H1400   1.114   1_554 S
C507   H1401   1.109   1_554 S
C508   C519    1.410   .     A
C508   H559    1.075   .     S
C509   O567    1.410   .     S
C509   H529    1.113   .     S
C509   H531    1.109   .     S
C510   H533    1.114   .     S
C510   C802    1.527   .     S
C510   H823    1.115   .     S
C510   O859    1.413   .     S
C511   H535    1.112   .     S
C511   H534    1.111   .     S
C511   C512    1.526   .     S
C512   H539    1.111   .     S
C512   H538    1.110   .     S
C513   O569    1.418   .     S
C513   H541    1.118   .     S
C513   C514    1.533   .     S
C513   H540    1.111   .     S
C514   H542    1.112   .     S
C514   H543    1.110   .     S
C514   C806    1.527   .     S
C515   H545    1.111   .     S
C515   H544    1.111   .     S
C515   H546    1.111   .     S
C516   O570    1.416   .     S
C516   H548    1.111   .     S
C516   C517    1.531   .     S
C516   H549    1.118   .     S
C517   H551    1.111   .     S
C517   H550    1.112   .     S
C518   H554    1.111   .     S
C518   H552    1.111   .     S
C518   H553    1.110   .     S
C518   C323    1.526   1_655 S
C519   C520    1.414   .     A
C519   C521    1.425   .     A
C520   C1397   1.391   .     S
C521   C1395   1.427   .     S
C522   C523    1.429   .     A
C522   C1394   1.427   1_554 S
C523   O570    1.382   .     S
C523   C524    1.391   .     A
C524   H525    1.085   .     S
C524   C1393   1.391   1_554 S
H527   C1380   1.114   .     S
H528   C1380   1.109   .     S
H530   C315    1.112   1_655 S
H536   C302    1.086   1_655 S
H537   C803    1.111   .     S
H547   C790    1.086   .     S
O561   Zn580   1.938   .     S
O561   Zn579   1.964   .     S
O561   Zn582   1.929   .     S
O561   Zn581   1.927   .     S
O562   Zn580   1.925   .     S
O563   Zn582   1.938   .     S
O564   Zn581   1.930   .     S
O565   Zn579   1.919   .     S
O571   Zn579   1.926   .     S
O572   Zn582   1.930   .     S
O573   Zn580   1.925   .     S
O574   Zn581   1.938   .     S
O575   Zn582   1.929   .     S
O576   Zn579   1.919   .     S
O577   Zn580   1.939   .     S
O578   Zn581   1.931   .     S
C583   O672    1.267   .     A
C583   C593    1.438   .     S
C583   O670    1.268   .     A
C584   C618    1.413   .     A
C584   C585    1.384   .     A
C584   H657    1.077   .     S
C585   H654    1.084   .     S
C585   C1460   1.393   .     S
C586   O673    1.280   .     A
C586   O671    1.281   .     A
C586   C592    1.462   .     S
C587   C588    1.424   .     A
C587   C589    1.413   .     A
C587   C1458   1.393   1_554 S
C588   C591    1.409   .     A
C588   C619    1.431   .     A
C589   C590    1.397   .     A
C589   O663    1.384   .     S
C590   C602    1.391   .     A
C590   H653    1.081   .     S
C591   H652    1.076   .     S
C591   C602    1.390   .     A
C592   C690    1.339   .     S
C592   O761    1.387   .     S
C593   C786    1.339   1_455 S
C593   H827    1.086   1_455 S
C594   O666    1.384   .     S
C594   C603    1.396   .     A
C594   C601    1.414   .     A
C595   C598    1.458   .     S
C595   C14     1.336   1_565 S
C595   O83     1.388   1_565 S
C596   C597    1.436   .     S
C597   O674    1.277   .     A
C597   O668    1.276   .     A
C598   O675    1.266   .     A
C598   O669    1.270   .     A
C599   O661    1.272   .     A
C599   C602    1.451   .     S
C599   O659    1.270   .     A
C600   C601    1.481   .     S
C600   O660    1.283   .     A
C600   O662    1.291   .     A
C601   C605    1.401   .     A
C603   H655    1.084   .     S
C603   C617    1.400   .     A
C604   H623    1.112   .     S
C604   O663    1.411   .     S
C604   H1497   1.114   1_554 S
C604   H1498   1.109   1_554 S
C605   C616    1.410   .     A
C605   H656    1.075   .     S
C606   O664    1.410   .     S
C606   H626    1.113   .     S
C606   H628    1.109   .     S
C606   H821    1.112   1_455 S
C607   H630    1.114   .     S
C607   C26     1.527   1_565 S
C607   H47     1.115   1_565 S
C607   O83     1.413   1_565 S
C608   H632    1.112   .     S
C608   H631    1.111   .     S
C608   C609    1.526   .     S
C609   H636    1.111   .     S
C609   H635    1.110   .     S
C610   O666    1.418   .     S
C610   H638    1.118   .     S
C610   C611    1.533   .     S
C610   H637    1.111   .     S
C611   H639    1.112   .     S
C611   H640    1.110   .     S
C611   C30     1.527   1_565 S
C612   H642    1.111   .     S
C612   H641    1.111   .     S
C612   H643    1.111   .     S
C613   O667    1.416   .     S
C613   H645    1.111   .     S
C613   C614    1.531   .     S
C613   H646    1.118   .     S
C614   H648    1.111   .     S
C614   H647    1.112   .     S
C614   C809    1.526   1_455 S
C615   H651    1.111   .     S
C615   H649    1.111   .     S
C615   H650    1.110   .     S
C615   C711    1.526   .     S
C616   C617    1.414   .     A
C616   C618    1.425   .     A
C617   C1494   1.391   .     S
C618   C1492   1.427   .     S
C619   C620    1.429   .     A
C619   C1491   1.427   1_554 S
C620   O667    1.382   .     S
C620   C621    1.391   .     A
C621   H622    1.085   .     S
C621   C1490   1.391   1_554 S
H624   C1477   1.114   .     S
H625   C1477   1.109   .     S
H627   C703    1.112   .     S
H633   C690    1.086   .     S
H634   C27     1.111   1_565 S
H644   C14     1.086   1_565 S
O658   Zn677   1.938   .     S
O658   Zn676   1.964   .     S
O658   Zn679   1.929   .     S
O658   Zn678   1.927   .     S
O659   Zn677   1.925   .     S
O660   Zn679   1.938   .     S
O661   Zn678   1.930   .     S
O662   Zn676   1.919   .     S
O664   C786    1.387   1_455 S
O668   Zn676   1.926   .     S
O669   Zn679   1.930   .     S
O670   Zn677   1.925   .     S
O671   Zn678   1.938   .     S
O672   Zn679   1.929   .     S
O673   Zn676   1.919   .     S
O674   Zn677   1.939   .     S
O675   Zn678   1.931   .     S
C680   O769    1.267   .     A
C680   C690    1.438   .     S
C680   O767    1.268   .     A
C681   C715    1.413   .     A
C681   C682    1.384   .     A
C681   H754    1.077   .     S
C682   H751    1.084   .     S
C682   C1557   1.393   .     S
C683   O770    1.280   .     A
C683   O768    1.281   .     A
C683   C689    1.462   .     S
C684   C685    1.424   .     A
C684   C686    1.413   .     A
C684   C1555   1.393   1_554 S
C685   C688    1.409   .     A
C685   C716    1.431   .     A
C686   C687    1.397   .     A
C686   O760    1.384   .     S
C687   C699    1.391   .     A
C687   H750    1.081   .     S
C688   H749    1.076   .     S
C688   C699    1.390   .     A
C689   C787    1.339   .     S
C689   O858    1.387   .     S
C691   O763    1.384   .     S
C691   C700    1.396   .     A
C691   C698    1.414   .     A
C692   C695    1.458   .     S
C692   C111    1.336   1_565 S
C692   O180    1.388   1_565 S
C693   C694    1.436   .     S
C694   O771    1.277   .     A
C694   O765    1.276   .     A
C695   O772    1.266   .     A
C695   O766    1.270   .     A
C696   O758    1.272   .     A
C696   C699    1.451   .     S
C696   O756    1.270   .     A
C697   C698    1.481   .     S
C697   O757    1.283   .     A
C697   O759    1.291   .     A
C698   C702    1.401   .     A
C700   H752    1.084   .     S
C700   C714    1.400   .     A
C701   H720    1.112   .     S
C701   O760    1.411   .     S
C701   H1594   1.114   1_554 S
C701   H1595   1.109   1_554 S
C702   C713    1.410   .     A
C702   H753    1.075   .     S
C703   O761    1.410   .     S
C703   H723    1.113   .     S
C703   H725    1.109   .     S
C704   H727    1.114   .     S
C704   C123    1.527   1_565 S
C704   H144    1.115   1_565 S
C704   O180    1.413   1_565 S
C705   H729    1.112   .     S
C705   H728    1.111   .     S
C705   C706    1.526   .     S
C706   H733    1.111   .     S
C706   H732    1.110   .     S
C707   O763    1.418   .     S
C707   H735    1.118   .     S
C707   C708    1.533   .     S
C707   H734    1.111   .     S
C708   H736    1.112   .     S
C708   H737    1.110   .     S
C708   C127    1.527   1_565 S
C709   H739    1.111   .     S
C709   H738    1.111   .     S
C709   H740    1.111   .     S
C710   O764    1.416   .     S
C710   H742    1.111   .     S
C710   C711    1.531   .     S
C710   H743    1.118   .     S
C711   H745    1.111   .     S
C711   H744    1.112   .     S
C712   H748    1.111   .     S
C712   H746    1.111   .     S
C712   H747    1.110   .     S
C712   C808    1.526   .     S
C713   C714    1.414   .     A
C713   C715    1.425   .     A
C714   C1591   1.391   .     S
C715   C1589   1.427   .     S
C716   C717    1.429   .     A
C716   C1588   1.427   1_554 S
C717   O764    1.382   .     S
C717   C718    1.391   .     A
C718   H719    1.085   .     S
C718   C1587   1.391   1_554 S
H721   C1574   1.114   .     S
H722   C1574   1.109   .     S
H724   C800    1.112   .     S
H730   C787    1.086   .     S
H731   C124    1.111   1_565 S
H741   C111    1.086   1_565 S
O755   Zn774   1.938   .     S
O755   Zn773   1.964   .     S
O755   Zn776   1.929   .     S
O755   Zn775   1.927   .     S
O756   Zn774   1.925   .     S
O757   Zn776   1.938   .     S
O758   Zn775   1.930   .     S
O759   Zn773   1.919   .     S
O765   Zn773   1.926   .     S
O766   Zn776   1.930   .     S
O767   Zn774   1.925   .     S
O768   Zn775   1.938   .     S
O769   Zn776   1.929   .     S
O770   Zn773   1.919   .     S
O771   Zn774   1.939   .     S
O772   Zn775   1.931   .     S
C777   O866    1.267   .     A
C777   C787    1.438   .     S
C777   O864    1.268   .     A
C778   C812    1.413   .     A
C778   C779    1.384   .     A
C778   H851    1.077   .     S
C779   H848    1.084   .     S
C779   C1654   1.393   .     S
C780   O867    1.280   .     A
C780   O865    1.281   .     A
C780   C786    1.462   .     S
C781   C782    1.424   .     A
C781   C783    1.413   .     A
C781   C1652   1.393   1_554 S
C782   C785    1.409   .     A
C782   C813    1.431   .     A
C783   C784    1.397   .     A
C783   O857    1.384   .     S
C784   C796    1.391   .     A
C784   H847    1.081   .     S
C785   H846    1.076   .     S
C785   C796    1.390   .     A
C786   C593    1.339   1_655 S
C786   O664    1.387   1_655 S
C788   O860    1.384   .     S
C788   C797    1.396   .     A
C788   C795    1.414   .     A
C789   C792    1.458   .     S
C789   C208    1.336   1_565 S
C789   O277    1.388   1_565 S
C790   C791    1.436   .     S
C791   O868    1.277   .     A
C791   O862    1.276   .     A
C792   O869    1.266   .     A
C792   O863    1.270   .     A
C793   O855    1.272   .     A
C793   C796    1.451   .     S
C793   O853    1.270   .     A
C794   C795    1.481   .     S
C794   O854    1.283   .     A
C794   O856    1.291   .     A
C795   C799    1.401   .     A
C797   H849    1.084   .     S
C797   C811    1.400   .     A
C798   H817    1.112   .     S
C798   O857    1.411   .     S
C798   H1691   1.114   1_554 S
C798   H1692   1.109   1_554 S
C799   C810    1.410   .     A
C799   H850    1.075   .     S
C800   O858    1.410   .     S
C800   H820    1.113   .     S
C800   H822    1.109   .     S
C801   H824    1.114   .     S
C801   C220    1.527   1_565 S
C801   H241    1.115   1_565 S
C801   O277    1.413   1_565 S
C802   H826    1.112   .     S
C802   H825    1.111   .     S
C802   C803    1.526   .     S
C803   H830    1.111   .     S
C803   H829    1.110   .     S
C804   O860    1.418   .     S
C804   H832    1.118   .     S
C804   C805    1.533   .     S
C804   H831    1.111   .     S
C805   H833    1.112   .     S
C805   H834    1.110   .     S
C805   C224    1.527   1_565 S
C806   H836    1.111   .     S
C806   H835    1.111   .     S
C806   H837    1.111   .     S
C807   O861    1.416   .     S
C807   H839    1.111   .     S
C807   C808    1.531   .     S
C807   H840    1.118   .     S
C808   H842    1.111   .     S
C808   H841    1.112   .     S
C809   H845    1.111   .     S
C809   H843    1.111   .     S
C809   H844    1.110   .     S
C809   C614    1.526   1_655 S
C810   C811    1.414   .     A
C810   C812    1.425   .     A
C811   C1688   1.391   .     S
C812   C1686   1.427   .     S
C813   C814    1.429   .     A
C813   C1685   1.427   1_554 S
C814   O861    1.382   .     S
C814   C815    1.391   .     A
C815   H816    1.085   .     S
C815   C1684   1.391   1_554 S
H818   C1671   1.114   .     S
H819   C1671   1.109   .     S
H821   C606    1.112   1_655 S
H827   C593    1.086   1_655 S
H828   C221    1.111   1_565 S
H838   C208    1.086   1_565 S
O852   Zn871   1.938   .     S
O852   Zn870   1.964   .     S
O852   Zn873   1.929   .     S
O852   Zn872   1.927   .     S
O853   Zn871   1.925   .     S
O854   Zn873   1.938   .     S
O855   Zn872   1.930   .     S
O856   Zn870   1.919   .     S
O862   Zn870   1.926   .     S
O863   Zn873   1.930   .     S
O864   Zn871   1.925   .     S
O865   Zn872   1.938   .     S
O866   Zn873   1.929   .     S
O867   Zn870   1.919   .     S
O868   Zn871   1.939   .     S
O869   Zn872   1.931   .     S
C874   O963    1.267   .     A
C874   C884    1.438   .     S
C874   O961    1.268   .     A
C875   C909    1.413   .     A
C875   C876    1.384   .     A
C875   H948    1.077   .     S
C876   H945    1.084   .     S
C876   C5      1.393   1_556 S
C877   O964    1.280   .     A
C877   O962    1.281   .     A
C877   C883    1.462   .     S
C878   C879    1.424   .     A
C878   C880    1.413   .     A
C879   C882    1.409   .     A
C879   C910    1.431   .     A
C880   C881    1.397   .     A
C880   O954    1.384   .     S
C881   C893    1.391   .     A
C881   H944    1.081   .     S
C882   H943    1.076   .     S
C882   C893    1.390   .     A
C883   C981    1.339   .     S
C883   O1052   1.387   .     S
C884   C1077   1.339   1_455 S
C884   H1118   1.086   1_455 S
C885   O957    1.384   .     S
C885   C894    1.396   .     A
C885   C892    1.414   .     A
C886   C889    1.458   .     S
C886   C1178   1.336   .     S
C886   O1247   1.388   .     S
C887   C888    1.436   .     S
C887   C1468   1.336   1_545 S
C887   H1517   1.086   1_545 S
C888   O965    1.277   .     A
C888   O959    1.276   .     A
C889   O966    1.266   .     A
C889   O960    1.270   .     A
C890   O952    1.272   .     A
C890   C893    1.451   .     S
C890   O950    1.270   .     A
C891   C892    1.481   .     S
C891   O951    1.283   .     A
C891   O953    1.291   .     A
C892   C896    1.401   .     A
C894   H946    1.084   .     S
C894   C908    1.400   .     A
C895   H914    1.112   .     S
C895   O954    1.411   .     S
C896   C907    1.410   .     A
C896   H947    1.075   .     S
C897   O955    1.410   .     S
C897   H917    1.113   .     S
C897   H919    1.109   .     S
C897   H1112   1.112   1_455 S
C898   H921    1.114   .     S
C898   C1190   1.527   .     S
C898   H1211   1.115   .     S
C898   O1247   1.413   .     S
C899   H923    1.112   .     S
C899   H922    1.111   .     S
C899   C900    1.526   .     S
C899   C1480   1.527   1_545 S
C900   H927    1.111   .     S
C900   H926    1.110   .     S
C900   H1507   1.111   1_545 S
C901   O957    1.418   .     S
C901   H929    1.118   .     S
C901   C902    1.533   .     S
C901   H928    1.111   .     S
C902   H930    1.112   .     S
C902   H931    1.110   .     S
C902   C1194   1.527   .     S
C903   H933    1.111   .     S
C903   H932    1.111   .     S
C903   H934    1.111   .     S
C903   C1484   1.527   1_545 S
C904   O958    1.416   .     S
C904   H936    1.111   .     S
C904   C905    1.531   .     S
C904   H937    1.118   .     S
C905   H939    1.111   .     S
C905   H938    1.112   .     S
C905   C1100   1.526   1_455 S
C906   H942    1.111   .     S
C906   H940    1.111   .     S
C906   H941    1.110   .     S
C906   C1002   1.526   .     S
C907   C908    1.414   .     A
C907   C909    1.425   .     A
C908   C39     1.391   1_556 S
C909   C37     1.427   1_556 S
C910   C911    1.429   .     A
C911   O958    1.382   .     S
C911   C912    1.391   .     A
C912   H913    1.085   .     S
H915   C22     1.114   1_556 S
H916   C22     1.109   1_556 S
H918   C994    1.112   .     S
H920   C1480   1.115   1_545 S
H924   C981    1.086   .     S
H925   C1191   1.111   .     S
H935   C1178   1.086   .     S
O949   Zn968   1.938   .     S
O949   Zn967   1.964   .     S
O949   Zn970   1.929   .     S
O949   Zn969   1.927   .     S
O950   Zn968   1.925   .     S
O951   Zn970   1.938   .     S
O952   Zn969   1.930   .     S
O953   Zn967   1.919   .     S
O955   C1077   1.387   1_455 S
O956   C1468   1.388   1_545 S
O956   C1480   1.413   1_545 S
O959   Zn967   1.926   .     S
O960   Zn970   1.930   .     S
O961   Zn968   1.925   .     S
O962   Zn969   1.938   .     S
O963   Zn970   1.929   .     S
O964   Zn967   1.919   .     S
O965   Zn968   1.939   .     S
O966   Zn969   1.931   .     S
C971   O1060   1.267   .     A
C971   C981    1.438   .     S
C971   O1058   1.268   .     A
C972   C1006   1.413   .     A
C972   C973    1.384   .     A
C972   H1045   1.077   .     S
C973   H1042   1.084   .     S
C973   C102    1.393   1_556 S
C974   O1061   1.280   .     A
C974   O1059   1.281   .     A
C974   C980    1.462   .     S
C975   C976    1.424   .     A
C975   C977    1.413   .     A
C976   C979    1.409   .     A
C976   C1007   1.431   .     A
C977   C978    1.397   .     A
C977   O1051   1.384   .     S
C978   C990    1.391   .     A
C978   H1041   1.081   .     S
C979   H1040   1.076   .     S
C979   C990    1.390   .     A
C980   C1078   1.339   .     S
C980   O1149   1.387   .     S
C982   O1054   1.384   .     S
C982   C991    1.396   .     A
C982   C989    1.414   .     A
C983   C986    1.458   .     S
C983   C1275   1.336   .     S
C983   O1344   1.388   .     S
C984   C985    1.436   .     S
C984   C1565   1.336   1_545 S
C984   H1614   1.086   1_545 S
C985   O1062   1.277   .     A
C985   O1056   1.276   .     A
C986   O1063   1.266   .     A
C986   O1057   1.270   .     A
C987   O1049   1.272   .     A
C987   C990    1.451   .     S
C987   O1047   1.270   .     A
C988   C989    1.481   .     S
C988   O1048   1.283   .     A
C988   O1050   1.291   .     A
C989   C993    1.401   .     A
C991   H1043   1.084   .     S
C991   C1005   1.400   .     A
C992   H1011   1.112   .     S
C992   O1051   1.411   .     S
C993   C1004   1.410   .     A
C993   H1044   1.075   .     S
C994   O1052   1.410   .     S
C994   H1014   1.113   .     S
C994   H1016   1.109   .     S
C995   H1018   1.114   .     S
C995   C1287   1.527   .     S
C995   H1308   1.115   .     S
C995   O1344   1.413   .     S
C996   H1020   1.112   .     S
C996   H1019   1.111   .     S
C996   C997    1.526   .     S
C996   C1577   1.527   1_545 S
C997   H1024   1.111   .     S
C997   H1023   1.110   .     S
C997   H1604   1.111   1_545 S
C998   O1054   1.418   .     S
C998   H1026   1.118   .     S
C998   C999    1.533   .     S
C998   H1025   1.111   .     S
C999   H1027   1.112   .     S
C999   H1028   1.110   .     S
C999   C1291   1.527   .     S
C1000  H1030   1.111   .     S
C1000  H1029   1.111   .     S
C1000  H1031   1.111   .     S
C1000  C1581   1.527   1_545 S
C1001  O1055   1.416   .     S
C1001  H1033   1.111   .     S
C1001  C1002   1.531   .     S
C1001  H1034   1.118   .     S
C1002  H1036   1.111   .     S
C1002  H1035   1.112   .     S
C1003  H1039   1.111   .     S
C1003  H1037   1.111   .     S
C1003  H1038   1.110   .     S
C1003  C1099   1.526   .     S
C1004  C1005   1.414   .     A
C1004  C1006   1.425   .     A
C1005  C136    1.391   1_556 S
C1006  C134    1.427   1_556 S
C1007  C1008   1.429   .     A
C1008  O1055   1.382   .     S
C1008  C1009   1.391   .     A
C1009  H1010   1.085   .     S
H1012  C119    1.114   1_556 S
H1013  C119    1.109   1_556 S
H1015  C1091   1.112   .     S
H1017  C1577   1.115   1_545 S
H1021  C1078   1.086   .     S
H1022  C1288   1.111   .     S
H1032  C1275   1.086   .     S
O1046  Zn1065  1.938   .     S
O1046  Zn1064  1.964   .     S
O1046  Zn1067  1.929   .     S
O1046  Zn1066  1.927   .     S
O1047  Zn1065  1.925   .     S
O1048  Zn1067  1.938   .     S
O1049  Zn1066  1.930   .     S
O1050  Zn1064  1.919   .     S
O1053  C1565   1.388   1_545 S
O1053  C1577   1.413   1_545 S
O1056  Zn1064  1.926   .     S
O1057  Zn1067  1.930   .     S
O1058  Zn1065  1.925   .     S
O1059  Zn1066  1.938   .     S
O1060  Zn1067  1.929   .     S
O1061  Zn1064  1.919   .     S
O1062  Zn1065  1.939   .     S
O1063  Zn1066  1.931   .     S
C1068  O1157   1.267   .     A
C1068  C1078   1.438   .     S
C1068  O1155   1.268   .     A
C1069  C1103   1.413   .     A
C1069  C1070   1.384   .     A
C1069  H1142   1.077   .     S
C1070  H1139   1.084   .     S
C1070  C199    1.393   1_556 S
C1071  O1158   1.280   .     A
C1071  O1156   1.281   .     A
C1071  C1077   1.462   .     S
C1072  C1073   1.424   .     A
C1072  C1074   1.413   .     A
C1073  C1076   1.409   .     A
C1073  C1104   1.431   .     A
C1074  C1075   1.397   .     A
C1074  O1148   1.384   .     S
C1075  C1087   1.391   .     A
C1075  H1138   1.081   .     S
C1076  H1137   1.076   .     S
C1076  C1087   1.390   .     A
C1077  C884    1.339   1_655 S
C1077  O955    1.387   1_655 S
C1079  O1151   1.384   .     S
C1079  C1088   1.396   .     A
C1079  C1086   1.414   .     A
C1080  C1083   1.458   .     S
C1080  C1372   1.336   .     S
C1080  O1441   1.388   .     S
C1081  C1082   1.436   .     S
C1081  C1662   1.336   1_545 S
C1081  H1711   1.086   1_545 S
C1082  O1159   1.277   .     A
C1082  O1153   1.276   .     A
C1083  O1160   1.266   .     A
C1083  O1154   1.270   .     A
C1084  O1146   1.272   .     A
C1084  C1087   1.451   .     S
C1084  O1144   1.270   .     A
C1085  C1086   1.481   .     S
C1085  O1145   1.283   .     A
C1085  O1147   1.291   .     A
C1086  C1090   1.401   .     A
C1088  H1140   1.084   .     S
C1088  C1102   1.400   .     A
C1089  H1108   1.112   .     S
C1089  O1148   1.411   .     S
C1090  C1101   1.410   .     A
C1090  H1141   1.075   .     S
C1091  O1149   1.410   .     S
C1091  H1111   1.113   .     S
C1091  H1113   1.109   .     S
C1092  H1115   1.114   .     S
C1092  C1384   1.527   .     S
C1092  H1405   1.115   .     S
C1092  O1441   1.413   .     S
C1093  H1117   1.112   .     S
C1093  H1116   1.111   .     S
C1093  C1094   1.526   .     S
C1093  C1674   1.527   1_545 S
C1094  H1121   1.111   .     S
C1094  H1120   1.110   .     S
C1094  H1701   1.111   1_545 S
C1095  O1151   1.418   .     S
C1095  H1123   1.118   .     S
C1095  C1096   1.533   .     S
C1095  H1122   1.111   .     S
C1096  H1124   1.112   .     S
C1096  H1125   1.110   .     S
C1096  C1388   1.527   .     S
C1097  H1127   1.111   .     S
C1097  H1126   1.111   .     S
C1097  H1128   1.111   .     S
C1097  C1678   1.527   1_545 S
C1098  O1152   1.416   .     S
C1098  H1130   1.111   .     S
C1098  C1099   1.531   .     S
C1098  H1131   1.118   .     S
C1099  H1133   1.111   .     S
C1099  H1132   1.112   .     S
C1100  H1136   1.111   .     S
C1100  H1134   1.111   .     S
C1100  H1135   1.110   .     S
C1100  C905    1.526   1_655 S
C1101  C1102   1.414   .     A
C1101  C1103   1.425   .     A
C1102  C233    1.391   1_556 S
C1103  C231    1.427   1_556 S
C1104  C1105   1.429   .     A
C1105  O1152   1.382   .     S
C1105  C1106   1.391   .     A
C1106  H1107   1.085   .     S
H1109  C216    1.114   1_556 S
H1110  C216    1.109   1_556 S
H1112  C897    1.112   1_655 S
H1114  C1674   1.115   1_545 S
H1118  C884    1.086   1_655 S
H1119  C1385   1.111   .     S
H1129  C1372   1.086   .     S
O1143  Zn1162  1.938   .     S
O1143  Zn1161  1.964   .     S
O1143  Zn1164  1.929   .     S
O1143  Zn1163  1.927   .     S
O1144  Zn1162  1.925   .     S
O1145  Zn1164  1.938   .     S
O1146  Zn1163  1.930   .     S
O1147  Zn1161  1.919   .     S
O1150  C1662   1.388   1_545 S
O1150  C1674   1.413   1_545 S
O1153  Zn1161  1.926   .     S
O1154  Zn1164  1.930   .     S
O1155  Zn1162  1.925   .     S
O1156  Zn1163  1.938   .     S
O1157  Zn1164  1.929   .     S
O1158  Zn1161  1.919   .     S
O1159  Zn1162  1.939   .     S
O1160  Zn1163  1.931   .     S
C1165  O1254   1.267   .     A
C1165  C1175   1.438   .     S
C1165  O1252   1.268   .     A
C1166  C1200   1.413   .     A
C1166  C1167   1.384   .     A
C1166  H1239   1.077   .     S
C1167  H1236   1.084   .     S
C1167  C296    1.393   1_556 S
C1168  O1255   1.280   .     A
C1168  O1253   1.281   .     A
C1168  C1174   1.462   .     S
C1169  C1170   1.424   .     A
C1169  C1171   1.413   .     A
C1170  C1173   1.409   .     A
C1170  C1201   1.431   .     A
C1171  C1172   1.397   .     A
C1171  O1245   1.384   .     S
C1172  C1184   1.391   .     A
C1172  H1235   1.081   .     S
C1173  H1234   1.076   .     S
C1173  C1184   1.390   .     A
C1174  C1272   1.339   .     S
C1174  O1343   1.387   .     S
C1175  C1368   1.339   1_455 S
C1175  H1409   1.086   1_455 S
C1176  O1248   1.384   .     S
C1176  C1185   1.396   .     A
C1176  C1183   1.414   .     A
C1177  C1180   1.458   .     S
C1177  C1469   1.336   .     S
C1177  O1538   1.388   .     S
C1178  C1179   1.436   .     S
C1179  O1256   1.277   .     A
C1179  O1250   1.276   .     A
C1180  O1257   1.266   .     A
C1180  O1251   1.270   .     A
C1181  O1243   1.272   .     A
C1181  C1184   1.451   .     S
C1181  O1241   1.270   .     A
C1182  C1183   1.481   .     S
C1182  O1242   1.283   .     A
C1182  O1244   1.291   .     A
C1183  C1187   1.401   .     A
C1185  H1237   1.084   .     S
C1185  C1199   1.400   .     A
C1186  H1205   1.112   .     S
C1186  O1245   1.411   .     S
C1187  C1198   1.410   .     A
C1187  H1238   1.075   .     S
C1188  O1246   1.410   .     S
C1188  H1208   1.113   .     S
C1188  H1210   1.109   .     S
C1188  H1403   1.112   1_455 S
C1189  H1212   1.114   .     S
C1189  C1481   1.527   .     S
C1189  H1502   1.115   .     S
C1189  O1538   1.413   .     S
C1190  H1214   1.112   .     S
C1190  H1213   1.111   .     S
C1190  C1191   1.526   .     S
C1191  H1218   1.111   .     S
C1191  H1217   1.110   .     S
C1192  O1248   1.418   .     S
C1192  H1220   1.118   .     S
C1192  C1193   1.533   .     S
C1192  H1219   1.111   .     S
C1193  H1221   1.112   .     S
C1193  H1222   1.110   .     S
C1193  C1485   1.527   .     S
C1194  H1224   1.111   .     S
C1194  H1223   1.111   .     S
C1194  H1225   1.111   .     S
C1195  O1249   1.416   .     S
C1195  H1227   1.111   .     S
C1195  C1196   1.531   .     S
C1195  H1228   1.118   .     S
C1196  H1230   1.111   .     S
C1196  H1229   1.112   .     S
C1196  C1391   1.526   1_455 S
C1197  H1233   1.111   .     S
C1197  H1231   1.111   .     S
C1197  H1232   1.110   .     S
C1197  C1293   1.526   .     S
C1198  C1199   1.414   .     A
C1198  C1200   1.425   .     A
C1199  C330    1.391   1_556 S
C1200  C328    1.427   1_556 S
C1201  C1202   1.429   .     A
C1202  O1249   1.382   .     S
C1202  C1203   1.391   .     A
C1203  H1204   1.085   .     S
H1206  C313    1.114   1_556 S
H1207  C313    1.109   1_556 S
H1209  C1285   1.112   .     S
H1215  C1272   1.086   .     S
H1216  C1482   1.111   .     S
H1226  C1469   1.086   .     S
O1240  Zn1259  1.938   .     S
O1240  Zn1258  1.964   .     S
O1240  Zn1261  1.929   .     S
O1240  Zn1260  1.927   .     S
O1241  Zn1259  1.925   .     S
O1242  Zn1261  1.938   .     S
O1243  Zn1260  1.930   .     S
O1244  Zn1258  1.919   .     S
O1246  C1368   1.387   1_455 S
O1250  Zn1258  1.926   .     S
O1251  Zn1261  1.930   .     S
O1252  Zn1259  1.925   .     S
O1253  Zn1260  1.938   .     S
O1254  Zn1261  1.929   .     S
O1255  Zn1258  1.919   .     S
O1256  Zn1259  1.939   .     S
O1257  Zn1260  1.931   .     S
C1262  O1351   1.267   .     A
C1262  C1272   1.438   .     S
C1262  O1349   1.268   .     A
C1263  C1297   1.413   .     A
C1263  C1264   1.384   .     A
C1263  H1336   1.077   .     S
C1264  H1333   1.084   .     S
C1264  C393    1.393   1_556 S
C1265  O1352   1.280   .     A
C1265  O1350   1.281   .     A
C1265  C1271   1.462   .     S
C1266  C1267   1.424   .     A
C1266  C1268   1.413   .     A
C1267  C1270   1.409   .     A
C1267  C1298   1.431   .     A
C1268  C1269   1.397   .     A
C1268  O1342   1.384   .     S
C1269  C1281   1.391   .     A
C1269  H1332   1.081   .     S
C1270  H1331   1.076   .     S
C1270  C1281   1.390   .     A
C1271  C1369   1.339   .     S
C1271  O1440   1.387   .     S
C1273  O1345   1.384   .     S
C1273  C1282   1.396   .     A
C1273  C1280   1.414   .     A
C1274  C1277   1.458   .     S
C1274  C1566   1.336   .     S
C1274  O1635   1.388   .     S
C1275  C1276   1.436   .     S
C1276  O1353   1.277   .     A
C1276  O1347   1.276   .     A
C1277  O1354   1.266   .     A
C1277  O1348   1.270   .     A
C1278  O1340   1.272   .     A
C1278  C1281   1.451   .     S
C1278  O1338   1.270   .     A
C1279  C1280   1.481   .     S
C1279  O1339   1.283   .     A
C1279  O1341   1.291   .     A
C1280  C1284   1.401   .     A
C1282  H1334   1.084   .     S
C1282  C1296   1.400   .     A
C1283  H1302   1.112   .     S
C1283  O1342   1.411   .     S
C1284  C1295   1.410   .     A
C1284  H1335   1.075   .     S
C1285  O1343   1.410   .     S
C1285  H1305   1.113   .     S
C1285  H1307   1.109   .     S
C1286  H1309   1.114   .     S
C1286  C1578   1.527   .     S
C1286  H1599   1.115   .     S
C1286  O1635   1.413   .     S
C1287  H1311   1.112   .     S
C1287  H1310   1.111   .     S
C1287  C1288   1.526   .     S
C1288  H1315   1.111   .     S
C1288  H1314   1.110   .     S
C1289  O1345   1.418   .     S
C1289  H1317   1.118   .     S
C1289  C1290   1.533   .     S
C1289  H1316   1.111   .     S
C1290  H1318   1.112   .     S
C1290  H1319   1.110   .     S
C1290  C1582   1.527   .     S
C1291  H1321   1.111   .     S
C1291  H1320   1.111   .     S
C1291  H1322   1.111   .     S
C1292  O1346   1.416   .     S
C1292  H1324   1.111   .     S
C1292  C1293   1.531   .     S
C1292  H1325   1.118   .     S
C1293  H1327   1.111   .     S
C1293  H1326   1.112   .     S
C1294  H1330   1.111   .     S
C1294  H1328   1.111   .     S
C1294  H1329   1.110   .     S
C1294  C1390   1.526   .     S
C1295  C1296   1.414   .     A
C1295  C1297   1.425   .     A
C1296  C427    1.391   1_556 S
C1297  C425    1.427   1_556 S
C1298  C1299   1.429   .     A
C1299  O1346   1.382   .     S
C1299  C1300   1.391   .     A
C1300  H1301   1.085   .     S
H1303  C410    1.114   1_556 S
H1304  C410    1.109   1_556 S
H1306  C1382   1.112   .     S
H1312  C1369   1.086   .     S
H1313  C1579   1.111   .     S
H1323  C1566   1.086   .     S
O1337  Zn1356  1.938   .     S
O1337  Zn1355  1.964   .     S
O1337  Zn1358  1.929   .     S
O1337  Zn1357  1.927   .     S
O1338  Zn1356  1.925   .     S
O1339  Zn1358  1.938   .     S
O1340  Zn1357  1.930   .     S
O1341  Zn1355  1.919   .     S
O1347  Zn1355  1.926   .     S
O1348  Zn1358  1.930   .     S
O1349  Zn1356  1.925   .     S
O1350  Zn1357  1.938   .     S
O1351  Zn1358  1.929   .     S
O1352  Zn1355  1.919   .     S
O1353  Zn1356  1.939   .     S
O1354  Zn1357  1.931   .     S
C1359  O1448   1.267   .     A
C1359  C1369   1.438   .     S
C1359  O1446   1.268   .     A
C1360  C1394   1.413   .     A
C1360  C1361   1.384   .     A
C1360  H1433   1.077   .     S
C1361  H1430   1.084   .     S
C1361  C490    1.393   1_556 S
C1362  O1449   1.280   .     A
C1362  O1447   1.281   .     A
C1362  C1368   1.462   .     S
C1363  C1364   1.424   .     A
C1363  C1365   1.413   .     A
C1364  C1367   1.409   .     A
C1364  C1395   1.431   .     A
C1365  C1366   1.397   .     A
C1365  O1439   1.384   .     S
C1366  C1378   1.391   .     A
C1366  H1429   1.081   .     S
C1367  H1428   1.076   .     S
C1367  C1378   1.390   .     A
C1368  C1175   1.339   1_655 S
C1368  O1246   1.387   1_655 S
C1370  O1442   1.384   .     S
C1370  C1379   1.396   .     A
C1370  C1377   1.414   .     A
C1371  C1374   1.458   .     S
C1371  C1663   1.336   .     S
C1371  O1732   1.388   .     S
C1372  C1373   1.436   .     S
C1373  O1450   1.277   .     A
C1373  O1444   1.276   .     A
C1374  O1451   1.266   .     A
C1374  O1445   1.270   .     A
C1375  O1437   1.272   .     A
C1375  C1378   1.451   .     S
C1375  O1435   1.270   .     A
C1376  C1377   1.481   .     S
C1376  O1436   1.283   .     A
C1376  O1438   1.291   .     A
C1377  C1381   1.401   .     A
C1379  H1431   1.084   .     S
C1379  C1393   1.400   .     A
C1380  H1399   1.112   .     S
C1380  O1439   1.411   .     S
C1381  C1392   1.410   .     A
C1381  H1432   1.075   .     S
C1382  O1440   1.410   .     S
C1382  H1402   1.113   .     S
C1382  H1404   1.109   .     S
C1383  H1406   1.114   .     S
C1383  C1675   1.527   .     S
C1383  H1696   1.115   .     S
C1383  O1732   1.413   .     S
C1384  H1408   1.112   .     S
C1384  H1407   1.111   .     S
C1384  C1385   1.526   .     S
C1385  H1412   1.111   .     S
C1385  H1411   1.110   .     S
C1386  O1442   1.418   .     S
C1386  H1414   1.118   .     S
C1386  C1387   1.533   .     S
C1386  H1413   1.111   .     S
C1387  H1415   1.112   .     S
C1387  H1416   1.110   .     S
C1387  C1679   1.527   .     S
C1388  H1418   1.111   .     S
C1388  H1417   1.111   .     S
C1388  H1419   1.111   .     S
C1389  O1443   1.416   .     S
C1389  H1421   1.111   .     S
C1389  C1390   1.531   .     S
C1389  H1422   1.118   .     S
C1390  H1424   1.111   .     S
C1390  H1423   1.112   .     S
C1391  H1427   1.111   .     S
C1391  H1425   1.111   .     S
C1391  H1426   1.110   .     S
C1391  C1196   1.526   1_655 S
C1392  C1393   1.414   .     A
C1392  C1394   1.425   .     A
C1393  C524    1.391   1_556 S
C1394  C522    1.427   1_556 S
C1395  C1396   1.429   .     A
C1396  O1443   1.382   .     S
C1396  C1397   1.391   .     A
C1397  H1398   1.085   .     S
H1400  C507    1.114   1_556 S
H1401  C507    1.109   1_556 S
H1403  C1188   1.112   1_655 S
H1409  C1175   1.086   1_655 S
H1410  C1676   1.111   .     S
H1420  C1663   1.086   .     S
O1434  Zn1453  1.938   .     S
O1434  Zn1452  1.964   .     S
O1434  Zn1455  1.929   .     S
O1434  Zn1454  1.927   .     S
O1435  Zn1453  1.925   .     S
O1436  Zn1455  1.938   .     S
O1437  Zn1454  1.930   .     S
O1438  Zn1452  1.919   .     S
O1444  Zn1452  1.926   .     S
O1445  Zn1455  1.930   .     S
O1446  Zn1453  1.925   .     S
O1447  Zn1454  1.938   .     S
O1448  Zn1455  1.929   .     S
O1449  Zn1452  1.919   .     S
O1450  Zn1453  1.939   .     S
O1451  Zn1454  1.931   .     S
C1456  O1545   1.267   .     A
C1456  C1466   1.438   .     S
C1456  O1543   1.268   .     A
C1457  C1491   1.413   .     A
C1457  C1458   1.384   .     A
C1457  H1530   1.077   .     S
C1458  H1527   1.084   .     S
C1458  C587    1.393   1_556 S
C1459  O1546   1.280   .     A
C1459  O1544   1.281   .     A
C1459  C1465   1.462   .     S
C1460  C1461   1.424   .     A
C1460  C1462   1.413   .     A
C1461  C1464   1.409   .     A
C1461  C1492   1.431   .     A
C1462  C1463   1.397   .     A
C1462  O1536   1.384   .     S
C1463  C1475   1.391   .     A
C1463  H1526   1.081   .     S
C1464  H1525   1.076   .     S
C1464  C1475   1.390   .     A
C1465  C1563   1.339   .     S
C1465  O1634   1.387   .     S
C1466  C1659   1.339   1_455 S
C1466  H1700   1.086   1_455 S
C1467  O1539   1.384   .     S
C1467  C1476   1.396   .     A
C1467  C1474   1.414   .     A
C1468  C1471   1.458   .     S
C1468  C887    1.336   1_565 S
C1468  O956    1.388   1_565 S
C1469  C1470   1.436   .     S
C1470  O1547   1.277   .     A
C1470  O1541   1.276   .     A
C1471  O1548   1.266   .     A
C1471  O1542   1.270   .     A
C1472  O1534   1.272   .     A
C1472  C1475   1.451   .     S
C1472  O1532   1.270   .     A
C1473  C1474   1.481   .     S
C1473  O1533   1.283   .     A
C1473  O1535   1.291   .     A
C1474  C1478   1.401   .     A
C1476  H1528   1.084   .     S
C1476  C1490   1.400   .     A
C1477  H1496   1.112   .     S
C1477  O1536   1.411   .     S
C1478  C1489   1.410   .     A
C1478  H1529   1.075   .     S
C1479  O1537   1.410   .     S
C1479  H1499   1.113   .     S
C1479  H1501   1.109   .     S
C1479  H1694   1.112   1_455 S
C1480  H1503   1.114   .     S
C1480  C899    1.527   1_565 S
C1480  H920    1.115   1_565 S
C1480  O956    1.413   1_565 S
C1481  H1505   1.112   .     S
C1481  H1504   1.111   .     S
C1481  C1482   1.526   .     S
C1482  H1509   1.111   .     S
C1482  H1508   1.110   .     S
C1483  O1539   1.418   .     S
C1483  H1511   1.118   .     S
C1483  C1484   1.533   .     S
C1483  H1510   1.111   .     S
C1484  H1512   1.112   .     S
C1484  H1513   1.110   .     S
C1484  C903    1.527   1_565 S
C1485  H1515   1.111   .     S
C1485  H1514   1.111   .     S
C1485  H1516   1.111   .     S
C1486  O1540   1.416   .     S
C1486  H1518   1.111   .     S
C1486  C1487   1.531   .     S
C1486  H1519   1.118   .     S
C1487  H1521   1.111   .     S
C1487  H1520   1.112   .     S
C1487  C1682   1.526   1_455 S
C1488  H1524   1.111   .     S
C1488  H1522   1.111   .     S
C1488  H1523   1.110   .     S
C1488  C1584   1.526   .     S
C1489  C1490   1.414   .     A
C1489  C1491   1.425   .     A
C1490  C621    1.391   1_556 S
C1491  C619    1.427   1_556 S
C1492  C1493   1.429   .     A
C1493  O1540   1.382   .     S
C1493  C1494   1.391   .     A
C1494  H1495   1.085   .     S
H1497  C604    1.114   1_556 S
H1498  C604    1.109   1_556 S
H1500  C1576   1.112   .     S
H1506  C1563   1.086   .     S
H1507  C900    1.111   1_565 S
H1517  C887    1.086   1_565 S
O1531  Zn1550  1.938   .     S
O1531  Zn1549  1.964   .     S
O1531  Zn1552  1.929   .     S
O1531  Zn1551  1.927   .     S
O1532  Zn1550  1.925   .     S
O1533  Zn1552  1.938   .     S
O1534  Zn1551  1.930   .     S
O1535  Zn1549  1.919   .     S
O1537  C1659   1.387   1_455 S
O1541  Zn1549  1.926   .     S
O1542  Zn1552  1.930   .     S
O1543  Zn1550  1.925   .     S
O1544  Zn1551  1.938   .     S
O1545  Zn1552  1.929   .     S
O1546  Zn1549  1.919   .     S
O1547  Zn1550  1.939   .     S
O1548  Zn1551  1.931   .     S
C1553  O1642   1.267   .     A
C1553  C1563   1.438   .     S
C1553  O1640   1.268   .     A
C1554  C1588   1.413   .     A
C1554  C1555   1.384   .     A
C1554  H1627   1.077   .     S
C1555  H1624   1.084   .     S
C1555  C684    1.393   1_556 S
C1556  O1643   1.280   .     A
C1556  O1641   1.281   .     A
C1556  C1562   1.462   .     S
C1557  C1558   1.424   .     A
C1557  C1559   1.413   .     A
C1558  C1561   1.409   .     A
C1558  C1589   1.431   .     A
C1559  C1560   1.397   .     A
C1559  O1633   1.384   .     S
C1560  C1572   1.391   .     A
C1560  H1623   1.081   .     S
C1561  H1622   1.076   .     S
C1561  C1572   1.390   .     A
C1562  C1660   1.339   .     S
C1562  O1731   1.387   .     S
C1564  O1636   1.384   .     S
C1564  C1573   1.396   .     A
C1564  C1571   1.414   .     A
C1565  C1568   1.458   .     S
C1565  C984    1.336   1_565 S
C1565  O1053   1.388   1_565 S
C1566  C1567   1.436   .     S
C1567  O1644   1.277   .     A
C1567  O1638   1.276   .     A
C1568  O1645   1.266   .     A
C1568  O1639   1.270   .     A
C1569  O1631   1.272   .     A
C1569  C1572   1.451   .     S
C1569  O1629   1.270   .     A
C1570  C1571   1.481   .     S
C1570  O1630   1.283   .     A
C1570  O1632   1.291   .     A
C1571  C1575   1.401   .     A
C1573  H1625   1.084   .     S
C1573  C1587   1.400   .     A
C1574  H1593   1.112   .     S
C1574  O1633   1.411   .     S
C1575  C1586   1.410   .     A
C1575  H1626   1.075   .     S
C1576  O1634   1.410   .     S
C1576  H1596   1.113   .     S
C1576  H1598   1.109   .     S
C1577  H1600   1.114   .     S
C1577  C996    1.527   1_565 S
C1577  H1017   1.115   1_565 S
C1577  O1053   1.413   1_565 S
C1578  H1602   1.112   .     S
C1578  H1601   1.111   .     S
C1578  C1579   1.526   .     S
C1579  H1606   1.111   .     S
C1579  H1605   1.110   .     S
C1580  O1636   1.418   .     S
C1580  H1608   1.118   .     S
C1580  C1581   1.533   .     S
C1580  H1607   1.111   .     S
C1581  H1609   1.112   .     S
C1581  H1610   1.110   .     S
C1581  C1000   1.527   1_565 S
C1582  H1612   1.111   .     S
C1582  H1611   1.111   .     S
C1582  H1613   1.111   .     S
C1583  O1637   1.416   .     S
C1583  H1615   1.111   .     S
C1583  C1584   1.531   .     S
C1583  H1616   1.118   .     S
C1584  H1618   1.111   .     S
C1584  H1617   1.112   .     S
C1585  H1621   1.111   .     S
C1585  H1619   1.111   .     S
C1585  H1620   1.110   .     S
C1585  C1681   1.526   .     S
C1586  C1587   1.414   .     A
C1586  C1588   1.425   .     A
C1587  C718    1.391   1_556 S
C1588  C716    1.427   1_556 S
C1589  C1590   1.429   .     A
C1590  O1637   1.382   .     S
C1590  C1591   1.391   .     A
C1591  H1592   1.085   .     S
H1594  C701    1.114   1_556 S
H1595  C701    1.109   1_556 S
H1597  C1673   1.112   .     S
H1603  C1660   1.086   .     S
H1604  C997    1.111   1_565 S
H1614  C984    1.086   1_565 S
O1628  Zn1647  1.938   .     S
O1628  Zn1646  1.964   .     S
O1628  Zn1649  1.929   .     S
O1628  Zn1648  1.927   .     S
O1629  Zn1647  1.925   .     S
O1630  Zn1649  1.938   .     S
O1631  Zn1648  1.930   .     S
O1632  Zn1646  1.919   .     S
O1638  Zn1646  1.926   .     S
O1639  Zn1649  1.930   .     S
O1640  Zn1647  1.925   .     S
O1641  Zn1648  1.938   .     S
O1642  Zn1649  1.929   .     S
O1643  Zn1646  1.919   .     S
O1644  Zn1647  1.939   .     S
O1645  Zn1648  1.931   .     S
C1650  O1739   1.267   .     A
C1650  C1660   1.438   .     S
C1650  O1737   1.268   .     A
C1651  C1685   1.413   .     A
C1651  C1652   1.384   .     A
C1651  H1724   1.077   .     S
C1652  H1721   1.084   .     S
C1652  C781    1.393   1_556 S
C1653  O1740   1.280   .     A
C1653  O1738   1.281   .     A
C1653  C1659   1.462   .     S
C1654  C1655   1.424   .     A
C1654  C1656   1.413   .     A
C1655  C1658   1.409   .     A
C1655  C1686   1.431   .     A
C1656  C1657   1.397   .     A
C1656  O1730   1.384   .     S
C1657  C1669   1.391   .     A
C1657  H1720   1.081   .     S
C1658  H1719   1.076   .     S
C1658  C1669   1.390   .     A
C1659  C1466   1.339   1_655 S
C1659  O1537   1.387   1_655 S
C1661  O1733   1.384   .     S
C1661  C1670   1.396   .     A
C1661  C1668   1.414   .     A
C1662  C1665   1.458   .     S
C1662  C1081   1.336   1_565 S
C1662  O1150   1.388   1_565 S
C1663  C1664   1.436   .     S
C1664  O1741   1.277   .     A
C1664  O1735   1.276   .     A
C1665  O1742   1.266   .     A
C1665  O1736   1.270   .     A
C1666  O1728   1.272   .     A
C1666  C1669   1.451   .     S
C1666  O1726   1.270   .     A
C1667  C1668   1.481   .     S
C1667  O1727   1.283   .     A
C1667  O1729   1.291   .     A
C1668  C1672   1.401   .     A
C1670  H1722   1.084   .     S
C1670  C1684   1.400   .     A
C1671  H1690   1.112   .     S
C1671  O1730   1.411   .     S
C1672  C1683   1.410   .     A
C1672  H1723   1.075   .     S
C1673  O1731   1.410   .     S
C1673  H1693   1.113   .     S
C1673  H1695   1.109   .     S
C1674  H1697   1.114   .     S
C1674  C1093   1.527   1_565 S
C1674  H1114   1.115   1_565 S
C1674  O1150   1.413   1_565 S
C1675  H1699   1.112   .     S
C1675  H1698   1.111   .     S
C1675  C1676   1.526   .     S
C1676  H1703   1.111   .     S
C1676  H1702   1.110   .     S
C1677  O1733   1.418   .     S
C1677  H1705   1.118   .     S
C1677  C1678   1.533   .     S
C1677  H1704   1.111   .     S
C1678  H1706   1.112   .     S
C1678  H1707   1.110   .     S
C1678  C1097   1.527   1_565 S
C1679  H1709   1.111   .     S
C1679  H1708   1.111   .     S
C1679  H1710   1.111   .     S
C1680  O1734   1.416   .     S
C1680  H1712   1.111   .     S
C1680  C1681   1.531   .     S
C1680  H1713   1.118   .     S
C1681  H1715   1.111   .     S
C1681  H1714   1.112   .     S
C1682  H1718   1.111   .     S
C1682  H1716   1.111   .     S
C1682  H1717   1.110   .     S
C1682  C1487   1.526   1_655 S
C1683  C1684   1.414   .     A
C1683  C1685   1.425   .     A
C1684  C815    1.391   1_556 S
C1685  C813    1.427   1_556 S
C1686  C1687   1.429   .     A
C1687  O1734   1.382   .     S
C1687  C1688   1.391   .     A
C1688  H1689   1.085   .     S
H1691  C798    1.114   1_556 S
H1692  C798    1.109   1_556 S
H1694  C1479   1.112   1_655 S
H1700  C1466   1.086   1_655 S
H1701  C1094   1.111   1_565 S
H1711  C1081   1.086   1_565 S
O1725  Zn1744  1.938   .     S
O1725  Zn1743  1.964   .     S
O1725  Zn1746  1.929   .     S
O1725  Zn1745  1.927   .     S
O1726  Zn1744  1.925   .     S
O1727  Zn1746  1.938   .     S
O1728  Zn1745  1.930   .     S
O1729  Zn1743  1.919   .     S
O1735  Zn1743  1.926   .     S
O1736  Zn1746  1.930   .     S
O1737  Zn1744  1.925   .     S
O1738  Zn1745  1.938   .     S
O1739  Zn1746  1.929   .     S
O1740  Zn1743  1.919   .     S
O1741  Zn1744  1.939   .     S
O1742  Zn1745  1.931   .     S
