data_str_m1_o5_o17_pcu_sym.19
_audit_creation_date              2020-01-03
_audit_creation_method            'Materials Studio'
_symmetry_space_group_name_H-M    'P1'
_symmetry_Int_Tables_number       1
_symmetry_cell_setting            triclinic
loop_
_symmetry_equiv_pos_as_xyz
  x,y,z
_cell_length_a                    31.7591
_cell_length_b                    31.7589
_cell_length_c                    34.5799
_cell_angle_alpha                 90.0002
_cell_angle_beta                  90.0000
_cell_angle_gamma                 90.0170
loop_
_atom_site_label
_atom_site_type_symbol
_atom_site_fract_x
_atom_site_fract_y
_atom_site_fract_z
_atom_site_U_iso_or_equiv
_atom_site_adp_type
_atom_site_occupancy
C1     C     0.25000   0.00000   0.35605   0.00000  Uiso   1.00
C2     C     0.33001   0.41999   0.75000   0.00000  Uiso   1.00
C3     C     0.48902   0.17343   0.02033   0.00000  Uiso   1.00
C4     C     0.32650   0.01152   0.97966   0.00000  Uiso   1.00
C5     C     0.17350   0.48848   0.02033   0.00000  Uiso   1.00
C6     C     0.48902   0.17343   0.97966   0.00000  Uiso   1.00
C7     C     0.01098   0.32657   0.02033   0.00000  Uiso   1.00
C8     C     0.38388   0.23348   0.45913   0.00000  Uiso   1.00
C9     C     0.11612   0.26652   0.54087   0.00000  Uiso   1.00
C10    C     0.26692   0.11607   0.45913   0.00000  Uiso   1.00
C11    C     0.23308   0.38393   0.54087   0.00000  Uiso   1.00
C12    C     0.11612   0.26652   0.45913   0.00000  Uiso   1.00
C13    C     0.41999   0.16999   0.25000   0.00000  Uiso   1.00
C14    C     0.38388   0.23348   0.54087   0.00000  Uiso   1.00
C15    C     0.23308   0.38393   0.45913   0.00000  Uiso   1.00
C16    C     0.26692   0.11607   0.54087   0.00000  Uiso   1.00
C17    C     0.13403   0.48237   0.95913   0.00000  Uiso   1.00
C18    C     0.36597   0.01763   0.04087   0.00000  Uiso   1.00
C19    C     0.01682   0.36609   0.95913   0.00000  Uiso   1.00
C20    C     0.48318   0.13391   0.04087   0.00000  Uiso   1.00
C21    C     0.36597   0.01766   0.95913   0.00000  Uiso   1.00
C22    C     0.13403   0.48234   0.04087   0.00000  Uiso   1.00
C23    C     0.48318   0.13391   0.95913   0.00000  Uiso   1.00
C24    C     0.08001   0.33001   0.75000   0.00000  Uiso   1.00
C25    C     0.01682   0.36609   0.04087   0.00000  Uiso   1.00
C26    C     0.33001   0.41999   0.25000   0.00000  Uiso   1.00
C27    C     0.16999   0.08001   0.75000   0.00000  Uiso   1.00
C28    C     0.08001   0.33001   0.25000   0.00000  Uiso   1.00
C29    C     0.41999   0.16999   0.75000   0.00000  Uiso   1.00
C30    C     0.16999   0.41999   0.75000   0.00000  Uiso   1.00
C31    C     0.33001   0.08001   0.25000   0.00000  Uiso   1.00
C32    C     0.41999   0.33001   0.75000   0.00000  Uiso   1.00
C33    C     0.25000   0.00000   0.64395   0.00000  Uiso   1.00
C34    C     0.08001   0.16999   0.25000   0.00000  Uiso   1.00
C35    C     0.33001   0.08001   0.75000   0.00000  Uiso   1.00
C36    C     0.16999   0.41999   0.25000   0.00000  Uiso   1.00
C37    C     0.08001   0.16999   0.75000   0.00000  Uiso   1.00
C38    C     0.41999   0.33001   0.25000   0.00000  Uiso   1.00
C39    C     0.13834   0.38834   0.25000   0.00000  Uiso   1.00
C40    C     0.36166   0.11166   0.75000   0.00000  Uiso   1.00
C41    C     0.11167   0.13833   0.25000   0.00000  Uiso   1.00
C42    C     0.38834   0.36167   0.75000   0.00000  Uiso   1.00
C43    C     0.36166   0.11166   0.25000   0.00000  Uiso   1.00
C44    C     0.00000   0.25000   0.35605   0.00000  Uiso   1.00
C45    C     0.13834   0.38834   0.75000   0.00000  Uiso   1.00
C46    C     0.38833   0.36167   0.25000   0.00000  Uiso   1.00
C47    C     0.11167   0.13833   0.75000   0.00000  Uiso   1.00
C48    C     0.13833   0.11167   0.75000   0.00000  Uiso   1.00
C49    C     0.36167   0.38833   0.25000   0.00000  Uiso   1.00
C50    C     0.11166   0.36166   0.75000   0.00000  Uiso   1.00
C51    C     0.38834   0.13834   0.25000   0.00000  Uiso   1.00
C52    C     0.36167   0.38833   0.75000   0.00000  Uiso   1.00
C53    C     0.13834   0.11167   0.25000   0.00000  Uiso   1.00
C54    C     0.38834   0.13834   0.75000   0.00000  Uiso   1.00
C55    C     0.00000   0.25000   0.64395   0.00000  Uiso   1.00
C56    C     0.11166   0.36166   0.25000   0.00000  Uiso   1.00
C57    C     0.03770   0.25510   0.41866   0.00000  Uiso   1.00
C58    C     0.46230   0.24490   0.58134   0.00000  Uiso   1.00
C59    C     0.24477   0.46231   0.41866   0.00000  Uiso   1.00
C60    C     0.25523   0.03769   0.58134   0.00000  Uiso   1.00
C61    C     0.46230   0.24490   0.41866   0.00000  Uiso   1.00
C62    C     0.03770   0.25510   0.58134   0.00000  Uiso   1.00
C63    C     0.25523   0.03769   0.41866   0.00000  Uiso   1.00
C64    C     0.24477   0.46231   0.58134   0.00000  Uiso   1.00
C65    C     0.28765   0.00547   0.91865   0.00000  Uiso   1.00
C66    C     0.00000   0.25000   0.85605   0.00000  Uiso   1.00
C67    C     0.21235   0.49453   0.08135   0.00000  Uiso   1.00
C68    C     0.49480   0.21231   0.91866   0.00000  Uiso   1.00
C69    C     0.00521   0.28769   0.08134   0.00000  Uiso   1.00
C70    C     0.21234   0.49454   0.91865   0.00000  Uiso   1.00
C71    C     0.28766   0.00546   0.08135   0.00000  Uiso   1.00
C72    C     0.00521   0.28769   0.91866   0.00000  Uiso   1.00
C73    C     0.49479   0.21231   0.08134   0.00000  Uiso   1.00
C74    C     0.00000   0.25000   0.39846   0.00000  Uiso   1.00
C75    C     0.00000   0.25000   0.60154   0.00000  Uiso   1.00
C76    C     0.25000   0.00000   0.39846   0.00000  Uiso   1.00
C77    C     0.00000   0.25000   0.14395   0.00000  Uiso   1.00
C78    C     0.25000   0.00000   0.60154   0.00000  Uiso   1.00
C79    C     0.25000   0.00000   0.89846   0.00000  Uiso   1.00
C80    C     0.25000  -0.00000   0.10154   0.00000  Uiso   1.00
C81    C     0.00000   0.25000   0.89846   0.00000  Uiso   1.00
C82    C     0.00000   0.25000   0.10154   0.00000  Uiso   1.00
C83    C     0.46161   0.24468   0.45924   0.00000  Uiso   1.00
C84    C     0.03839   0.25532   0.54076   0.00000  Uiso   1.00
C85    C     0.25545   0.03838   0.45924   0.00000  Uiso   1.00
C86    C     0.24455   0.46162   0.54076   0.00000  Uiso   1.00
C87    C     0.03839   0.25532   0.45924   0.00000  Uiso   1.00
C88    C     0.25000   0.00000   0.85605   0.00000  Uiso   1.00
C89    C     0.46161   0.24468   0.54076   0.00000  Uiso   1.00
C90    C     0.24455   0.46162   0.45924   0.00000  Uiso   1.00
C91    C     0.25545   0.03838   0.54076   0.00000  Uiso   1.00
C92    C     0.21165   0.49431   0.95924   0.00000  Uiso   1.00
C93    C     0.28835   0.00569   0.04076   0.00000  Uiso   1.00
C94    C     0.00542   0.28838   0.95924   0.00000  Uiso   1.00
C95    C     0.49458   0.21162   0.04076   0.00000  Uiso   1.00
C96    C     0.28835   0.00569   0.95924   0.00000  Uiso   1.00
C97    C     0.21165   0.49431   0.04076   0.00000  Uiso   1.00
C98    C     0.49458   0.21162   0.95924   0.00000  Uiso   1.00
C99    C     0.25000  -0.00000   0.14395   0.00000  Uiso   1.00
C100   C     0.00542   0.28838   0.04076   0.00000  Uiso   1.00
C101   C     0.00000   0.25000   0.47965   0.00000  Uiso   1.00
C102   C     0.00000   0.25000   0.52035   0.00000  Uiso   1.00
C103   C     0.25000   0.00000   0.47965   0.00000  Uiso   1.00
C104   C     0.25000   0.00000   0.52035   0.00000  Uiso   1.00
C105   C     0.25000   0.00000   0.97965   0.00000  Uiso   1.00
C106   C     0.25000  -0.00000   0.02035   0.00000  Uiso   1.00
C107   C     0.00000   0.25000   0.97965   0.00000  Uiso   1.00
C108   C     0.00000   0.25000   0.02035   0.00000  Uiso   1.00
C109   C     0.42341   0.23922   0.47966   0.00000  Uiso   1.00
C110   C     0.16999   0.08001   0.25000   0.00000  Uiso   1.00
C111   C     0.07659   0.26078   0.52033   0.00000  Uiso   1.00
C112   C     0.26104   0.07656   0.47967   0.00000  Uiso   1.00
C113   C     0.23896   0.42344   0.52033   0.00000  Uiso   1.00
C114   C     0.07659   0.26078   0.47966   0.00000  Uiso   1.00
C115   C     0.42341   0.23922   0.52033   0.00000  Uiso   1.00
C116   C     0.23896   0.42344   0.47966   0.00000  Uiso   1.00
C117   C     0.26104   0.07656   0.52033   0.00000  Uiso   1.00
C118   C     0.17350   0.48849   0.97966   0.00000  Uiso   1.00
C119   C     0.32650   0.01151   0.02034   0.00000  Uiso   1.00
C120   C     0.01098   0.32657   0.97966   0.00000  Uiso   1.00
H121   H     0.06653   0.25913   0.40238   0.00000  Uiso   1.00
H122   H     0.18356   0.49021   0.09762   0.00000  Uiso   1.00
H123   H     0.49069   0.18349   0.90238   0.00000  Uiso   1.00
H124   H     0.00931   0.31651   0.09762   0.00000  Uiso   1.00
H125   H     0.18356   0.49022   0.90238   0.00000  Uiso   1.00
H126   H     0.31644   0.00978   0.09762   0.00000  Uiso   1.00
H127   H     0.00931   0.31651   0.90238   0.00000  Uiso   1.00
H128   H     0.49069   0.18349   0.09762   0.00000  Uiso   1.00
H129   H     0.43347   0.24087   0.59762   0.00000  Uiso   1.00
H130   H     0.24064   0.43350   0.40238   0.00000  Uiso   1.00
H131   H     0.25936   0.06650   0.59762   0.00000  Uiso   1.00
H132   H     0.43347   0.24087   0.40238   0.00000  Uiso   1.00
H133   H     0.06653   0.25913   0.59762   0.00000  Uiso   1.00
H134   H     0.25936   0.06651   0.40238   0.00000  Uiso   1.00
H135   H     0.24064   0.43350   0.59762   0.00000  Uiso   1.00
H136   H     0.31644   0.00979   0.90238   0.00000  Uiso   1.00
N137   N     0.35239   0.22890   0.44282   0.00000  Uiso   1.00
N138   N     0.39742   0.02253   0.05719   0.00000  Uiso   1.00
N139   N     0.02148   0.39757   0.94282   0.00000  Uiso   1.00
N140   N     0.47852   0.10243   0.05718   0.00000  Uiso   1.00
N141   N     0.39741   0.02257   0.94282   0.00000  Uiso   1.00
N142   N     0.10259   0.47743   0.05718   0.00000  Uiso   1.00
N143   N     0.47852   0.10243   0.94281   0.00000  Uiso   1.00
N144   N     0.02148   0.39757   0.05719   0.00000  Uiso   1.00
N145   N     0.14761   0.27110   0.55718   0.00000  Uiso   1.00
N146   N     0.27161   0.14755   0.44282   0.00000  Uiso   1.00
N147   N     0.22839   0.35245   0.55718   0.00000  Uiso   1.00
N148   N     0.14761   0.27110   0.44282   0.00000  Uiso   1.00
N149   N     0.35239   0.22890   0.55718   0.00000  Uiso   1.00
N150   N     0.22839   0.35245   0.44282   0.00000  Uiso   1.00
N151   N     0.27161   0.14755   0.55718   0.00000  Uiso   1.00
N152   N     0.10258   0.47747   0.94281   0.00000  Uiso   1.00
O153   O     0.25000   0.00000   0.25000   0.00000  Uiso   1.00
O154   O     0.25000   0.46539   0.66251   0.00000  Uiso   1.00
O155   O     0.46539   0.25000   0.33749   0.00000  Uiso   1.00
O156   O     0.03462   0.25000   0.66251   0.00000  Uiso   1.00
O157   O     0.00000   0.21539   0.83749   0.00000  Uiso   1.00
O158   O     0.00000   0.28462   0.16251   0.00000  Uiso   1.00
O159   O     0.28462   0.00000   0.83749   0.00000  Uiso   1.00
O160   O     0.21539   0.00000   0.16251   0.00000  Uiso   1.00
O161   O     0.00000   0.28462   0.83749   0.00000  Uiso   1.00
O162   O     0.00000   0.21539   0.16251   0.00000  Uiso   1.00
O163   O     0.21539   0.00000   0.83749   0.00000  Uiso   1.00
O164   O     0.25000   0.00000   0.75000   0.00000  Uiso   1.00
O165   O     0.28462   0.00000   0.16251   0.00000  Uiso   1.00
O166   O     0.20127   0.08332   0.27298   0.00000  Uiso   1.00
O167   O     0.29874   0.41668   0.72702   0.00000  Uiso   1.00
O168   O     0.41668   0.20127   0.27298   0.00000  Uiso   1.00
O169   O     0.08332   0.29874   0.72702   0.00000  Uiso   1.00
O170   O     0.29874   0.41668   0.27298   0.00000  Uiso   1.00
O171   O     0.20127   0.08332   0.72702   0.00000  Uiso   1.00
O172   O     0.08332   0.29874   0.27298   0.00000  Uiso   1.00
O173   O     0.41668   0.20127   0.72702   0.00000  Uiso   1.00
O174   O     0.20127   0.41668   0.72702   0.00000  Uiso   1.00
O175   O     0.00000   0.25000   0.25000   0.00000  Uiso   1.00
O176   O     0.29874   0.08332   0.27298   0.00000  Uiso   1.00
O177   O     0.41668   0.29874   0.72702   0.00000  Uiso   1.00
O178   O     0.08332   0.20127   0.27298   0.00000  Uiso   1.00
O179   O     0.29874   0.08332   0.72702   0.00000  Uiso   1.00
O180   O     0.20127   0.41668   0.27298   0.00000  Uiso   1.00
O181   O     0.08332   0.20127   0.72702   0.00000  Uiso   1.00
O182   O     0.41668   0.29874   0.27298   0.00000  Uiso   1.00
O183   O     0.45127   0.33332   0.77298   0.00000  Uiso   1.00
O184   O     0.04874   0.16668   0.22702   0.00000  Uiso   1.00
O185   O     0.16668   0.45127   0.77298   0.00000  Uiso   1.00
O186   O     0.00000   0.25000   0.75000   0.00000  Uiso   1.00
O187   O     0.33332   0.04874   0.22702   0.00000  Uiso   1.00
O188   O     0.04874   0.16668   0.77298   0.00000  Uiso   1.00
O189   O     0.45127   0.33332   0.22702   0.00000  Uiso   1.00
O190   O     0.33332   0.04874   0.77298   0.00000  Uiso   1.00
O191   O     0.16668   0.45127   0.22702   0.00000  Uiso   1.00
O192   O     0.45127   0.16668   0.22702   0.00000  Uiso   1.00
O193   O     0.04874   0.33332   0.77298   0.00000  Uiso   1.00
O194   O     0.16668   0.04874   0.22702   0.00000  Uiso   1.00
O195   O     0.33332   0.45127   0.77298   0.00000  Uiso   1.00
O196   O     0.04874   0.33332   0.22702   0.00000  Uiso   1.00
O197   O     0.25000   0.46539   0.33749   0.00000  Uiso   1.00
O198   O     0.45127   0.16668   0.77298   0.00000  Uiso   1.00
O199   O     0.33332   0.45127   0.22702   0.00000  Uiso   1.00
O200   O     0.16668   0.04874   0.77298   0.00000  Uiso   1.00
O201   O     0.25000   0.03462   0.66251   0.00000  Uiso   1.00
O202   O     0.03462   0.25000   0.33749   0.00000  Uiso   1.00
O203   O     0.46539   0.25000   0.66251   0.00000  Uiso   1.00
O204   O     0.25000   0.03462   0.33749   0.00000  Uiso   1.00
Zn205  Zn    0.20053   0.00000   0.21730   0.00000  Uiso   1.00
Zn206  Zn    0.04948   0.25000   0.28270   0.00000  Uiso   1.00
Zn207  Zn    0.25000   0.45053   0.71730   0.00000  Uiso   1.00
Zn208  Zn    0.25000   0.04948   0.28270   0.00000  Uiso   1.00
Zn209  Zn    0.04948   0.25000   0.71730   0.00000  Uiso   1.00
Zn210  Zn    0.45053   0.25000   0.28270   0.00000  Uiso   1.00
Zn211  Zn    0.25000   0.04948   0.71730   0.00000  Uiso   1.00
Zn212  Zn    0.25000   0.45053   0.28270   0.00000  Uiso   1.00
Zn213  Zn    0.29948   0.00000   0.78270   0.00000  Uiso   1.00
Zn214  Zn    0.00000   0.20053   0.21730   0.00000  Uiso   1.00
Zn215  Zn    0.00000   0.29948   0.78270   0.00000  Uiso   1.00
Zn216  Zn    0.29948   0.00000   0.21730   0.00000  Uiso   1.00
Zn217  Zn    0.20053   0.00000   0.78270   0.00000  Uiso   1.00
Zn218  Zn    0.00000   0.29948   0.21730   0.00000  Uiso   1.00
Zn219  Zn    0.00000   0.20053   0.78270   0.00000  Uiso   1.00
Zn220  Zn    0.45053   0.25000   0.71730   0.00000  Uiso   1.00
C221   C     0.75000   0.00000   0.35605   0.00000  Uiso   1.00
C222   C     0.83001   0.41999   0.75000   0.00000  Uiso   1.00
C223   C     0.98902   0.17343   0.02033   0.00000  Uiso   1.00
C224   C     0.82650   0.01152   0.97966   0.00000  Uiso   1.00
C225   C     0.67350   0.48848   0.02033   0.00000  Uiso   1.00
C226   C     0.98902   0.17343   0.97966   0.00000  Uiso   1.00
C227   C     0.51098   0.32657   0.02033   0.00000  Uiso   1.00
C228   C     0.88388   0.23348   0.45913   0.00000  Uiso   1.00
C229   C     0.61612   0.26652   0.54087   0.00000  Uiso   1.00
C230   C     0.76692   0.11607   0.45913   0.00000  Uiso   1.00
C231   C     0.73308   0.38393   0.54087   0.00000  Uiso   1.00
C232   C     0.61612   0.26652   0.45913   0.00000  Uiso   1.00
C233   C     0.91999   0.16999   0.25000   0.00000  Uiso   1.00
C234   C     0.88388   0.23348   0.54087   0.00000  Uiso   1.00
C235   C     0.73308   0.38393   0.45913   0.00000  Uiso   1.00
C236   C     0.76692   0.11607   0.54087   0.00000  Uiso   1.00
C237   C     0.63403   0.48237   0.95913   0.00000  Uiso   1.00
C238   C     0.86597   0.01763   0.04087   0.00000  Uiso   1.00
C239   C     0.51682   0.36609   0.95913   0.00000  Uiso   1.00
C240   C     0.98318   0.13391   0.04087   0.00000  Uiso   1.00
C241   C     0.86597   0.01766   0.95913   0.00000  Uiso   1.00
C242   C     0.63403   0.48234   0.04087   0.00000  Uiso   1.00
C243   C     0.98318   0.13391   0.95913   0.00000  Uiso   1.00
C244   C     0.58001   0.33001   0.75000   0.00000  Uiso   1.00
C245   C     0.51682   0.36609   0.04087   0.00000  Uiso   1.00
C246   C     0.83001   0.41999   0.25000   0.00000  Uiso   1.00
C247   C     0.66999   0.08001   0.75000   0.00000  Uiso   1.00
C248   C     0.58001   0.33001   0.25000   0.00000  Uiso   1.00
C249   C     0.91999   0.16999   0.75000   0.00000  Uiso   1.00
C250   C     0.66999   0.41999   0.75000   0.00000  Uiso   1.00
C251   C     0.83001   0.08001   0.25000   0.00000  Uiso   1.00
C252   C     0.91999   0.33001   0.75000   0.00000  Uiso   1.00
C253   C     0.75000   0.00000   0.64395   0.00000  Uiso   1.00
C254   C     0.58001   0.16999   0.25000   0.00000  Uiso   1.00
C255   C     0.83001   0.08001   0.75000   0.00000  Uiso   1.00
C256   C     0.66999   0.41999   0.25000   0.00000  Uiso   1.00
C257   C     0.58001   0.16999   0.75000   0.00000  Uiso   1.00
C258   C     0.91999   0.33001   0.25000   0.00000  Uiso   1.00
C259   C     0.63834   0.38834   0.25000   0.00000  Uiso   1.00
C260   C     0.86166   0.11166   0.75000   0.00000  Uiso   1.00
C261   C     0.61167   0.13833   0.25000   0.00000  Uiso   1.00
C262   C     0.88834   0.36167   0.75000   0.00000  Uiso   1.00
C263   C     0.86166   0.11166   0.25000   0.00000  Uiso   1.00
C264   C     0.50000   0.25000   0.35605   0.00000  Uiso   1.00
C265   C     0.63834   0.38834   0.75000   0.00000  Uiso   1.00
C266   C     0.88833   0.36167   0.25000   0.00000  Uiso   1.00
C267   C     0.61167   0.13833   0.75000   0.00000  Uiso   1.00
C268   C     0.63833   0.11167   0.75000   0.00000  Uiso   1.00
C269   C     0.86167   0.38833   0.25000   0.00000  Uiso   1.00
C270   C     0.61166   0.36166   0.75000   0.00000  Uiso   1.00
C271   C     0.88834   0.13834   0.25000   0.00000  Uiso   1.00
C272   C     0.86167   0.38833   0.75000   0.00000  Uiso   1.00
C273   C     0.63834   0.11167   0.25000   0.00000  Uiso   1.00
C274   C     0.88834   0.13834   0.75000   0.00000  Uiso   1.00
C275   C     0.50000   0.25000   0.64395   0.00000  Uiso   1.00
C276   C     0.61166   0.36166   0.25000   0.00000  Uiso   1.00
C277   C     0.53770   0.25510   0.41866   0.00000  Uiso   1.00
C278   C     0.96230   0.24490   0.58134   0.00000  Uiso   1.00
C279   C     0.74477   0.46231   0.41866   0.00000  Uiso   1.00
C280   C     0.75523   0.03769   0.58134   0.00000  Uiso   1.00
C281   C     0.96230   0.24490   0.41866   0.00000  Uiso   1.00
C282   C     0.53770   0.25510   0.58134   0.00000  Uiso   1.00
C283   C     0.75523   0.03769   0.41866   0.00000  Uiso   1.00
C284   C     0.74477   0.46231   0.58134   0.00000  Uiso   1.00
C285   C     0.78765   0.00547   0.91865   0.00000  Uiso   1.00
C286   C     0.50000   0.25000   0.85605   0.00000  Uiso   1.00
C287   C     0.71235   0.49453   0.08135   0.00000  Uiso   1.00
C288   C     0.99480   0.21231   0.91866   0.00000  Uiso   1.00
C289   C     0.50521   0.28769   0.08134   0.00000  Uiso   1.00
C290   C     0.71234   0.49454   0.91865   0.00000  Uiso   1.00
C291   C     0.78766   0.00546   0.08135   0.00000  Uiso   1.00
C292   C     0.50521   0.28769   0.91866   0.00000  Uiso   1.00
C293   C     0.99479   0.21231   0.08134   0.00000  Uiso   1.00
C294   C     0.50000   0.25000   0.39846   0.00000  Uiso   1.00
C295   C     0.50000   0.25000   0.60154   0.00000  Uiso   1.00
C296   C     0.75000   0.00000   0.39846   0.00000  Uiso   1.00
C297   C     0.50000   0.25000   0.14395   0.00000  Uiso   1.00
C298   C     0.75000   0.00000   0.60154   0.00000  Uiso   1.00
C299   C     0.75000   0.00000   0.89846   0.00000  Uiso   1.00
C300   C     0.75000  -0.00000   0.10154   0.00000  Uiso   1.00
C301   C     0.50000   0.25000   0.89846   0.00000  Uiso   1.00
C302   C     0.50000   0.25000   0.10154   0.00000  Uiso   1.00
C303   C     0.96161   0.24468   0.45924   0.00000  Uiso   1.00
C304   C     0.53839   0.25532   0.54076   0.00000  Uiso   1.00
C305   C     0.75545   0.03838   0.45924   0.00000  Uiso   1.00
C306   C     0.74455   0.46162   0.54076   0.00000  Uiso   1.00
C307   C     0.53839   0.25532   0.45924   0.00000  Uiso   1.00
C308   C     0.75000   0.00000   0.85605   0.00000  Uiso   1.00
C309   C     0.96161   0.24468   0.54076   0.00000  Uiso   1.00
C310   C     0.74455   0.46162   0.45924   0.00000  Uiso   1.00
C311   C     0.75545   0.03838   0.54076   0.00000  Uiso   1.00
C312   C     0.71165   0.49431   0.95924   0.00000  Uiso   1.00
C313   C     0.78835   0.00569   0.04076   0.00000  Uiso   1.00
C314   C     0.50542   0.28838   0.95924   0.00000  Uiso   1.00
C315   C     0.99458   0.21162   0.04076   0.00000  Uiso   1.00
C316   C     0.78835   0.00569   0.95924   0.00000  Uiso   1.00
C317   C     0.71165   0.49431   0.04076   0.00000  Uiso   1.00
C318   C     0.99458   0.21162   0.95924   0.00000  Uiso   1.00
C319   C     0.75000  -0.00000   0.14395   0.00000  Uiso   1.00
C320   C     0.50542   0.28838   0.04076   0.00000  Uiso   1.00
C321   C     0.50000   0.25000   0.47965   0.00000  Uiso   1.00
C322   C     0.50000   0.25000   0.52035   0.00000  Uiso   1.00
C323   C     0.75000   0.00000   0.47965   0.00000  Uiso   1.00
C324   C     0.75000   0.00000   0.52035   0.00000  Uiso   1.00
C325   C     0.75000   0.00000   0.97965   0.00000  Uiso   1.00
C326   C     0.75000  -0.00000   0.02035   0.00000  Uiso   1.00
C327   C     0.50000   0.25000   0.97965   0.00000  Uiso   1.00
C328   C     0.50000   0.25000   0.02035   0.00000  Uiso   1.00
C329   C     0.92341   0.23922   0.47966   0.00000  Uiso   1.00
C330   C     0.66999   0.08001   0.25000   0.00000  Uiso   1.00
C331   C     0.57659   0.26078   0.52033   0.00000  Uiso   1.00
C332   C     0.76104   0.07656   0.47967   0.00000  Uiso   1.00
C333   C     0.73896   0.42344   0.52033   0.00000  Uiso   1.00
C334   C     0.57659   0.26078   0.47966   0.00000  Uiso   1.00
C335   C     0.92341   0.23922   0.52033   0.00000  Uiso   1.00
C336   C     0.73896   0.42344   0.47966   0.00000  Uiso   1.00
C337   C     0.76104   0.07656   0.52033   0.00000  Uiso   1.00
C338   C     0.67350   0.48849   0.97966   0.00000  Uiso   1.00
C339   C     0.82650   0.01151   0.02034   0.00000  Uiso   1.00
C340   C     0.51098   0.32657   0.97966   0.00000  Uiso   1.00
H341   H     0.56653   0.25913   0.40238   0.00000  Uiso   1.00
H342   H     0.68356   0.49021   0.09762   0.00000  Uiso   1.00
H343   H     0.99069   0.18349   0.90238   0.00000  Uiso   1.00
H344   H     0.50931   0.31651   0.09762   0.00000  Uiso   1.00
H345   H     0.68356   0.49022   0.90238   0.00000  Uiso   1.00
H346   H     0.81644   0.00978   0.09762   0.00000  Uiso   1.00
H347   H     0.50931   0.31651   0.90238   0.00000  Uiso   1.00
H348   H     0.99069   0.18349   0.09762   0.00000  Uiso   1.00
H349   H     0.93347   0.24087   0.59762   0.00000  Uiso   1.00
H350   H     0.74064   0.43350   0.40238   0.00000  Uiso   1.00
H351   H     0.75936   0.06650   0.59762   0.00000  Uiso   1.00
H352   H     0.93347   0.24087   0.40238   0.00000  Uiso   1.00
H353   H     0.56653   0.25913   0.59762   0.00000  Uiso   1.00
H354   H     0.75936   0.06651   0.40238   0.00000  Uiso   1.00
H355   H     0.74064   0.43350   0.59762   0.00000  Uiso   1.00
H356   H     0.81644   0.00979   0.90238   0.00000  Uiso   1.00
N357   N     0.85239   0.22890   0.44282   0.00000  Uiso   1.00
N358   N     0.89742   0.02253   0.05719   0.00000  Uiso   1.00
N359   N     0.52148   0.39757   0.94282   0.00000  Uiso   1.00
N360   N     0.97852   0.10243   0.05718   0.00000  Uiso   1.00
N361   N     0.89741   0.02257   0.94282   0.00000  Uiso   1.00
N362   N     0.60259   0.47743   0.05718   0.00000  Uiso   1.00
N363   N     0.97852   0.10243   0.94281   0.00000  Uiso   1.00
N364   N     0.52148   0.39757   0.05719   0.00000  Uiso   1.00
N365   N     0.64761   0.27110   0.55718   0.00000  Uiso   1.00
N366   N     0.77161   0.14755   0.44282   0.00000  Uiso   1.00
N367   N     0.72839   0.35245   0.55718   0.00000  Uiso   1.00
N368   N     0.64761   0.27110   0.44282   0.00000  Uiso   1.00
N369   N     0.85239   0.22890   0.55718   0.00000  Uiso   1.00
N370   N     0.72839   0.35245   0.44282   0.00000  Uiso   1.00
N371   N     0.77161   0.14755   0.55718   0.00000  Uiso   1.00
N372   N     0.60258   0.47747   0.94281   0.00000  Uiso   1.00
O373   O     0.75000   0.00000   0.25000   0.00000  Uiso   1.00
O374   O     0.75000   0.46539   0.66251   0.00000  Uiso   1.00
O375   O     0.96539   0.25000   0.33749   0.00000  Uiso   1.00
O376   O     0.53462   0.25000   0.66251   0.00000  Uiso   1.00
O377   O     0.50000   0.21539   0.83749   0.00000  Uiso   1.00
O378   O     0.50000   0.28462   0.16251   0.00000  Uiso   1.00
O379   O     0.78462   0.00000   0.83749   0.00000  Uiso   1.00
O380   O     0.71539   0.00000   0.16251   0.00000  Uiso   1.00
O381   O     0.50000   0.28462   0.83749   0.00000  Uiso   1.00
O382   O     0.50000   0.21539   0.16251   0.00000  Uiso   1.00
O383   O     0.71539   0.00000   0.83749   0.00000  Uiso   1.00
O384   O     0.75000   0.00000   0.75000   0.00000  Uiso   1.00
O385   O     0.78462   0.00000   0.16251   0.00000  Uiso   1.00
O386   O     0.70127   0.08332   0.27298   0.00000  Uiso   1.00
O387   O     0.79874   0.41668   0.72702   0.00000  Uiso   1.00
O388   O     0.91668   0.20127   0.27298   0.00000  Uiso   1.00
O389   O     0.58332   0.29874   0.72702   0.00000  Uiso   1.00
O390   O     0.79874   0.41668   0.27298   0.00000  Uiso   1.00
O391   O     0.70127   0.08332   0.72702   0.00000  Uiso   1.00
O392   O     0.58332   0.29874   0.27298   0.00000  Uiso   1.00
O393   O     0.91668   0.20127   0.72702   0.00000  Uiso   1.00
O394   O     0.70127   0.41668   0.72702   0.00000  Uiso   1.00
O395   O     0.50000   0.25000   0.25000   0.00000  Uiso   1.00
O396   O     0.79874   0.08332   0.27298   0.00000  Uiso   1.00
O397   O     0.91668   0.29874   0.72702   0.00000  Uiso   1.00
O398   O     0.58332   0.20127   0.27298   0.00000  Uiso   1.00
O399   O     0.79874   0.08332   0.72702   0.00000  Uiso   1.00
O400   O     0.70127   0.41668   0.27298   0.00000  Uiso   1.00
O401   O     0.58332   0.20127   0.72702   0.00000  Uiso   1.00
O402   O     0.91668   0.29874   0.27298   0.00000  Uiso   1.00
O403   O     0.95127   0.33332   0.77298   0.00000  Uiso   1.00
O404   O     0.54874   0.16668   0.22702   0.00000  Uiso   1.00
O405   O     0.66668   0.45127   0.77298   0.00000  Uiso   1.00
O406   O     0.50000   0.25000   0.75000   0.00000  Uiso   1.00
O407   O     0.83332   0.04874   0.22702   0.00000  Uiso   1.00
O408   O     0.54874   0.16668   0.77298   0.00000  Uiso   1.00
O409   O     0.95127   0.33332   0.22702   0.00000  Uiso   1.00
O410   O     0.83332   0.04874   0.77298   0.00000  Uiso   1.00
O411   O     0.66668   0.45127   0.22702   0.00000  Uiso   1.00
O412   O     0.95127   0.16668   0.22702   0.00000  Uiso   1.00
O413   O     0.54874   0.33332   0.77298   0.00000  Uiso   1.00
O414   O     0.66668   0.04874   0.22702   0.00000  Uiso   1.00
O415   O     0.83332   0.45127   0.77298   0.00000  Uiso   1.00
O416   O     0.54874   0.33332   0.22702   0.00000  Uiso   1.00
O417   O     0.75000   0.46539   0.33749   0.00000  Uiso   1.00
O418   O     0.95127   0.16668   0.77298   0.00000  Uiso   1.00
O419   O     0.83332   0.45127   0.22702   0.00000  Uiso   1.00
O420   O     0.66668   0.04874   0.77298   0.00000  Uiso   1.00
O421   O     0.75000   0.03462   0.66251   0.00000  Uiso   1.00
O422   O     0.53462   0.25000   0.33749   0.00000  Uiso   1.00
O423   O     0.96539   0.25000   0.66251   0.00000  Uiso   1.00
O424   O     0.75000   0.03462   0.33749   0.00000  Uiso   1.00
Zn425  Zn    0.70053   0.00000   0.21730   0.00000  Uiso   1.00
Zn426  Zn    0.54948   0.25000   0.28270   0.00000  Uiso   1.00
Zn427  Zn    0.75000   0.45053   0.71730   0.00000  Uiso   1.00
Zn428  Zn    0.75000   0.04948   0.28270   0.00000  Uiso   1.00
Zn429  Zn    0.54948   0.25000   0.71730   0.00000  Uiso   1.00
Zn430  Zn    0.95053   0.25000   0.28270   0.00000  Uiso   1.00
Zn431  Zn    0.75000   0.04948   0.71730   0.00000  Uiso   1.00
Zn432  Zn    0.75000   0.45053   0.28270   0.00000  Uiso   1.00
Zn433  Zn    0.79948   0.00000   0.78270   0.00000  Uiso   1.00
Zn434  Zn    0.50000   0.20053   0.21730   0.00000  Uiso   1.00
Zn435  Zn    0.50000   0.29948   0.78270   0.00000  Uiso   1.00
Zn436  Zn    0.79948   0.00000   0.21730   0.00000  Uiso   1.00
Zn437  Zn    0.70053   0.00000   0.78270   0.00000  Uiso   1.00
Zn438  Zn    0.50000   0.29948   0.21730   0.00000  Uiso   1.00
Zn439  Zn    0.50000   0.20053   0.78270   0.00000  Uiso   1.00
Zn440  Zn    0.95053   0.25000   0.71730   0.00000  Uiso   1.00
C441   C     0.25000   0.50000   0.35605   0.00000  Uiso   1.00
C442   C     0.33001   0.91999   0.75000   0.00000  Uiso   1.00
C443   C     0.48902   0.67343   0.02033   0.00000  Uiso   1.00
C444   C     0.32650   0.51152   0.97966   0.00000  Uiso   1.00
C445   C     0.17350   0.98848   0.02033   0.00000  Uiso   1.00
C446   C     0.48902   0.67343   0.97966   0.00000  Uiso   1.00
C447   C     0.01098   0.82657   0.02033   0.00000  Uiso   1.00
C448   C     0.38388   0.73348   0.45913   0.00000  Uiso   1.00
C449   C     0.11612   0.76652   0.54087   0.00000  Uiso   1.00
C450   C     0.26692   0.61607   0.45913   0.00000  Uiso   1.00
C451   C     0.23308   0.88393   0.54087   0.00000  Uiso   1.00
C452   C     0.11612   0.76652   0.45913   0.00000  Uiso   1.00
C453   C     0.41999   0.66999   0.25000   0.00000  Uiso   1.00
C454   C     0.38388   0.73348   0.54087   0.00000  Uiso   1.00
C455   C     0.23308   0.88393   0.45913   0.00000  Uiso   1.00
C456   C     0.26692   0.61607   0.54087   0.00000  Uiso   1.00
C457   C     0.13403   0.98237   0.95913   0.00000  Uiso   1.00
C458   C     0.36597   0.51763   0.04087   0.00000  Uiso   1.00
C459   C     0.01682   0.86609   0.95913   0.00000  Uiso   1.00
C460   C     0.48318   0.63391   0.04087   0.00000  Uiso   1.00
C461   C     0.36597   0.51766   0.95913   0.00000  Uiso   1.00
C462   C     0.13403   0.98234   0.04087   0.00000  Uiso   1.00
C463   C     0.48318   0.63391   0.95913   0.00000  Uiso   1.00
C464   C     0.08001   0.83001   0.75000   0.00000  Uiso   1.00
C465   C     0.01682   0.86609   0.04087   0.00000  Uiso   1.00
C466   C     0.33001   0.91999   0.25000   0.00000  Uiso   1.00
C467   C     0.16999   0.58001   0.75000   0.00000  Uiso   1.00
C468   C     0.08001   0.83001   0.25000   0.00000  Uiso   1.00
C469   C     0.41999   0.66999   0.75000   0.00000  Uiso   1.00
C470   C     0.16999   0.91999   0.75000   0.00000  Uiso   1.00
C471   C     0.33001   0.58001   0.25000   0.00000  Uiso   1.00
C472   C     0.41999   0.83001   0.75000   0.00000  Uiso   1.00
C473   C     0.25000   0.50000   0.64395   0.00000  Uiso   1.00
C474   C     0.08001   0.66999   0.25000   0.00000  Uiso   1.00
C475   C     0.33001   0.58001   0.75000   0.00000  Uiso   1.00
C476   C     0.16999   0.91999   0.25000   0.00000  Uiso   1.00
C477   C     0.08001   0.66999   0.75000   0.00000  Uiso   1.00
C478   C     0.41999   0.83001   0.25000   0.00000  Uiso   1.00
C479   C     0.13834   0.88834   0.25000   0.00000  Uiso   1.00
C480   C     0.36166   0.61166   0.75000   0.00000  Uiso   1.00
C481   C     0.11167   0.63833   0.25000   0.00000  Uiso   1.00
C482   C     0.38834   0.86167   0.75000   0.00000  Uiso   1.00
C483   C     0.36166   0.61166   0.25000   0.00000  Uiso   1.00
C484   C     0.00000   0.75000   0.35605   0.00000  Uiso   1.00
C485   C     0.13834   0.88834   0.75000   0.00000  Uiso   1.00
C486   C     0.38833   0.86167   0.25000   0.00000  Uiso   1.00
C487   C     0.11167   0.63833   0.75000   0.00000  Uiso   1.00
C488   C     0.13833   0.61167   0.75000   0.00000  Uiso   1.00
C489   C     0.36167   0.88833   0.25000   0.00000  Uiso   1.00
C490   C     0.11166   0.86166   0.75000   0.00000  Uiso   1.00
C491   C     0.38834   0.63834   0.25000   0.00000  Uiso   1.00
C492   C     0.36167   0.88833   0.75000   0.00000  Uiso   1.00
C493   C     0.13834   0.61167   0.25000   0.00000  Uiso   1.00
C494   C     0.38834   0.63834   0.75000   0.00000  Uiso   1.00
C495   C     0.00000   0.75000   0.64395   0.00000  Uiso   1.00
C496   C     0.11166   0.86166   0.25000   0.00000  Uiso   1.00
C497   C     0.03770   0.75510   0.41866   0.00000  Uiso   1.00
C498   C     0.46230   0.74490   0.58134   0.00000  Uiso   1.00
C499   C     0.24477   0.96231   0.41866   0.00000  Uiso   1.00
C500   C     0.25523   0.53769   0.58134   0.00000  Uiso   1.00
C501   C     0.46230   0.74490   0.41866   0.00000  Uiso   1.00
C502   C     0.03770   0.75510   0.58134   0.00000  Uiso   1.00
C503   C     0.25523   0.53769   0.41866   0.00000  Uiso   1.00
C504   C     0.24477   0.96231   0.58134   0.00000  Uiso   1.00
C505   C     0.28765   0.50547   0.91865   0.00000  Uiso   1.00
C506   C     0.00000   0.75000   0.85605   0.00000  Uiso   1.00
C507   C     0.21235   0.99453   0.08135   0.00000  Uiso   1.00
C508   C     0.49480   0.71231   0.91866   0.00000  Uiso   1.00
C509   C     0.00521   0.78769   0.08134   0.00000  Uiso   1.00
C510   C     0.21234   0.99454   0.91865   0.00000  Uiso   1.00
C511   C     0.28766   0.50546   0.08135   0.00000  Uiso   1.00
C512   C     0.00521   0.78769   0.91866   0.00000  Uiso   1.00
C513   C     0.49479   0.71231   0.08134   0.00000  Uiso   1.00
C514   C     0.00000   0.75000   0.39846   0.00000  Uiso   1.00
C515   C     0.00000   0.75000   0.60154   0.00000  Uiso   1.00
C516   C     0.25000   0.50000   0.39846   0.00000  Uiso   1.00
C517   C     0.00000   0.75000   0.14395   0.00000  Uiso   1.00
C518   C     0.25000   0.50000   0.60154   0.00000  Uiso   1.00
C519   C     0.25000   0.50000   0.89846   0.00000  Uiso   1.00
C520   C     0.25000   0.50000   0.10154   0.00000  Uiso   1.00
C521   C     0.00000   0.75000   0.89846   0.00000  Uiso   1.00
C522   C     0.00000   0.75000   0.10154   0.00000  Uiso   1.00
C523   C     0.46161   0.74468   0.45924   0.00000  Uiso   1.00
C524   C     0.03839   0.75532   0.54076   0.00000  Uiso   1.00
C525   C     0.25545   0.53838   0.45924   0.00000  Uiso   1.00
C526   C     0.24455   0.96162   0.54076   0.00000  Uiso   1.00
C527   C     0.03839   0.75532   0.45924   0.00000  Uiso   1.00
C528   C     0.25000   0.50000   0.85605   0.00000  Uiso   1.00
C529   C     0.46161   0.74468   0.54076   0.00000  Uiso   1.00
C530   C     0.24455   0.96162   0.45924   0.00000  Uiso   1.00
C531   C     0.25545   0.53838   0.54076   0.00000  Uiso   1.00
C532   C     0.21165   0.99431   0.95924   0.00000  Uiso   1.00
C533   C     0.28835   0.50569   0.04076   0.00000  Uiso   1.00
C534   C     0.00542   0.78838   0.95924   0.00000  Uiso   1.00
C535   C     0.49458   0.71162   0.04076   0.00000  Uiso   1.00
C536   C     0.28835   0.50569   0.95924   0.00000  Uiso   1.00
C537   C     0.21165   0.99431   0.04076   0.00000  Uiso   1.00
C538   C     0.49458   0.71162   0.95924   0.00000  Uiso   1.00
C539   C     0.25000   0.50000   0.14395   0.00000  Uiso   1.00
C540   C     0.00542   0.78838   0.04076   0.00000  Uiso   1.00
C541   C     0.00000   0.75000   0.47965   0.00000  Uiso   1.00
C542   C     0.00000   0.75000   0.52035   0.00000  Uiso   1.00
C543   C     0.25000   0.50000   0.47965   0.00000  Uiso   1.00
C544   C     0.25000   0.50000   0.52035   0.00000  Uiso   1.00
C545   C     0.25000   0.50000   0.97965   0.00000  Uiso   1.00
C546   C     0.25000   0.50000   0.02035   0.00000  Uiso   1.00
C547   C     0.00000   0.75000   0.97965   0.00000  Uiso   1.00
C548   C     0.00000   0.75000   0.02035   0.00000  Uiso   1.00
C549   C     0.42341   0.73922   0.47966   0.00000  Uiso   1.00
C550   C     0.16999   0.58001   0.25000   0.00000  Uiso   1.00
C551   C     0.07659   0.76078   0.52033   0.00000  Uiso   1.00
C552   C     0.26104   0.57656   0.47967   0.00000  Uiso   1.00
C553   C     0.23896   0.92344   0.52033   0.00000  Uiso   1.00
C554   C     0.07659   0.76078   0.47966   0.00000  Uiso   1.00
C555   C     0.42341   0.73922   0.52033   0.00000  Uiso   1.00
C556   C     0.23896   0.92344   0.47966   0.00000  Uiso   1.00
C557   C     0.26104   0.57656   0.52033   0.00000  Uiso   1.00
C558   C     0.17350   0.98849   0.97966   0.00000  Uiso   1.00
C559   C     0.32650   0.51151   0.02034   0.00000  Uiso   1.00
C560   C     0.01098   0.82657   0.97966   0.00000  Uiso   1.00
H561   H     0.06653   0.75913   0.40238   0.00000  Uiso   1.00
H562   H     0.18356   0.99021   0.09762   0.00000  Uiso   1.00
H563   H     0.49069   0.68349   0.90238   0.00000  Uiso   1.00
H564   H     0.00931   0.81651   0.09762   0.00000  Uiso   1.00
H565   H     0.18356   0.99022   0.90238   0.00000  Uiso   1.00
H566   H     0.31644   0.50978   0.09762   0.00000  Uiso   1.00
H567   H     0.00931   0.81651   0.90238   0.00000  Uiso   1.00
H568   H     0.49069   0.68349   0.09762   0.00000  Uiso   1.00
H569   H     0.43347   0.74087   0.59762   0.00000  Uiso   1.00
H570   H     0.24064   0.93350   0.40238   0.00000  Uiso   1.00
H571   H     0.25936   0.56650   0.59762   0.00000  Uiso   1.00
H572   H     0.43347   0.74087   0.40238   0.00000  Uiso   1.00
H573   H     0.06653   0.75913   0.59762   0.00000  Uiso   1.00
H574   H     0.25936   0.56651   0.40238   0.00000  Uiso   1.00
H575   H     0.24064   0.93350   0.59762   0.00000  Uiso   1.00
H576   H     0.31644   0.50979   0.90238   0.00000  Uiso   1.00
N577   N     0.35239   0.72890   0.44282   0.00000  Uiso   1.00
N578   N     0.39742   0.52253   0.05719   0.00000  Uiso   1.00
N579   N     0.02148   0.89757   0.94282   0.00000  Uiso   1.00
N580   N     0.47852   0.60243   0.05718   0.00000  Uiso   1.00
N581   N     0.39741   0.52257   0.94282   0.00000  Uiso   1.00
N582   N     0.10259   0.97743   0.05718   0.00000  Uiso   1.00
N583   N     0.47852   0.60243   0.94281   0.00000  Uiso   1.00
N584   N     0.02148   0.89757   0.05719   0.00000  Uiso   1.00
N585   N     0.14761   0.77110   0.55718   0.00000  Uiso   1.00
N586   N     0.27161   0.64755   0.44282   0.00000  Uiso   1.00
N587   N     0.22839   0.85245   0.55718   0.00000  Uiso   1.00
N588   N     0.14761   0.77110   0.44282   0.00000  Uiso   1.00
N589   N     0.35239   0.72890   0.55718   0.00000  Uiso   1.00
N590   N     0.22839   0.85245   0.44282   0.00000  Uiso   1.00
N591   N     0.27161   0.64755   0.55718   0.00000  Uiso   1.00
N592   N     0.10258   0.97747   0.94281   0.00000  Uiso   1.00
O593   O     0.25000   0.50000   0.25000   0.00000  Uiso   1.00
O594   O     0.25000   0.96539   0.66251   0.00000  Uiso   1.00
O595   O     0.46539   0.75000   0.33749   0.00000  Uiso   1.00
O596   O     0.03462   0.75000   0.66251   0.00000  Uiso   1.00
O597   O     0.00000   0.71539   0.83749   0.00000  Uiso   1.00
O598   O     0.00000   0.78462   0.16251   0.00000  Uiso   1.00
O599   O     0.28462   0.50000   0.83749   0.00000  Uiso   1.00
O600   O     0.21539   0.50000   0.16251   0.00000  Uiso   1.00
O601   O     0.00000   0.78462   0.83749   0.00000  Uiso   1.00
O602   O     0.00000   0.71539   0.16251   0.00000  Uiso   1.00
O603   O     0.21539   0.50000   0.83749   0.00000  Uiso   1.00
O604   O     0.25000   0.50000   0.75000   0.00000  Uiso   1.00
O605   O     0.28462   0.50000   0.16251   0.00000  Uiso   1.00
O606   O     0.20127   0.58332   0.27298   0.00000  Uiso   1.00
O607   O     0.29874   0.91668   0.72702   0.00000  Uiso   1.00
O608   O     0.41668   0.70127   0.27298   0.00000  Uiso   1.00
O609   O     0.08332   0.79874   0.72702   0.00000  Uiso   1.00
O610   O     0.29874   0.91668   0.27298   0.00000  Uiso   1.00
O611   O     0.20127   0.58332   0.72702   0.00000  Uiso   1.00
O612   O     0.08332   0.79874   0.27298   0.00000  Uiso   1.00
O613   O     0.41668   0.70127   0.72702   0.00000  Uiso   1.00
O614   O     0.20127   0.91668   0.72702   0.00000  Uiso   1.00
O615   O     0.00000   0.75000   0.25000   0.00000  Uiso   1.00
O616   O     0.29874   0.58332   0.27298   0.00000  Uiso   1.00
O617   O     0.41668   0.79874   0.72702   0.00000  Uiso   1.00
O618   O     0.08332   0.70127   0.27298   0.00000  Uiso   1.00
O619   O     0.29874   0.58332   0.72702   0.00000  Uiso   1.00
O620   O     0.20127   0.91668   0.27298   0.00000  Uiso   1.00
O621   O     0.08332   0.70127   0.72702   0.00000  Uiso   1.00
O622   O     0.41668   0.79874   0.27298   0.00000  Uiso   1.00
O623   O     0.45127   0.83332   0.77298   0.00000  Uiso   1.00
O624   O     0.04874   0.66668   0.22702   0.00000  Uiso   1.00
O625   O     0.16668   0.95127   0.77298   0.00000  Uiso   1.00
O626   O     0.00000   0.75000   0.75000   0.00000  Uiso   1.00
O627   O     0.33332   0.54874   0.22702   0.00000  Uiso   1.00
O628   O     0.04874   0.66668   0.77298   0.00000  Uiso   1.00
O629   O     0.45127   0.83332   0.22702   0.00000  Uiso   1.00
O630   O     0.33332   0.54874   0.77298   0.00000  Uiso   1.00
O631   O     0.16668   0.95127   0.22702   0.00000  Uiso   1.00
O632   O     0.45127   0.66668   0.22702   0.00000  Uiso   1.00
O633   O     0.04874   0.83332   0.77298   0.00000  Uiso   1.00
O634   O     0.16668   0.54874   0.22702   0.00000  Uiso   1.00
O635   O     0.33332   0.95127   0.77298   0.00000  Uiso   1.00
O636   O     0.04874   0.83332   0.22702   0.00000  Uiso   1.00
O637   O     0.25000   0.96539   0.33749   0.00000  Uiso   1.00
O638   O     0.45127   0.66668   0.77298   0.00000  Uiso   1.00
O639   O     0.33332   0.95127   0.22702   0.00000  Uiso   1.00
O640   O     0.16668   0.54874   0.77298   0.00000  Uiso   1.00
O641   O     0.25000   0.53462   0.66251   0.00000  Uiso   1.00
O642   O     0.03462   0.75000   0.33749   0.00000  Uiso   1.00
O643   O     0.46539   0.75000   0.66251   0.00000  Uiso   1.00
O644   O     0.25000   0.53462   0.33749   0.00000  Uiso   1.00
Zn645  Zn    0.20053   0.50000   0.21730   0.00000  Uiso   1.00
Zn646  Zn    0.04948   0.75000   0.28270   0.00000  Uiso   1.00
Zn647  Zn    0.25000   0.95053   0.71730   0.00000  Uiso   1.00
Zn648  Zn    0.25000   0.54948   0.28270   0.00000  Uiso   1.00
Zn649  Zn    0.04948   0.75000   0.71730   0.00000  Uiso   1.00
Zn650  Zn    0.45053   0.75000   0.28270   0.00000  Uiso   1.00
Zn651  Zn    0.25000   0.54948   0.71730   0.00000  Uiso   1.00
Zn652  Zn    0.25000   0.95053   0.28270   0.00000  Uiso   1.00
Zn653  Zn    0.29948   0.50000   0.78270   0.00000  Uiso   1.00
Zn654  Zn    0.00000   0.70053   0.21730   0.00000  Uiso   1.00
Zn655  Zn    0.00000   0.79948   0.78270   0.00000  Uiso   1.00
Zn656  Zn    0.29948   0.50000   0.21730   0.00000  Uiso   1.00
Zn657  Zn    0.20053   0.50000   0.78270   0.00000  Uiso   1.00
Zn658  Zn    0.00000   0.79948   0.21730   0.00000  Uiso   1.00
Zn659  Zn    0.00000   0.70053   0.78270   0.00000  Uiso   1.00
Zn660  Zn    0.45053   0.75000   0.71730   0.00000  Uiso   1.00
C661   C     0.75000   0.50000   0.35605   0.00000  Uiso   1.00
C662   C     0.83001   0.91999   0.75000   0.00000  Uiso   1.00
C663   C     0.98902   0.67343   0.02033   0.00000  Uiso   1.00
C664   C     0.82650   0.51152   0.97966   0.00000  Uiso   1.00
C665   C     0.67350   0.98848   0.02033   0.00000  Uiso   1.00
C666   C     0.98902   0.67343   0.97966   0.00000  Uiso   1.00
C667   C     0.51098   0.82657   0.02033   0.00000  Uiso   1.00
C668   C     0.88388   0.73348   0.45913   0.00000  Uiso   1.00
C669   C     0.61612   0.76652   0.54087   0.00000  Uiso   1.00
C670   C     0.76692   0.61607   0.45913   0.00000  Uiso   1.00
C671   C     0.73308   0.88393   0.54087   0.00000  Uiso   1.00
C672   C     0.61612   0.76652   0.45913   0.00000  Uiso   1.00
C673   C     0.91999   0.66999   0.25000   0.00000  Uiso   1.00
C674   C     0.88388   0.73348   0.54087   0.00000  Uiso   1.00
C675   C     0.73308   0.88393   0.45913   0.00000  Uiso   1.00
C676   C     0.76692   0.61607   0.54087   0.00000  Uiso   1.00
C677   C     0.63403   0.98237   0.95913   0.00000  Uiso   1.00
C678   C     0.86597   0.51763   0.04087   0.00000  Uiso   1.00
C679   C     0.51682   0.86609   0.95913   0.00000  Uiso   1.00
C680   C     0.98318   0.63391   0.04087   0.00000  Uiso   1.00
C681   C     0.86597   0.51766   0.95913   0.00000  Uiso   1.00
C682   C     0.63403   0.98234   0.04087   0.00000  Uiso   1.00
C683   C     0.98318   0.63391   0.95913   0.00000  Uiso   1.00
C684   C     0.58001   0.83001   0.75000   0.00000  Uiso   1.00
C685   C     0.51682   0.86609   0.04087   0.00000  Uiso   1.00
C686   C     0.83001   0.91999   0.25000   0.00000  Uiso   1.00
C687   C     0.66999   0.58001   0.75000   0.00000  Uiso   1.00
C688   C     0.58001   0.83001   0.25000   0.00000  Uiso   1.00
C689   C     0.91999   0.66999   0.75000   0.00000  Uiso   1.00
C690   C     0.66999   0.91999   0.75000   0.00000  Uiso   1.00
C691   C     0.83001   0.58001   0.25000   0.00000  Uiso   1.00
C692   C     0.91999   0.83001   0.75000   0.00000  Uiso   1.00
C693   C     0.75000   0.50000   0.64395   0.00000  Uiso   1.00
C694   C     0.58001   0.66999   0.25000   0.00000  Uiso   1.00
C695   C     0.83001   0.58001   0.75000   0.00000  Uiso   1.00
C696   C     0.66999   0.91999   0.25000   0.00000  Uiso   1.00
C697   C     0.58001   0.66999   0.75000   0.00000  Uiso   1.00
C698   C     0.91999   0.83001   0.25000   0.00000  Uiso   1.00
C699   C     0.63834   0.88834   0.25000   0.00000  Uiso   1.00
C700   C     0.86166   0.61166   0.75000   0.00000  Uiso   1.00
C701   C     0.61167   0.63833   0.25000   0.00000  Uiso   1.00
C702   C     0.88834   0.86167   0.75000   0.00000  Uiso   1.00
C703   C     0.86166   0.61166   0.25000   0.00000  Uiso   1.00
C704   C     0.50000   0.75000   0.35605   0.00000  Uiso   1.00
C705   C     0.63834   0.88834   0.75000   0.00000  Uiso   1.00
C706   C     0.88833   0.86167   0.25000   0.00000  Uiso   1.00
C707   C     0.61167   0.63833   0.75000   0.00000  Uiso   1.00
C708   C     0.63833   0.61167   0.75000   0.00000  Uiso   1.00
C709   C     0.86167   0.88833   0.25000   0.00000  Uiso   1.00
C710   C     0.61166   0.86166   0.75000   0.00000  Uiso   1.00
C711   C     0.88834   0.63834   0.25000   0.00000  Uiso   1.00
C712   C     0.86167   0.88833   0.75000   0.00000  Uiso   1.00
C713   C     0.63834   0.61167   0.25000   0.00000  Uiso   1.00
C714   C     0.88834   0.63834   0.75000   0.00000  Uiso   1.00
C715   C     0.50000   0.75000   0.64395   0.00000  Uiso   1.00
C716   C     0.61166   0.86166   0.25000   0.00000  Uiso   1.00
C717   C     0.53770   0.75510   0.41866   0.00000  Uiso   1.00
C718   C     0.96230   0.74490   0.58134   0.00000  Uiso   1.00
C719   C     0.74477   0.96231   0.41866   0.00000  Uiso   1.00
C720   C     0.75523   0.53769   0.58134   0.00000  Uiso   1.00
C721   C     0.96230   0.74490   0.41866   0.00000  Uiso   1.00
C722   C     0.53770   0.75510   0.58134   0.00000  Uiso   1.00
C723   C     0.75523   0.53769   0.41866   0.00000  Uiso   1.00
C724   C     0.74477   0.96231   0.58134   0.00000  Uiso   1.00
C725   C     0.78765   0.50547   0.91865   0.00000  Uiso   1.00
C726   C     0.50000   0.75000   0.85605   0.00000  Uiso   1.00
C727   C     0.71235   0.99453   0.08135   0.00000  Uiso   1.00
C728   C     0.99480   0.71231   0.91866   0.00000  Uiso   1.00
C729   C     0.50521   0.78769   0.08134   0.00000  Uiso   1.00
C730   C     0.71234   0.99454   0.91865   0.00000  Uiso   1.00
C731   C     0.78766   0.50546   0.08135   0.00000  Uiso   1.00
C732   C     0.50521   0.78769   0.91866   0.00000  Uiso   1.00
C733   C     0.99479   0.71231   0.08134   0.00000  Uiso   1.00
C734   C     0.50000   0.75000   0.39846   0.00000  Uiso   1.00
C735   C     0.50000   0.75000   0.60154   0.00000  Uiso   1.00
C736   C     0.75000   0.50000   0.39846   0.00000  Uiso   1.00
C737   C     0.50000   0.75000   0.14395   0.00000  Uiso   1.00
C738   C     0.75000   0.50000   0.60154   0.00000  Uiso   1.00
C739   C     0.75000   0.50000   0.89846   0.00000  Uiso   1.00
C740   C     0.75000   0.50000   0.10154   0.00000  Uiso   1.00
C741   C     0.50000   0.75000   0.89846   0.00000  Uiso   1.00
C742   C     0.50000   0.75000   0.10154   0.00000  Uiso   1.00
C743   C     0.96161   0.74468   0.45924   0.00000  Uiso   1.00
C744   C     0.53839   0.75532   0.54076   0.00000  Uiso   1.00
C745   C     0.75545   0.53838   0.45924   0.00000  Uiso   1.00
C746   C     0.74455   0.96162   0.54076   0.00000  Uiso   1.00
C747   C     0.53839   0.75532   0.45924   0.00000  Uiso   1.00
C748   C     0.75000   0.50000   0.85605   0.00000  Uiso   1.00
C749   C     0.96161   0.74468   0.54076   0.00000  Uiso   1.00
C750   C     0.74455   0.96162   0.45924   0.00000  Uiso   1.00
C751   C     0.75545   0.53838   0.54076   0.00000  Uiso   1.00
C752   C     0.71165   0.99431   0.95924   0.00000  Uiso   1.00
C753   C     0.78835   0.50569   0.04076   0.00000  Uiso   1.00
C754   C     0.50542   0.78838   0.95924   0.00000  Uiso   1.00
C755   C     0.99458   0.71162   0.04076   0.00000  Uiso   1.00
C756   C     0.78835   0.50569   0.95924   0.00000  Uiso   1.00
C757   C     0.71165   0.99431   0.04076   0.00000  Uiso   1.00
C758   C     0.99458   0.71162   0.95924   0.00000  Uiso   1.00
C759   C     0.75000   0.50000   0.14395   0.00000  Uiso   1.00
C760   C     0.50542   0.78838   0.04076   0.00000  Uiso   1.00
C761   C     0.50000   0.75000   0.47965   0.00000  Uiso   1.00
C762   C     0.50000   0.75000   0.52035   0.00000  Uiso   1.00
C763   C     0.75000   0.50000   0.47965   0.00000  Uiso   1.00
C764   C     0.75000   0.50000   0.52035   0.00000  Uiso   1.00
C765   C     0.75000   0.50000   0.97965   0.00000  Uiso   1.00
C766   C     0.75000   0.50000   0.02035   0.00000  Uiso   1.00
C767   C     0.50000   0.75000   0.97965   0.00000  Uiso   1.00
C768   C     0.50000   0.75000   0.02035   0.00000  Uiso   1.00
C769   C     0.92341   0.73922   0.47966   0.00000  Uiso   1.00
C770   C     0.66999   0.58001   0.25000   0.00000  Uiso   1.00
C771   C     0.57659   0.76078   0.52033   0.00000  Uiso   1.00
C772   C     0.76104   0.57656   0.47967   0.00000  Uiso   1.00
C773   C     0.73896   0.92344   0.52033   0.00000  Uiso   1.00
C774   C     0.57659   0.76078   0.47966   0.00000  Uiso   1.00
C775   C     0.92341   0.73922   0.52033   0.00000  Uiso   1.00
C776   C     0.73896   0.92344   0.47966   0.00000  Uiso   1.00
C777   C     0.76104   0.57656   0.52033   0.00000  Uiso   1.00
C778   C     0.67350   0.98849   0.97966   0.00000  Uiso   1.00
C779   C     0.82650   0.51151   0.02034   0.00000  Uiso   1.00
C780   C     0.51098   0.82657   0.97966   0.00000  Uiso   1.00
H781   H     0.56653   0.75913   0.40238   0.00000  Uiso   1.00
H782   H     0.68356   0.99021   0.09762   0.00000  Uiso   1.00
H783   H     0.99069   0.68349   0.90238   0.00000  Uiso   1.00
H784   H     0.50931   0.81651   0.09762   0.00000  Uiso   1.00
H785   H     0.68356   0.99022   0.90238   0.00000  Uiso   1.00
H786   H     0.81644   0.50978   0.09762   0.00000  Uiso   1.00
H787   H     0.50931   0.81651   0.90238   0.00000  Uiso   1.00
H788   H     0.99069   0.68349   0.09762   0.00000  Uiso   1.00
H789   H     0.93347   0.74087   0.59762   0.00000  Uiso   1.00
H790   H     0.74064   0.93350   0.40238   0.00000  Uiso   1.00
H791   H     0.75936   0.56650   0.59762   0.00000  Uiso   1.00
H792   H     0.93347   0.74087   0.40238   0.00000  Uiso   1.00
H793   H     0.56653   0.75913   0.59762   0.00000  Uiso   1.00
H794   H     0.75936   0.56651   0.40238   0.00000  Uiso   1.00
H795   H     0.74064   0.93350   0.59762   0.00000  Uiso   1.00
H796   H     0.81644   0.50979   0.90238   0.00000  Uiso   1.00
N797   N     0.85239   0.72890   0.44282   0.00000  Uiso   1.00
N798   N     0.89742   0.52253   0.05719   0.00000  Uiso   1.00
N799   N     0.52148   0.89757   0.94282   0.00000  Uiso   1.00
N800   N     0.97852   0.60243   0.05718   0.00000  Uiso   1.00
N801   N     0.89741   0.52257   0.94282   0.00000  Uiso   1.00
N802   N     0.60259   0.97743   0.05718   0.00000  Uiso   1.00
N803   N     0.97852   0.60243   0.94281   0.00000  Uiso   1.00
N804   N     0.52148   0.89757   0.05719   0.00000  Uiso   1.00
N805   N     0.64761   0.77110   0.55718   0.00000  Uiso   1.00
N806   N     0.77161   0.64755   0.44282   0.00000  Uiso   1.00
N807   N     0.72839   0.85245   0.55718   0.00000  Uiso   1.00
N808   N     0.64761   0.77110   0.44282   0.00000  Uiso   1.00
N809   N     0.85239   0.72890   0.55718   0.00000  Uiso   1.00
N810   N     0.72839   0.85245   0.44282   0.00000  Uiso   1.00
N811   N     0.77161   0.64755   0.55718   0.00000  Uiso   1.00
N812   N     0.60258   0.97747   0.94281   0.00000  Uiso   1.00
O813   O     0.75000   0.50000   0.25000   0.00000  Uiso   1.00
O814   O     0.75000   0.96539   0.66251   0.00000  Uiso   1.00
O815   O     0.96539   0.75000   0.33749   0.00000  Uiso   1.00
O816   O     0.53462   0.75000   0.66251   0.00000  Uiso   1.00
O817   O     0.50000   0.71539   0.83749   0.00000  Uiso   1.00
O818   O     0.50000   0.78462   0.16251   0.00000  Uiso   1.00
O819   O     0.78462   0.50000   0.83749   0.00000  Uiso   1.00
O820   O     0.71539   0.50000   0.16251   0.00000  Uiso   1.00
O821   O     0.50000   0.78462   0.83749   0.00000  Uiso   1.00
O822   O     0.50000   0.71539   0.16251   0.00000  Uiso   1.00
O823   O     0.71539   0.50000   0.83749   0.00000  Uiso   1.00
O824   O     0.75000   0.50000   0.75000   0.00000  Uiso   1.00
O825   O     0.78462   0.50000   0.16251   0.00000  Uiso   1.00
O826   O     0.70127   0.58332   0.27298   0.00000  Uiso   1.00
O827   O     0.79874   0.91668   0.72702   0.00000  Uiso   1.00
O828   O     0.91668   0.70127   0.27298   0.00000  Uiso   1.00
O829   O     0.58332   0.79874   0.72702   0.00000  Uiso   1.00
O830   O     0.79874   0.91668   0.27298   0.00000  Uiso   1.00
O831   O     0.70127   0.58332   0.72702   0.00000  Uiso   1.00
O832   O     0.58332   0.79874   0.27298   0.00000  Uiso   1.00
O833   O     0.91668   0.70127   0.72702   0.00000  Uiso   1.00
O834   O     0.70127   0.91668   0.72702   0.00000  Uiso   1.00
O835   O     0.50000   0.75000   0.25000   0.00000  Uiso   1.00
O836   O     0.79874   0.58332   0.27298   0.00000  Uiso   1.00
O837   O     0.91668   0.79874   0.72702   0.00000  Uiso   1.00
O838   O     0.58332   0.70127   0.27298   0.00000  Uiso   1.00
O839   O     0.79874   0.58332   0.72702   0.00000  Uiso   1.00
O840   O     0.70127   0.91668   0.27298   0.00000  Uiso   1.00
O841   O     0.58332   0.70127   0.72702   0.00000  Uiso   1.00
O842   O     0.91668   0.79874   0.27298   0.00000  Uiso   1.00
O843   O     0.95127   0.83332   0.77298   0.00000  Uiso   1.00
O844   O     0.54874   0.66668   0.22702   0.00000  Uiso   1.00
O845   O     0.66668   0.95127   0.77298   0.00000  Uiso   1.00
O846   O     0.50000   0.75000   0.75000   0.00000  Uiso   1.00
O847   O     0.83332   0.54874   0.22702   0.00000  Uiso   1.00
O848   O     0.54874   0.66668   0.77298   0.00000  Uiso   1.00
O849   O     0.95127   0.83332   0.22702   0.00000  Uiso   1.00
O850   O     0.83332   0.54874   0.77298   0.00000  Uiso   1.00
O851   O     0.66668   0.95127   0.22702   0.00000  Uiso   1.00
O852   O     0.95127   0.66668   0.22702   0.00000  Uiso   1.00
O853   O     0.54874   0.83332   0.77298   0.00000  Uiso   1.00
O854   O     0.66668   0.54874   0.22702   0.00000  Uiso   1.00
O855   O     0.83332   0.95127   0.77298   0.00000  Uiso   1.00
O856   O     0.54874   0.83332   0.22702   0.00000  Uiso   1.00
O857   O     0.75000   0.96539   0.33749   0.00000  Uiso   1.00
O858   O     0.95127   0.66668   0.77298   0.00000  Uiso   1.00
O859   O     0.83332   0.95127   0.22702   0.00000  Uiso   1.00
O860   O     0.66668   0.54874   0.77298   0.00000  Uiso   1.00
O861   O     0.75000   0.53462   0.66251   0.00000  Uiso   1.00
O862   O     0.53462   0.75000   0.33749   0.00000  Uiso   1.00
O863   O     0.96539   0.75000   0.66251   0.00000  Uiso   1.00
O864   O     0.75000   0.53462   0.33749   0.00000  Uiso   1.00
Zn865  Zn    0.70053   0.50000   0.21730   0.00000  Uiso   1.00
Zn866  Zn    0.54948   0.75000   0.28270   0.00000  Uiso   1.00
Zn867  Zn    0.75000   0.95053   0.71730   0.00000  Uiso   1.00
Zn868  Zn    0.75000   0.54948   0.28270   0.00000  Uiso   1.00
Zn869  Zn    0.54948   0.75000   0.71730   0.00000  Uiso   1.00
Zn870  Zn    0.95053   0.75000   0.28270   0.00000  Uiso   1.00
Zn871  Zn    0.75000   0.54948   0.71730   0.00000  Uiso   1.00
Zn872  Zn    0.75000   0.95053   0.28270   0.00000  Uiso   1.00
Zn873  Zn    0.79948   0.50000   0.78270   0.00000  Uiso   1.00
Zn874  Zn    0.50000   0.70053   0.21730   0.00000  Uiso   1.00
Zn875  Zn    0.50000   0.79948   0.78270   0.00000  Uiso   1.00
Zn876  Zn    0.79948   0.50000   0.21730   0.00000  Uiso   1.00
Zn877  Zn    0.70053   0.50000   0.78270   0.00000  Uiso   1.00
Zn878  Zn    0.50000   0.79948   0.21730   0.00000  Uiso   1.00
Zn879  Zn    0.50000   0.70053   0.78270   0.00000  Uiso   1.00
Zn880  Zn    0.95053   0.75000   0.71730   0.00000  Uiso   1.00
loop_
_geom_bond_atom_site_label_1
_geom_bond_atom_site_label_2
_geom_bond_distance
_geom_bond_site_symmetry_2
_ccdc_geom_bond_type
C1     C76     1.467   .     S
C1     O204    1.273   .     A
C1     O637    1.273   1_545 S
C2     O195    1.276   .     A
C2     C52     1.422   .     S
C2     O167    1.276   .     A
C3     C20     1.454   .     S
C3     C95     1.415   .     A
C3     C6      1.406   1_554 S
C4     C96     1.415   .     A
C4     C21     1.454   .     S
C4     C119    1.406   1_556 S
C5     C22     1.454   .     S
C5     C97     1.415   .     A
C5     C118    1.406   1_554 S
C6     C98     1.415   .     A
C6     C23     1.454   .     S
C6     C3      1.406   1_556 S
C7     C100    1.415   .     A
C7     C25     1.454   .     S
C7     C120    1.406   1_554 S
C8     N137    1.157   .     T
C8     C109    1.454   .     S
C9     C111    1.454   .     S
C9     N145    1.157   .     T
C10    C112    1.454   .     S
C10    N146    1.157   .     T
C11    C113    1.454   .     S
C11    N147    1.157   .     T
C12    N148    1.157   .     T
C12    C114    1.454   .     S
C13    O192    1.276   .     A
C13    C51     1.421   .     S
C13    O168    1.276   .     A
C14    C115    1.454   .     S
C14    N149    1.157   .     T
C15    C116    1.454   .     S
C15    N150    1.157   .     T
C16    N151    1.157   .     T
C16    C117    1.454   .     S
C17    C118    1.454   .     S
C17    N152    1.157   .     T
C18    N138    1.157   .     T
C18    C119    1.454   .     S
C19    C120    1.454   .     S
C19    N139    1.157   .     T
C20    N140    1.157   .     T
C21    N141    1.157   .     T
C22    N142    1.157   .     T
C23    N143    1.157   .     T
C24    O169    1.276   .     A
C24    C50     1.421   .     S
C24    O193    1.276   .     A
C25    N144    1.157   .     T
C26    C49     1.422   .     S
C26    O199    1.276   .     A
C26    O170    1.276   .     A
C27    C48     1.422   .     S
C27    O171    1.276   .     A
C27    O200    1.276   .     A
C28    C56     1.421   .     S
C28    O172    1.276   .     A
C28    O196    1.276   .     A
C29    O173    1.276   .     A
C29    O198    1.276   .     A
C29    C54     1.421   .     S
C30    C45     1.421   .     S
C30    O185    1.276   .     A
C30    O174    1.276   .     A
C31    C43     1.421   .     S
C31    O176    1.276   .     A
C31    O187    1.276   .     A
C32    O183    1.276   .     A
C32    O177    1.276   .     A
C32    C42     1.422   .     S
C33    C78     1.467   .     S
C33    O594    1.273   1_545 A
C33    O201    1.273   .     S
C34    C41     1.422   .     S
C34    O184    1.276   .     A
C34    O178    1.276   .     A
C35    O179    1.276   .     A
C35    O190    1.276   .     A
C35    C40     1.421   .     S
C36    O191    1.276   .     A
C36    O180    1.276   .     A
C36    C39     1.421   .     S
C37    O188    1.276   .     A
C37    O181    1.276   .     A
C37    C47     1.422   .     S
C38    C46     1.422   .     S
C38    O189    1.276   .     A
C38    O182    1.276   .     A
C39    C56     1.198   .     T
C40    C54     1.198   .     T
C41    C53     1.198   .     T
C42    C52     1.198   .     T
C43    C51     1.198   .     T
C44    O202    1.273   .     A
C44    C74     1.467   .     S
C44    O375    1.273   1_455 S
C45    C50     1.198   .     T
C46    C49     1.198   .     T
C47    C48     1.198   .     T
C53    C110    1.422   .     S
C55    O423    1.273   1_455 A
C55    C75     1.467   .     S
C55    O156    1.273   .     S
C57    H121    1.082   .     S
C57    C87     1.403   .     A
C57    C74     1.396   .     A
C58    H129    1.082   .     S
C58    C89     1.403   .     A
C58    C295    1.396   .     A
C59    H130    1.082   .     S
C59    C90     1.403   .     A
C59    C516    1.396   .     S
C60    H131    1.082   .     S
C60    C91     1.403   .     A
C60    C78     1.396   .     S
C61    H132    1.082   .     S
C61    C83     1.403   .     A
C61    C294    1.396   .     S
C62    H133    1.082   .     S
C62    C84     1.403   .     A
C62    C75     1.396   .     S
C63    C76     1.396   .     A
C63    C85     1.403   .     A
C63    H134    1.082   .     S
C64    H135    1.082   .     S
C64    C86     1.403   .     A
C64    C518    1.396   .     A
C65    C79     1.396   .     A
C65    C96     1.404   .     A
C65    H136    1.082   .     S
C66    C81     1.467   .     S
C66    O157    1.273   .     S
C66    O161    1.273   .     S
C67    C520    1.396   .     A
C67    H122    1.082   .     S
C67    C97     1.404   .     A
C68    H123    1.082   .     S
C68    C98     1.403   .     A
C68    C301    1.396   .     S
C69    H124    1.082   .     S
C69    C100    1.403   .     A
C69    C82     1.396   .     S
C70    H125    1.082   .     S
C70    C92     1.404   .     A
C70    C519    1.396   .     S
C71    H126    1.082   .     S
C71    C93     1.404   .     A
C71    C80     1.396   .     S
C72    C81     1.396   .     A
C72    C94     1.403   .     A
C72    H127    1.082   .     S
C73    C95     1.403   .     A
C73    H128    1.082   .     S
C73    C302    1.396   .     A
C74    C281    1.396   1_455 S
C75    C278    1.396   1_455 A
C76    C499    1.396   1_545 S
C77    C82     1.467   .     S
C77    O158    1.273   .     S
C77    O162    1.273   .     S
C78    C504    1.396   1_545 A
C79    C88     1.467   .     S
C79    C510    1.396   1_545 S
C80    C507    1.396   1_545 A
C80    C99     1.467   .     S
C81    C288    1.396   1_455 S
C82    C293    1.396   1_455 A
C83    C109    1.414   .     A
C83    C321    1.419   .     S
C84    C111    1.414   .     A
C84    C102    1.419   .     S
C85    C112    1.415   .     A
C85    C103    1.419   .     A
C86    C544    1.419   .     A
C86    C113    1.415   .     A
C87    C114    1.414   .     A
C87    C101    1.419   .     A
C88    O159    1.273   .     A
C88    O163    1.273   .     A
C89    C115    1.414   .     A
C89    C322    1.419   .     A
C90    C116    1.415   .     A
C90    C543    1.419   .     S
C91    C117    1.415   .     A
C91    C104    1.419   .     S
C92    C118    1.415   .     A
C92    C545    1.419   .     S
C93    C119    1.415   .     A
C93    C106    1.419   .     S
C94    C120    1.415   .     A
C94    C107    1.419   .     S
C95    C328    1.419   .     A
C96    C105    1.419   .     A
C97    C546    1.419   .     A
C98    C327    1.419   .     A
C99    O160    1.273   .     S
C99    O165    1.273   .     S
C100   C108    1.419   .     S
C101   C303    1.419   1_455 S
C101   C102    1.407   .     S
C102   C309    1.419   1_455 A
C103   C530    1.419   1_545 S
C103   C104    1.408   .     S
C104   C526    1.419   1_545 A
C105   C532    1.419   1_545 S
C105   C106    1.408   1_556 S
C106   C537    1.419   1_545 A
C106   C105    1.408   1_554 S
C107   C318    1.419   1_455 A
C107   C108    1.407   1_556 S
C108   C315    1.419   1_455 A
C108   C107    1.407   1_554 S
C109   C115    1.406   .     A
C110   O194    1.276   .     A
C110   O166    1.276   .     A
C111   C114    1.406   .     A
C112   C117    1.406   .     A
C113   C116    1.406   .     A
C118   C5      1.406   1_556 S
C119   C4      1.406   1_554 S
C120   C7      1.406   1_556 S
O153   Zn216   1.936   .     S
O153   Zn208   1.936   .     S
O153   Zn205   1.936   .     S
O153   Zn652   1.936   1_545 S
O154   C473    1.273   .     A
O154   Zn207   1.953   .     S
O155   Zn210   1.953   .     S
O155   C264    1.273   .     S
O156   Zn209   1.953   .     S
O157   Zn219   1.953   .     S
O158   Zn218   1.953   .     S
O159   Zn213   1.953   .     S
O160   Zn205   1.953   .     S
O161   Zn215   1.953   .     S
O162   Zn214   1.953   .     S
O163   Zn217   1.953   .     S
O164   Zn217   1.936   .     S
O164   Zn211   1.936   .     S
O164   Zn213   1.936   .     S
O164   Zn647   1.936   1_545 S
O165   Zn216   1.953   .     S
O166   Zn208   1.914   .     S
O167   Zn207   1.914   .     S
O168   Zn210   1.914   .     S
O169   Zn209   1.914   .     S
O170   Zn212   1.914   .     S
O171   Zn211   1.914   .     S
O172   Zn206   1.914   .     S
O173   Zn220   1.914   .     S
O174   Zn207   1.914   .     S
O175   Zn214   1.936   .     S
O175   Zn218   1.936   .     S
O175   Zn206   1.936   .     S
O175   Zn430   1.936   1_455 S
O176   Zn208   1.914   .     S
O177   Zn220   1.914   .     S
O178   Zn206   1.914   .     S
O179   Zn211   1.914   .     S
O180   Zn212   1.914   .     S
O181   Zn209   1.914   .     S
O182   Zn210   1.914   .     S
O183   Zn435   1.914   .     S
O184   Zn214   1.914   .     S
O185   Zn657   1.914   .     S
O186   Zn440   1.936   1_455 S
O186   Zn215   1.936   .     S
O186   Zn209   1.936   .     S
O186   Zn219   1.936   .     S
O187   Zn216   1.914   .     S
O188   Zn219   1.914   .     S
O189   Zn438   1.914   .     S
O190   Zn213   1.914   .     S
O191   Zn645   1.914   .     S
O192   Zn434   1.914   .     S
O193   Zn215   1.914   .     S
O194   Zn205   1.914   .     S
O195   Zn653   1.914   .     S
O196   Zn218   1.914   .     S
O197   Zn212   1.953   .     S
O197   C441    1.273   .     S
O198   Zn439   1.914   .     S
O199   Zn656   1.914   .     S
O200   Zn217   1.914   .     S
O201   Zn211   1.953   .     S
O202   Zn206   1.953   .     S
O203   Zn220   1.953   .     S
O203   C275    1.273   .     A
O204   Zn208   1.953   .     S
Zn205  O631    1.914   1_545 S
Zn207  O604    1.936   .     S
Zn210  O395    1.936   .     S
Zn212  O593    1.936   .     S
Zn213  O635    1.914   1_545 S
Zn214  O412    1.914   1_455 S
Zn215  O403    1.914   1_455 S
Zn216  O639    1.914   1_545 S
Zn217  O625    1.914   1_545 S
Zn218  O409    1.914   1_455 S
Zn219  O418    1.914   1_455 S
Zn220  O406    1.936   .     S
C221   C296    1.467   .     S
C221   O424    1.273   .     A
C221   O857    1.273   1_545 S
C222   O415    1.276   .     A
C222   C272    1.422   .     S
C222   O387    1.276   .     A
C223   C240    1.454   .     S
C223   C315    1.415   .     A
C223   C226    1.406   1_554 S
C224   C316    1.415   .     A
C224   C241    1.454   .     S
C224   C339    1.406   1_556 S
C225   C242    1.454   .     S
C225   C317    1.415   .     A
C225   C338    1.406   1_554 S
C226   C318    1.415   .     A
C226   C243    1.454   .     S
C226   C223    1.406   1_556 S
C227   C320    1.415   .     A
C227   C245    1.454   .     S
C227   C340    1.406   1_554 S
C228   N357    1.157   .     T
C228   C329    1.454   .     S
C229   C331    1.454   .     S
C229   N365    1.157   .     T
C230   C332    1.454   .     S
C230   N366    1.157   .     T
C231   C333    1.454   .     S
C231   N367    1.157   .     T
C232   N368    1.157   .     T
C232   C334    1.454   .     S
C233   O412    1.276   .     A
C233   C271    1.421   .     S
C233   O388    1.276   .     A
C234   C335    1.454   .     S
C234   N369    1.157   .     T
C235   C336    1.454   .     S
C235   N370    1.157   .     T
C236   N371    1.157   .     T
C236   C337    1.454   .     S
C237   C338    1.454   .     S
C237   N372    1.157   .     T
C238   N358    1.157   .     T
C238   C339    1.454   .     S
C239   C340    1.454   .     S
C239   N359    1.157   .     T
C240   N360    1.157   .     T
C241   N361    1.157   .     T
C242   N362    1.157   .     T
C243   N363    1.157   .     T
C244   O389    1.276   .     A
C244   C270    1.421   .     S
C244   O413    1.276   .     A
C245   N364    1.157   .     T
C246   C269    1.422   .     S
C246   O419    1.276   .     A
C246   O390    1.276   .     A
C247   C268    1.422   .     S
C247   O391    1.276   .     A
C247   O420    1.276   .     A
C248   C276    1.421   .     S
C248   O392    1.276   .     A
C248   O416    1.276   .     A
C249   O393    1.276   .     A
C249   O418    1.276   .     A
C249   C274    1.421   .     S
C250   C265    1.421   .     S
C250   O405    1.276   .     A
C250   O394    1.276   .     A
C251   C263    1.421   .     S
C251   O396    1.276   .     A
C251   O407    1.276   .     A
C252   O403    1.276   .     A
C252   O397    1.276   .     A
C252   C262    1.422   .     S
C253   C298    1.467   .     S
C253   O814    1.273   1_545 A
C253   O421    1.273   .     S
C254   C261    1.422   .     S
C254   O404    1.276   .     A
C254   O398    1.276   .     A
C255   O399    1.276   .     A
C255   O410    1.276   .     A
C255   C260    1.421   .     S
C256   O411    1.276   .     A
C256   O400    1.276   .     A
C256   C259    1.421   .     S
C257   O408    1.276   .     A
C257   O401    1.276   .     A
C257   C267    1.422   .     S
C258   C266    1.422   .     S
C258   O409    1.276   .     A
C258   O402    1.276   .     A
C259   C276    1.198   .     T
C260   C274    1.198   .     T
C261   C273    1.198   .     T
C262   C272    1.198   .     T
C263   C271    1.198   .     T
C264   O422    1.273   .     A
C264   C294    1.467   .     S
C265   C270    1.198   .     T
C266   C269    1.198   .     T
C267   C268    1.198   .     T
C273   C330    1.422   .     S
C275   C295    1.467   .     S
C275   O376    1.273   .     S
C277   H341    1.082   .     S
C277   C307    1.403   .     A
C277   C294    1.396   .     A
C278   H349    1.082   .     S
C278   C309    1.403   .     A
C278   C75     1.396   1_655 A
C279   H350    1.082   .     S
C279   C310    1.403   .     A
C279   C736    1.396   .     S
C280   H351    1.082   .     S
C280   C311    1.403   .     A
C280   C298    1.396   .     S
C281   H352    1.082   .     S
C281   C303    1.403   .     A
C281   C74     1.396   1_655 S
C282   H353    1.082   .     S
C282   C304    1.403   .     A
C282   C295    1.396   .     S
C283   C296    1.396   .     A
C283   C305    1.403   .     A
C283   H354    1.082   .     S
C284   H355    1.082   .     S
C284   C306    1.403   .     A
C284   C738    1.396   .     A
C285   C299    1.396   .     A
C285   C316    1.404   .     A
C285   H356    1.082   .     S
C286   C301    1.467   .     S
C286   O377    1.273   .     S
C286   O381    1.273   .     S
C287   C740    1.396   .     A
C287   H342    1.082   .     S
C287   C317    1.404   .     A
C288   H343    1.082   .     S
C288   C318    1.403   .     A
C288   C81     1.396   1_655 S
C289   H344    1.082   .     S
C289   C320    1.403   .     A
C289   C302    1.396   .     S
C290   H345    1.082   .     S
C290   C312    1.404   .     A
C290   C739    1.396   .     S
C291   H346    1.082   .     S
C291   C313    1.404   .     A
C291   C300    1.396   .     S
C292   C301    1.396   .     A
C292   C314    1.403   .     A
C292   H347    1.082   .     S
C293   C315    1.403   .     A
C293   H348    1.082   .     S
C293   C82     1.396   1_655 A
C296   C719    1.396   1_545 S
C297   C302    1.467   .     S
C297   O378    1.273   .     S
C297   O382    1.273   .     S
C298   C724    1.396   1_545 A
C299   C308    1.467   .     S
C299   C730    1.396   1_545 S
C300   C727    1.396   1_545 A
C300   C319    1.467   .     S
C303   C329    1.414   .     A
C303   C101    1.419   1_655 S
C304   C331    1.414   .     A
C304   C322    1.419   .     S
C305   C332    1.415   .     A
C305   C323    1.419   .     A
C306   C764    1.419   .     A
C306   C333    1.415   .     A
C307   C334    1.414   .     A
C307   C321    1.419   .     A
C308   O379    1.273   .     A
C308   O383    1.273   .     A
C309   C335    1.414   .     A
C309   C102    1.419   1_655 A
C310   C336    1.415   .     A
C310   C763    1.419   .     S
C311   C337    1.415   .     A
C311   C324    1.419   .     S
C312   C338    1.415   .     A
C312   C765    1.419   .     S
C313   C339    1.415   .     A
C313   C326    1.419   .     S
C314   C340    1.415   .     A
C314   C327    1.419   .     S
C315   C108    1.419   1_655 A
C316   C325    1.419   .     A
C317   C766    1.419   .     A
C318   C107    1.419   1_655 A
C319   O380    1.273   .     S
C319   O385    1.273   .     S
C320   C328    1.419   .     S
C321   C322    1.407   .     S
C323   C750    1.419   1_545 S
C323   C324    1.408   .     S
C324   C746    1.419   1_545 A
C325   C752    1.419   1_545 S
C325   C326    1.408   1_556 S
C326   C757    1.419   1_545 A
C326   C325    1.408   1_554 S
C327   C328    1.407   1_556 S
C328   C327    1.407   1_554 S
C329   C335    1.406   .     A
C330   O414    1.276   .     A
C330   O386    1.276   .     A
C331   C334    1.406   .     A
C332   C337    1.406   .     A
C333   C336    1.406   .     A
C338   C225    1.406   1_556 S
C339   C224    1.406   1_554 S
C340   C227    1.406   1_556 S
O373   Zn436   1.936   .     S
O373   Zn428   1.936   .     S
O373   Zn425   1.936   .     S
O373   Zn872   1.936   1_545 S
O374   C693    1.273   .     A
O374   Zn427   1.953   .     S
O375   Zn430   1.953   .     S
O375   C44     1.273   1_655 S
O376   Zn429   1.953   .     S
O377   Zn439   1.953   .     S
O378   Zn438   1.953   .     S
O379   Zn433   1.953   .     S
O380   Zn425   1.953   .     S
O381   Zn435   1.953   .     S
O382   Zn434   1.953   .     S
O383   Zn437   1.953   .     S
O384   Zn437   1.936   .     S
O384   Zn431   1.936   .     S
O384   Zn433   1.936   .     S
O384   Zn867   1.936   1_545 S
O385   Zn436   1.953   .     S
O386   Zn428   1.914   .     S
O387   Zn427   1.914   .     S
O388   Zn430   1.914   .     S
O389   Zn429   1.914   .     S
O390   Zn432   1.914   .     S
O391   Zn431   1.914   .     S
O392   Zn426   1.914   .     S
O393   Zn440   1.914   .     S
O394   Zn427   1.914   .     S
O395   Zn434   1.936   .     S
O395   Zn438   1.936   .     S
O395   Zn426   1.936   .     S
O396   Zn428   1.914   .     S
O397   Zn440   1.914   .     S
O398   Zn426   1.914   .     S
O399   Zn431   1.914   .     S
O400   Zn432   1.914   .     S
O401   Zn429   1.914   .     S
O402   Zn430   1.914   .     S
O403   Zn215   1.914   1_655 S
O404   Zn434   1.914   .     S
O405   Zn877   1.914   .     S
O406   Zn435   1.936   .     S
O406   Zn429   1.936   .     S
O406   Zn439   1.936   .     S
O407   Zn436   1.914   .     S
O408   Zn439   1.914   .     S
O409   Zn218   1.914   1_655 S
O410   Zn433   1.914   .     S
O411   Zn865   1.914   .     S
O412   Zn214   1.914   1_655 S
O413   Zn435   1.914   .     S
O414   Zn425   1.914   .     S
O415   Zn873   1.914   .     S
O416   Zn438   1.914   .     S
O417   Zn432   1.953   .     S
O417   C661    1.273   .     S
O418   Zn219   1.914   1_655 S
O419   Zn876   1.914   .     S
O420   Zn437   1.914   .     S
O421   Zn431   1.953   .     S
O422   Zn426   1.953   .     S
O423   Zn440   1.953   .     S
O423   C55     1.273   1_655 A
O424   Zn428   1.953   .     S
Zn425  O851    1.914   1_545 S
Zn427  O824    1.936   .     S
Zn430  O175    1.936   1_655 S
Zn432  O813    1.936   .     S
Zn433  O855    1.914   1_545 S
Zn436  O859    1.914   1_545 S
Zn437  O845    1.914   1_545 S
Zn440  O186    1.936   1_655 S
C441   C516    1.467   .     S
C441   O644    1.273   .     A
C442   O635    1.276   .     A
C442   C492    1.422   .     S
C442   O607    1.276   .     A
C443   C460    1.454   .     S
C443   C535    1.415   .     A
C443   C446    1.406   1_554 S
C444   C536    1.415   .     A
C444   C461    1.454   .     S
C444   C559    1.406   1_556 S
C445   C462    1.454   .     S
C445   C537    1.415   .     A
C445   C558    1.406   1_554 S
C446   C538    1.415   .     A
C446   C463    1.454   .     S
C446   C443    1.406   1_556 S
C447   C540    1.415   .     A
C447   C465    1.454   .     S
C447   C560    1.406   1_554 S
C448   N577    1.157   .     T
C448   C549    1.454   .     S
C449   C551    1.454   .     S
C449   N585    1.157   .     T
C450   C552    1.454   .     S
C450   N586    1.157   .     T
C451   C553    1.454   .     S
C451   N587    1.157   .     T
C452   N588    1.157   .     T
C452   C554    1.454   .     S
C453   O632    1.276   .     A
C453   C491    1.421   .     S
C453   O608    1.276   .     A
C454   C555    1.454   .     S
C454   N589    1.157   .     T
C455   C556    1.454   .     S
C455   N590    1.157   .     T
C456   N591    1.157   .     T
C456   C557    1.454   .     S
C457   C558    1.454   .     S
C457   N592    1.157   .     T
C458   N578    1.157   .     T
C458   C559    1.454   .     S
C459   C560    1.454   .     S
C459   N579    1.157   .     T
C460   N580    1.157   .     T
C461   N581    1.157   .     T
C462   N582    1.157   .     T
C463   N583    1.157   .     T
C464   O609    1.276   .     A
C464   C490    1.421   .     S
C464   O633    1.276   .     A
C465   N584    1.157   .     T
C466   C489    1.422   .     S
C466   O639    1.276   .     A
C466   O610    1.276   .     A
C467   C488    1.422   .     S
C467   O611    1.276   .     A
C467   O640    1.276   .     A
C468   C496    1.421   .     S
C468   O612    1.276   .     A
C468   O636    1.276   .     A
C469   O613    1.276   .     A
C469   O638    1.276   .     A
C469   C494    1.421   .     S
C470   C485    1.421   .     S
C470   O625    1.276   .     A
C470   O614    1.276   .     A
C471   C483    1.421   .     S
C471   O616    1.276   .     A
C471   O627    1.276   .     A
C472   O623    1.276   .     A
C472   O617    1.276   .     A
C472   C482    1.422   .     S
C473   C518    1.467   .     S
C473   O641    1.273   .     S
C474   C481    1.422   .     S
C474   O624    1.276   .     A
C474   O618    1.276   .     A
C475   O619    1.276   .     A
C475   O630    1.276   .     A
C475   C480    1.421   .     S
C476   O631    1.276   .     A
C476   O620    1.276   .     A
C476   C479    1.421   .     S
C477   O628    1.276   .     A
C477   O621    1.276   .     A
C477   C487    1.422   .     S
C478   C486    1.422   .     S
C478   O629    1.276   .     A
C478   O622    1.276   .     A
C479   C496    1.198   .     T
C480   C494    1.198   .     T
C481   C493    1.198   .     T
C482   C492    1.198   .     T
C483   C491    1.198   .     T
C484   O642    1.273   .     A
C484   C514    1.467   .     S
C484   O815    1.273   1_455 S
C485   C490    1.198   .     T
C486   C489    1.198   .     T
C487   C488    1.198   .     T
C493   C550    1.422   .     S
C495   O863    1.273   1_455 A
C495   C515    1.467   .     S
C495   O596    1.273   .     S
C497   H561    1.082   .     S
C497   C527    1.403   .     A
C497   C514    1.396   .     A
C498   H569    1.082   .     S
C498   C529    1.403   .     A
C498   C735    1.396   .     A
C499   H570    1.082   .     S
C499   C530    1.403   .     A
C499   C76     1.396   1_565 S
C500   H571    1.082   .     S
C500   C531    1.403   .     A
C500   C518    1.396   .     S
C501   H572    1.082   .     S
C501   C523    1.403   .     A
C501   C734    1.396   .     S
C502   H573    1.082   .     S
C502   C524    1.403   .     A
C502   C515    1.396   .     S
C503   C516    1.396   .     A
C503   C525    1.403   .     A
C503   H574    1.082   .     S
C504   H575    1.082   .     S
C504   C526    1.403   .     A
C504   C78     1.396   1_565 A
C505   C519    1.396   .     A
C505   C536    1.404   .     A
C505   H576    1.082   .     S
C506   C521    1.467   .     S
C506   O597    1.273   .     S
C506   O601    1.273   .     S
C507   C80     1.396   1_565 A
C507   H562    1.082   .     S
C507   C537    1.404   .     A
C508   H563    1.082   .     S
C508   C538    1.403   .     A
C508   C741    1.396   .     S
C509   H564    1.082   .     S
C509   C540    1.403   .     A
C509   C522    1.396   .     S
C510   H565    1.082   .     S
C510   C532    1.404   .     A
C510   C79     1.396   1_565 S
C511   H566    1.082   .     S
C511   C533    1.404   .     A
C511   C520    1.396   .     S
C512   C521    1.396   .     A
C512   C534    1.403   .     A
C512   H567    1.082   .     S
C513   C535    1.403   .     A
C513   H568    1.082   .     S
C513   C742    1.396   .     A
C514   C721    1.396   1_455 S
C515   C718    1.396   1_455 A
C517   C522    1.467   .     S
C517   O598    1.273   .     S
C517   O602    1.273   .     S
C519   C528    1.467   .     S
C520   C539    1.467   .     S
C521   C728    1.396   1_455 S
C522   C733    1.396   1_455 A
C523   C549    1.414   .     A
C523   C761    1.419   .     S
C524   C551    1.414   .     A
C524   C542    1.419   .     S
C525   C552    1.415   .     A
C525   C543    1.419   .     A
C526   C104    1.419   1_565 A
C526   C553    1.415   .     A
C527   C554    1.414   .     A
C527   C541    1.419   .     A
C528   O599    1.273   .     A
C528   O603    1.273   .     A
C529   C555    1.414   .     A
C529   C762    1.419   .     A
C530   C556    1.415   .     A
C530   C103    1.419   1_565 S
C531   C557    1.415   .     A
C531   C544    1.419   .     S
C532   C558    1.415   .     A
C532   C105    1.419   1_565 S
C533   C559    1.415   .     A
C533   C546    1.419   .     S
C534   C560    1.415   .     A
C534   C547    1.419   .     S
C535   C768    1.419   .     A
C536   C545    1.419   .     A
C537   C106    1.419   1_565 A
C538   C767    1.419   .     A
C539   O600    1.273   .     S
C539   O605    1.273   .     S
C540   C548    1.419   .     S
C541   C743    1.419   1_455 S
C541   C542    1.407   .     S
C542   C749    1.419   1_455 A
C543   C544    1.408   .     S
C545   C546    1.408   1_556 S
C546   C545    1.408   1_554 S
C547   C758    1.419   1_455 A
C547   C548    1.407   1_556 S
C548   C755    1.419   1_455 A
C548   C547    1.407   1_554 S
C549   C555    1.406   .     A
C550   O634    1.276   .     A
C550   O606    1.276   .     A
C551   C554    1.406   .     A
C552   C557    1.406   .     A
C553   C556    1.406   .     A
C558   C445    1.406   1_556 S
C559   C444    1.406   1_554 S
C560   C447    1.406   1_556 S
O593   Zn656   1.936   .     S
O593   Zn648   1.936   .     S
O593   Zn645   1.936   .     S
O594   C33     1.273   1_565 A
O594   Zn647   1.953   .     S
O595   Zn650   1.953   .     S
O595   C704    1.273   .     S
O596   Zn649   1.953   .     S
O597   Zn659   1.953   .     S
O598   Zn658   1.953   .     S
O599   Zn653   1.953   .     S
O600   Zn645   1.953   .     S
O601   Zn655   1.953   .     S
O602   Zn654   1.953   .     S
O603   Zn657   1.953   .     S
O604   Zn657   1.936   .     S
O604   Zn651   1.936   .     S
O604   Zn653   1.936   .     S
O605   Zn656   1.953   .     S
O606   Zn648   1.914   .     S
O607   Zn647   1.914   .     S
O608   Zn650   1.914   .     S
O609   Zn649   1.914   .     S
O610   Zn652   1.914   .     S
O611   Zn651   1.914   .     S
O612   Zn646   1.914   .     S
O613   Zn660   1.914   .     S
O614   Zn647   1.914   .     S
O615   Zn654   1.936   .     S
O615   Zn658   1.936   .     S
O615   Zn646   1.936   .     S
O615   Zn870   1.936   1_455 S
O616   Zn648   1.914   .     S
O617   Zn660   1.914   .     S
O618   Zn646   1.914   .     S
O619   Zn651   1.914   .     S
O620   Zn652   1.914   .     S
O621   Zn649   1.914   .     S
O622   Zn650   1.914   .     S
O623   Zn875   1.914   .     S
O624   Zn654   1.914   .     S
O625   Zn217   1.914   1_565 S
O626   Zn880   1.936   1_455 S
O626   Zn655   1.936   .     S
O626   Zn649   1.936   .     S
O626   Zn659   1.936   .     S
O627   Zn656   1.914   .     S
O628   Zn659   1.914   .     S
O629   Zn878   1.914   .     S
O630   Zn653   1.914   .     S
O631   Zn205   1.914   1_565 S
O632   Zn874   1.914   .     S
O633   Zn655   1.914   .     S
O634   Zn645   1.914   .     S
O635   Zn213   1.914   1_565 S
O636   Zn658   1.914   .     S
O637   Zn652   1.953   .     S
O637   C1      1.273   1_565 S
O638   Zn879   1.914   .     S
O639   Zn216   1.914   1_565 S
O640   Zn657   1.914   .     S
O641   Zn651   1.953   .     S
O642   Zn646   1.953   .     S
O643   Zn660   1.953   .     S
O643   C715    1.273   .     A
O644   Zn648   1.953   .     S
Zn647  O164    1.936   1_565 S
Zn650  O835    1.936   .     S
Zn652  O153    1.936   1_565 S
Zn654  O852    1.914   1_455 S
Zn655  O843    1.914   1_455 S
Zn658  O849    1.914   1_455 S
Zn659  O858    1.914   1_455 S
Zn660  O846    1.936   .     S
C661   C736    1.467   .     S
C661   O864    1.273   .     A
C662   O855    1.276   .     A
C662   C712    1.422   .     S
C662   O827    1.276   .     A
C663   C680    1.454   .     S
C663   C755    1.415   .     A
C663   C666    1.406   1_554 S
C664   C756    1.415   .     A
C664   C681    1.454   .     S
C664   C779    1.406   1_556 S
C665   C682    1.454   .     S
C665   C757    1.415   .     A
C665   C778    1.406   1_554 S
C666   C758    1.415   .     A
C666   C683    1.454   .     S
C666   C663    1.406   1_556 S
C667   C760    1.415   .     A
C667   C685    1.454   .     S
C667   C780    1.406   1_554 S
C668   N797    1.157   .     T
C668   C769    1.454   .     S
C669   C771    1.454   .     S
C669   N805    1.157   .     T
C670   C772    1.454   .     S
C670   N806    1.157   .     T
C671   C773    1.454   .     S
C671   N807    1.157   .     T
C672   N808    1.157   .     T
C672   C774    1.454   .     S
C673   O852    1.276   .     A
C673   C711    1.421   .     S
C673   O828    1.276   .     A
C674   C775    1.454   .     S
C674   N809    1.157   .     T
C675   C776    1.454   .     S
C675   N810    1.157   .     T
C676   N811    1.157   .     T
C676   C777    1.454   .     S
C677   C778    1.454   .     S
C677   N812    1.157   .     T
C678   N798    1.157   .     T
C678   C779    1.454   .     S
C679   C780    1.454   .     S
C679   N799    1.157   .     T
C680   N800    1.157   .     T
C681   N801    1.157   .     T
C682   N802    1.157   .     T
C683   N803    1.157   .     T
C684   O829    1.276   .     A
C684   C710    1.421   .     S
C684   O853    1.276   .     A
C685   N804    1.157   .     T
C686   C709    1.422   .     S
C686   O859    1.276   .     A
C686   O830    1.276   .     A
C687   C708    1.422   .     S
C687   O831    1.276   .     A
C687   O860    1.276   .     A
C688   C716    1.421   .     S
C688   O832    1.276   .     A
C688   O856    1.276   .     A
C689   O833    1.276   .     A
C689   O858    1.276   .     A
C689   C714    1.421   .     S
C690   C705    1.421   .     S
C690   O845    1.276   .     A
C690   O834    1.276   .     A
C691   C703    1.421   .     S
C691   O836    1.276   .     A
C691   O847    1.276   .     A
C692   O843    1.276   .     A
C692   O837    1.276   .     A
C692   C702    1.422   .     S
C693   C738    1.467   .     S
C693   O861    1.273   .     S
C694   C701    1.422   .     S
C694   O844    1.276   .     A
C694   O838    1.276   .     A
C695   O839    1.276   .     A
C695   O850    1.276   .     A
C695   C700    1.421   .     S
C696   O851    1.276   .     A
C696   O840    1.276   .     A
C696   C699    1.421   .     S
C697   O848    1.276   .     A
C697   O841    1.276   .     A
C697   C707    1.422   .     S
C698   C706    1.422   .     S
C698   O849    1.276   .     A
C698   O842    1.276   .     A
C699   C716    1.198   .     T
C700   C714    1.198   .     T
C701   C713    1.198   .     T
C702   C712    1.198   .     T
C703   C711    1.198   .     T
C704   O862    1.273   .     A
C704   C734    1.467   .     S
C705   C710    1.198   .     T
C706   C709    1.198   .     T
C707   C708    1.198   .     T
C713   C770    1.422   .     S
C715   C735    1.467   .     S
C715   O816    1.273   .     S
C717   H781    1.082   .     S
C717   C747    1.403   .     A
C717   C734    1.396   .     A
C718   H789    1.082   .     S
C718   C749    1.403   .     A
C718   C515    1.396   1_655 A
C719   H790    1.082   .     S
C719   C750    1.403   .     A
C719   C296    1.396   1_565 S
C720   H791    1.082   .     S
C720   C751    1.403   .     A
C720   C738    1.396   .     S
C721   H792    1.082   .     S
C721   C743    1.403   .     A
C721   C514    1.396   1_655 S
C722   H793    1.082   .     S
C722   C744    1.403   .     A
C722   C735    1.396   .     S
C723   C736    1.396   .     A
C723   C745    1.403   .     A
C723   H794    1.082   .     S
C724   H795    1.082   .     S
C724   C746    1.403   .     A
C724   C298    1.396   1_565 A
C725   C739    1.396   .     A
C725   C756    1.404   .     A
C725   H796    1.082   .     S
C726   C741    1.467   .     S
C726   O817    1.273   .     S
C726   O821    1.273   .     S
C727   C300    1.396   1_565 A
C727   H782    1.082   .     S
C727   C757    1.404   .     A
C728   H783    1.082   .     S
C728   C758    1.403   .     A
C728   C521    1.396   1_655 S
C729   H784    1.082   .     S
C729   C760    1.403   .     A
C729   C742    1.396   .     S
C730   H785    1.082   .     S
C730   C752    1.404   .     A
C730   C299    1.396   1_565 S
C731   H786    1.082   .     S
C731   C753    1.404   .     A
C731   C740    1.396   .     S
C732   C741    1.396   .     A
C732   C754    1.403   .     A
C732   H787    1.082   .     S
C733   C755    1.403   .     A
C733   H788    1.082   .     S
C733   C522    1.396   1_655 A
C737   C742    1.467   .     S
C737   O818    1.273   .     S
C737   O822    1.273   .     S
C739   C748    1.467   .     S
C740   C759    1.467   .     S
C743   C769    1.414   .     A
C743   C541    1.419   1_655 S
C744   C771    1.414   .     A
C744   C762    1.419   .     S
C745   C772    1.415   .     A
C745   C763    1.419   .     A
C746   C324    1.419   1_565 A
C746   C773    1.415   .     A
C747   C774    1.414   .     A
C747   C761    1.419   .     A
C748   O819    1.273   .     A
C748   O823    1.273   .     A
C749   C775    1.414   .     A
C749   C542    1.419   1_655 A
C750   C776    1.415   .     A
C750   C323    1.419   1_565 S
C751   C777    1.415   .     A
C751   C764    1.419   .     S
C752   C778    1.415   .     A
C752   C325    1.419   1_565 S
C753   C779    1.415   .     A
C753   C766    1.419   .     S
C754   C780    1.415   .     A
C754   C767    1.419   .     S
C755   C548    1.419   1_655 A
C756   C765    1.419   .     A
C757   C326    1.419   1_565 A
C758   C547    1.419   1_655 A
C759   O820    1.273   .     S
C759   O825    1.273   .     S
C760   C768    1.419   .     S
C761   C762    1.407   .     S
C763   C764    1.408   .     S
C765   C766    1.408   1_556 S
C766   C765    1.408   1_554 S
C767   C768    1.407   1_556 S
C768   C767    1.407   1_554 S
C769   C775    1.406   .     A
C770   O854    1.276   .     A
C770   O826    1.276   .     A
C771   C774    1.406   .     A
C772   C777    1.406   .     A
C773   C776    1.406   .     A
C778   C665    1.406   1_556 S
C779   C664    1.406   1_554 S
C780   C667    1.406   1_556 S
O813   Zn876   1.936   .     S
O813   Zn868   1.936   .     S
O813   Zn865   1.936   .     S
O814   C253    1.273   1_565 A
O814   Zn867   1.953   .     S
O815   Zn870   1.953   .     S
O815   C484    1.273   1_655 S
O816   Zn869   1.953   .     S
O817   Zn879   1.953   .     S
O818   Zn878   1.953   .     S
O819   Zn873   1.953   .     S
O820   Zn865   1.953   .     S
O821   Zn875   1.953   .     S
O822   Zn874   1.953   .     S
O823   Zn877   1.953   .     S
O824   Zn877   1.936   .     S
O824   Zn871   1.936   .     S
O824   Zn873   1.936   .     S
O825   Zn876   1.953   .     S
O826   Zn868   1.914   .     S
O827   Zn867   1.914   .     S
O828   Zn870   1.914   .     S
O829   Zn869   1.914   .     S
O830   Zn872   1.914   .     S
O831   Zn871   1.914   .     S
O832   Zn866   1.914   .     S
O833   Zn880   1.914   .     S
O834   Zn867   1.914   .     S
O835   Zn874   1.936   .     S
O835   Zn878   1.936   .     S
O835   Zn866   1.936   .     S
O836   Zn868   1.914   .     S
O837   Zn880   1.914   .     S
O838   Zn866   1.914   .     S
O839   Zn871   1.914   .     S
O840   Zn872   1.914   .     S
O841   Zn869   1.914   .     S
O842   Zn870   1.914   .     S
O843   Zn655   1.914   1_655 S
O844   Zn874   1.914   .     S
O845   Zn437   1.914   1_565 S
O846   Zn875   1.936   .     S
O846   Zn869   1.936   .     S
O846   Zn879   1.936   .     S
O847   Zn876   1.914   .     S
O848   Zn879   1.914   .     S
O849   Zn658   1.914   1_655 S
O850   Zn873   1.914   .     S
O851   Zn425   1.914   1_565 S
O852   Zn654   1.914   1_655 S
O853   Zn875   1.914   .     S
O854   Zn865   1.914   .     S
O855   Zn433   1.914   1_565 S
O856   Zn878   1.914   .     S
O857   Zn872   1.953   .     S
O857   C221    1.273   1_565 S
O858   Zn659   1.914   1_655 S
O859   Zn436   1.914   1_565 S
O860   Zn877   1.914   .     S
O861   Zn871   1.953   .     S
O862   Zn866   1.953   .     S
O863   Zn880   1.953   .     S
O863   C495    1.273   1_655 A
O864   Zn868   1.953   .     S
Zn867  O384    1.936   1_565 S
Zn870  O615    1.936   1_655 S
Zn872  O373    1.936   1_565 S
Zn880  O626    1.936   1_655 S
