data_str_m1_o1_o1_pcu_sym.7
_audit_creation_date              2020-01-03
_audit_creation_method            'Materials Studio'
_symmetry_space_group_name_H-M    'P1'
_symmetry_Int_Tables_number       1
_symmetry_cell_setting            triclinic
loop_
_symmetry_equiv_pos_as_xyz
  x,y,z
_cell_length_a                    25.9391
_cell_length_b                    25.9391
_cell_length_c                    25.9391
_cell_angle_alpha                 90.0000
_cell_angle_beta                  90.0000
_cell_angle_gamma                 90.0000
loop_
_atom_site_label
_atom_site_type_symbol
_atom_site_fract_x
_atom_site_fract_y
_atom_site_fract_z
_atom_site_U_iso_or_equiv
_atom_site_adp_type
_atom_site_occupancy
C1     C     0.38996   0.25000   0.25000   0.00000  Uiso   1.00
C2     C     0.61004   0.25000   0.25000   0.00000  Uiso   1.00
C3     C     0.97301   0.75547   0.20304   0.00000  Uiso   1.00
C4     C     0.02699   0.74452   0.70304   0.00000  Uiso   1.00
C5     C     0.97301   0.25547   0.29696   0.00000  Uiso   1.00
C6     C     0.02699   0.75547   0.20304   0.00000  Uiso   1.00
C7     C     0.97301   0.24453   0.79696   0.00000  Uiso   1.00
C8     C     0.74453   0.70304   0.02699   0.00000  Uiso   1.00
C9     C     0.25548   0.29696   0.97301   0.00000  Uiso   1.00
C10    C     0.75548   0.20304   0.02699   0.00000  Uiso   1.00
C11    C     0.24453   0.79696   0.97301   0.00000  Uiso   1.00
C12    C     0.25548   0.29696   0.02699   0.00000  Uiso   1.00
C13    C     0.25000   0.75000   0.38996   0.00000  Uiso   1.00
C14    C     0.74453   0.70304   0.97301   0.00000  Uiso   1.00
C15    C     0.24453   0.79696   0.02699   0.00000  Uiso   1.00
C16    C     0.75548   0.20304   0.97301   0.00000  Uiso   1.00
C17    C     0.25547   0.70304   0.97301   0.00000  Uiso   1.00
C18    C     0.74452   0.29696   0.02699   0.00000  Uiso   1.00
C19    C     0.24452   0.20304   0.97301   0.00000  Uiso   1.00
C20    C     0.75548   0.79696   0.02699   0.00000  Uiso   1.00
C21    C     0.74452   0.29696   0.97301   0.00000  Uiso   1.00
C22    C     0.25547   0.70304   0.02699   0.00000  Uiso   1.00
C23    C     0.75548   0.79696   0.97301   0.00000  Uiso   1.00
C24    C     0.75000   0.25000   0.61004   0.00000  Uiso   1.00
C25    C     0.24452   0.20304   0.02699   0.00000  Uiso   1.00
C26    C     0.70304   0.47301   0.75547   0.00000  Uiso   1.00
C27    C     0.29696   0.52699   0.24453   0.00000  Uiso   1.00
C28    C     0.70304   0.47301   0.24453   0.00000  Uiso   1.00
C29    C     0.29696   0.52699   0.75547   0.00000  Uiso   1.00
C30    C     0.29696   0.47301   0.24453   0.00000  Uiso   1.00
C31    C     0.70304   0.52699   0.75547   0.00000  Uiso   1.00
C32    C     0.29696   0.47301   0.75547   0.00000  Uiso   1.00
C33    C     0.70304   0.52699   0.24453   0.00000  Uiso   1.00
C34    C     0.47301   0.24452   0.29696   0.00000  Uiso   1.00
C35    C     0.61004   0.75000   0.25000   0.00000  Uiso   1.00
C36    C     0.52699   0.75547   0.70304   0.00000  Uiso   1.00
C37    C     0.47301   0.75547   0.29696   0.00000  Uiso   1.00
C38    C     0.52699   0.24453   0.70304   0.00000  Uiso   1.00
C39    C     0.47301   0.75547   0.70304   0.00000  Uiso   1.00
C40    C     0.52699   0.24452   0.29696   0.00000  Uiso   1.00
C41    C     0.47301   0.24453   0.70304   0.00000  Uiso   1.00
C42    C     0.52699   0.75547   0.29696   0.00000  Uiso   1.00
C43    C     0.24453   0.70304   0.52699   0.00000  Uiso   1.00
C44    C     0.75547   0.29696   0.47301   0.00000  Uiso   1.00
C45    C     0.75547   0.70304   0.52699   0.00000  Uiso   1.00
C46    C     0.38996   0.25000   0.75000   0.00000  Uiso   1.00
C47    C     0.24453   0.29696   0.47301   0.00000  Uiso   1.00
C48    C     0.75547   0.29696   0.52699   0.00000  Uiso   1.00
C49    C     0.24453   0.70304   0.47301   0.00000  Uiso   1.00
C50    C     0.24453   0.29696   0.52699   0.00000  Uiso   1.00
C51    C     0.75547   0.70304   0.47301   0.00000  Uiso   1.00
C52    C     0.25000   0.55384   0.25000   0.00000  Uiso   1.00
C53    C     0.75000   0.44616   0.75000   0.00000  Uiso   1.00
C54    C     0.25000   0.55384   0.75000   0.00000  Uiso   1.00
C55    C     0.75000   0.44616   0.25000   0.00000  Uiso   1.00
C56    C     0.75000   0.55384   0.75000   0.00000  Uiso   1.00
C57    C     0.75000   0.75000   0.61004   0.00000  Uiso   1.00
C58    C     0.25000   0.44616   0.25000   0.00000  Uiso   1.00
C59    C     0.75000   0.55384   0.25000   0.00000  Uiso   1.00
C60    C     0.25000   0.44616   0.75000   0.00000  Uiso   1.00
C61    C     0.55384   0.75000   0.75000   0.00000  Uiso   1.00
C62    C     0.44616   0.25000   0.25000   0.00000  Uiso   1.00
C63    C     0.55384   0.25000   0.75000   0.00000  Uiso   1.00
C64    C     0.44616   0.75000   0.25000   0.00000  Uiso   1.00
C65    C     0.55384   0.25000   0.25000   0.00000  Uiso   1.00
C66    C     0.44616   0.75000   0.75000   0.00000  Uiso   1.00
C67    C     0.55384   0.75000   0.25000   0.00000  Uiso   1.00
C68    C     0.25000   0.25000   0.38996   0.00000  Uiso   1.00
C69    C     0.44616   0.25000   0.75000   0.00000  Uiso   1.00
C70    C     0.75000   0.25000   0.44616   0.00000  Uiso   1.00
C71    C     0.25000   0.75000   0.55384   0.00000  Uiso   1.00
C72    C     0.25000   0.25000   0.44616   0.00000  Uiso   1.00
C73    C     0.75000   0.75000   0.55384   0.00000  Uiso   1.00
C74    C     0.25000   0.75000   0.44616   0.00000  Uiso   1.00
C75    C     0.75000   0.25000   0.55384   0.00000  Uiso   1.00
C76    C     0.75000   0.75000   0.44616   0.00000  Uiso   1.00
C77    C     0.25000   0.25000   0.55384   0.00000  Uiso   1.00
C78    C     0.75000   0.05384   0.25000   0.00000  Uiso   1.00
C79    C     0.25000   0.38996   0.75000   0.00000  Uiso   1.00
C80    C     0.25000   0.94616   0.75000   0.00000  Uiso   1.00
C81    C     0.25000   0.05384   0.25000   0.00000  Uiso   1.00
C82    C     0.75000   0.94616   0.75000   0.00000  Uiso   1.00
C83    C     0.25000   0.05384   0.75000   0.00000  Uiso   1.00
C84    C     0.75000   0.94616   0.25000   0.00000  Uiso   1.00
C85    C     0.75000   0.05384   0.75000   0.00000  Uiso   1.00
C86    C     0.25000   0.94616   0.25000   0.00000  Uiso   1.00
C87    C     0.05384   0.75000   0.25000   0.00000  Uiso   1.00
C88    C     0.94616   0.25000   0.75000   0.00000  Uiso   1.00
C89    C     0.05384   0.75000   0.75000   0.00000  Uiso   1.00
C90    C     0.75000   0.61004   0.25000   0.00000  Uiso   1.00
C91    C     0.94616   0.25000   0.25000   0.00000  Uiso   1.00
C92    C     0.05384   0.25000   0.75000   0.00000  Uiso   1.00
C93    C     0.94616   0.75000   0.25000   0.00000  Uiso   1.00
C94    C     0.05384   0.25000   0.25000   0.00000  Uiso   1.00
C95    C     0.94616   0.75000   0.75000   0.00000  Uiso   1.00
C96    C     0.75000   0.75000   0.94616   0.00000  Uiso   1.00
C97    C     0.25000   0.25000   0.05384   0.00000  Uiso   1.00
C98    C     0.75000   0.25000   0.94616   0.00000  Uiso   1.00
C99    C     0.25000   0.75000   0.05384   0.00000  Uiso   1.00
C100   C     0.25000   0.25000   0.94616   0.00000  Uiso   1.00
C101   C     0.25000   0.61004   0.25000   0.00000  Uiso   1.00
C102   C     0.75000   0.75000   0.05384   0.00000  Uiso   1.00
C103   C     0.25000   0.75000   0.94616   0.00000  Uiso   1.00
C104   C     0.75000   0.25000   0.05384   0.00000  Uiso   1.00
C105   C     0.15499   0.44519   0.26291   0.00000  Uiso   1.00
C106   C     0.84501   0.55481   0.73709   0.00000  Uiso   1.00
C107   C     0.15499   0.44519   0.73709   0.00000  Uiso   1.00
C108   C     0.84501   0.55481   0.26291   0.00000  Uiso   1.00
C109   C     0.84501   0.44519   0.73709   0.00000  Uiso   1.00
C110   C     0.15499   0.55481   0.26291   0.00000  Uiso   1.00
C111   C     0.84501   0.44519   0.26291   0.00000  Uiso   1.00
C112   C     0.61004   0.75000   0.75000   0.00000  Uiso   1.00
C113   C     0.75000   0.38996   0.75000   0.00000  Uiso   1.00
C114   C     0.15499   0.55481   0.73709   0.00000  Uiso   1.00
C115   C     0.44519   0.73709   0.84501   0.00000  Uiso   1.00
C116   C     0.55481   0.26292   0.15499   0.00000  Uiso   1.00
C117   C     0.44519   0.26292   0.84501   0.00000  Uiso   1.00
C118   C     0.55481   0.73709   0.15499   0.00000  Uiso   1.00
C119   C     0.44519   0.26292   0.15499   0.00000  Uiso   1.00
C120   C     0.55481   0.73709   0.84501   0.00000  Uiso   1.00
C121   C     0.44519   0.73709   0.15499   0.00000  Uiso   1.00
C122   C     0.55481   0.26292   0.84501   0.00000  Uiso   1.00
C123   C     0.73709   0.15499   0.55481   0.00000  Uiso   1.00
C124   C     0.75000   0.61004   0.75000   0.00000  Uiso   1.00
C125   C     0.26291   0.84501   0.44519   0.00000  Uiso   1.00
C126   C     0.26291   0.15499   0.55481   0.00000  Uiso   1.00
C127   C     0.73709   0.84501   0.44519   0.00000  Uiso   1.00
C128   C     0.26291   0.84501   0.55481   0.00000  Uiso   1.00
C129   C     0.73709   0.15499   0.44519   0.00000  Uiso   1.00
C130   C     0.73709   0.84501   0.55481   0.00000  Uiso   1.00
C131   C     0.26291   0.15499   0.44519   0.00000  Uiso   1.00
C132   C     0.65499   0.94519   0.26292   0.00000  Uiso   1.00
C133   C     0.34501   0.05481   0.73709   0.00000  Uiso   1.00
C134   C     0.15499   0.94519   0.23709   0.00000  Uiso   1.00
C135   C     0.25000   0.38996   0.25000   0.00000  Uiso   1.00
C136   C     0.84501   0.05481   0.76291   0.00000  Uiso   1.00
C137   C     0.34501   0.94519   0.73709   0.00000  Uiso   1.00
C138   C     0.65499   0.05481   0.26292   0.00000  Uiso   1.00
C139   C     0.84501   0.94519   0.76291   0.00000  Uiso   1.00
C140   C     0.15499   0.05481   0.23709   0.00000  Uiso   1.00
C141   C     0.65499   0.05481   0.73709   0.00000  Uiso   1.00
C142   C     0.34501   0.94519   0.26291   0.00000  Uiso   1.00
C143   C     0.15499   0.05481   0.76291   0.00000  Uiso   1.00
C144   C     0.84501   0.94519   0.23708   0.00000  Uiso   1.00
C145   C     0.34501   0.05481   0.26291   0.00000  Uiso   1.00
C146   C     0.75000   0.38996   0.25000   0.00000  Uiso   1.00
C147   C     0.65499   0.94519   0.73709   0.00000  Uiso   1.00
C148   C     0.84501   0.05481   0.23708   0.00000  Uiso   1.00
C149   C     0.15499   0.94519   0.76291   0.00000  Uiso   1.00
C150   C     0.94519   0.73709   0.34501   0.00000  Uiso   1.00
C151   C     0.05481   0.26291   0.65499   0.00000  Uiso   1.00
C152   C     0.94519   0.76292   0.84501   0.00000  Uiso   1.00
C153   C     0.05481   0.23709   0.15499   0.00000  Uiso   1.00
C154   C     0.94519   0.26291   0.65499   0.00000  Uiso   1.00
C155   C     0.05481   0.73709   0.34501   0.00000  Uiso   1.00
C156   C     0.94519   0.23709   0.15499   0.00000  Uiso   1.00
C157   C     0.25000   0.61004   0.75000   0.00000  Uiso   1.00
C158   C     0.05481   0.76292   0.84501   0.00000  Uiso   1.00
C159   C     0.05481   0.26291   0.34501   0.00000  Uiso   1.00
C160   C     0.94519   0.73708   0.65499   0.00000  Uiso   1.00
C161   C     0.05481   0.23709   0.84501   0.00000  Uiso   1.00
C162   C     0.94519   0.76291   0.15499   0.00000  Uiso   1.00
C163   C     0.05481   0.73708   0.65499   0.00000  Uiso   1.00
C164   C     0.94519   0.26291   0.34501   0.00000  Uiso   1.00
C165   C     0.05481   0.76291   0.15499   0.00000  Uiso   1.00
C166   C     0.94519   0.23709   0.84501   0.00000  Uiso   1.00
C167   C     0.73709   0.65499   0.05481   0.00000  Uiso   1.00
C168   C     0.88996   0.75000   0.25000   0.00000  Uiso   1.00
C169   C     0.26292   0.34501   0.94519   0.00000  Uiso   1.00
C170   C     0.76292   0.15499   0.05481   0.00000  Uiso   1.00
C171   C     0.23710   0.84501   0.94519   0.00000  Uiso   1.00
C172   C     0.26292   0.34501   0.05481   0.00000  Uiso   1.00
C173   C     0.73709   0.65499   0.94519   0.00000  Uiso   1.00
C174   C     0.23710   0.84501   0.05481   0.00000  Uiso   1.00
C175   C     0.76292   0.15499   0.94519   0.00000  Uiso   1.00
C176   C     0.26290   0.65499   0.94519   0.00000  Uiso   1.00
C177   C     0.73708   0.34501   0.05481   0.00000  Uiso   1.00
C178   C     0.23708   0.15499   0.94519   0.00000  Uiso   1.00
C179   C     0.11004   0.25000   0.75000   0.00000  Uiso   1.00
C180   C     0.76292   0.84501   0.05481   0.00000  Uiso   1.00
C181   C     0.73708   0.34501   0.94519   0.00000  Uiso   1.00
C182   C     0.26290   0.65499   0.05481   0.00000  Uiso   1.00
C183   C     0.76291   0.84501   0.94519   0.00000  Uiso   1.00
C184   C     0.23708   0.15499   0.05481   0.00000  Uiso   1.00
C185   C     0.65499   0.44519   0.76291   0.00000  Uiso   1.00
C186   C     0.34501   0.55481   0.23709   0.00000  Uiso   1.00
C187   C     0.65499   0.44519   0.23709   0.00000  Uiso   1.00
C188   C     0.34501   0.55481   0.76291   0.00000  Uiso   1.00
C189   C     0.34501   0.44519   0.23709   0.00000  Uiso   1.00
C190   C     0.25000   0.75000   0.11004   0.00000  Uiso   1.00
C191   C     0.65499   0.55481   0.76291   0.00000  Uiso   1.00
C192   C     0.34501   0.44519   0.76291   0.00000  Uiso   1.00
C193   C     0.65499   0.55481   0.23709   0.00000  Uiso   1.00
C194   C     0.44519   0.23708   0.34501   0.00000  Uiso   1.00
C195   C     0.55481   0.76291   0.65499   0.00000  Uiso   1.00
C196   C     0.44519   0.76291   0.34501   0.00000  Uiso   1.00
C197   C     0.55481   0.23708   0.65499   0.00000  Uiso   1.00
C198   C     0.44519   0.76291   0.65499   0.00000  Uiso   1.00
C199   C     0.55481   0.23708   0.34501   0.00000  Uiso   1.00
C200   C     0.44519   0.23708   0.65499   0.00000  Uiso   1.00
C201   C     0.75000   0.25000   0.88996   0.00000  Uiso   1.00
C202   C     0.55481   0.76291   0.34501   0.00000  Uiso   1.00
C203   C     0.23709   0.65499   0.55481   0.00000  Uiso   1.00
C204   C     0.76291   0.34501   0.44519   0.00000  Uiso   1.00
C205   C     0.76291   0.65499   0.55481   0.00000  Uiso   1.00
C206   C     0.23709   0.34501   0.44519   0.00000  Uiso   1.00
C207   C     0.76291   0.34501   0.55481   0.00000  Uiso   1.00
C208   C     0.23709   0.65499   0.44519   0.00000  Uiso   1.00
C209   C     0.23709   0.34501   0.55481   0.00000  Uiso   1.00
C210   C     0.76291   0.65499   0.44519   0.00000  Uiso   1.00
C211   C     0.11004   0.75000   0.75000   0.00000  Uiso   1.00
C212   C     0.25000   0.25000   0.61004   0.00000  Uiso   1.00
C213   C     0.88996   0.25000   0.25000   0.00000  Uiso   1.00
C214   C     0.75000   0.75000   0.88996   0.00000  Uiso   1.00
C215   C     0.25000   0.25000   0.11004   0.00000  Uiso   1.00
C216   C     0.88996   0.25000   0.75000   0.00000  Uiso   1.00
C217   C     0.11004   0.75000   0.25000   0.00000  Uiso   1.00
C218   C     0.25000   0.25000   0.88996   0.00000  Uiso   1.00
C219   C     0.75000   0.75000   0.11004   0.00000  Uiso   1.00
C220   C     0.11004   0.25000   0.25000   0.00000  Uiso   1.00
C221   C     0.88996   0.75000   0.75000   0.00000  Uiso   1.00
C222   C     0.75000   0.25000   0.11004   0.00000  Uiso   1.00
C223   C     0.75000   0.75000   0.38996   0.00000  Uiso   1.00
C224   C     0.25000   0.75000   0.88996   0.00000  Uiso   1.00
C225   C     0.75000   0.88996   0.75000   0.00000  Uiso   1.00
C226   C     0.25000   0.11004   0.25000   0.00000  Uiso   1.00
C227   C     0.75000   0.11004   0.25000   0.00000  Uiso   1.00
C228   C     0.25000   0.88996   0.75000   0.00000  Uiso   1.00
C229   C     0.25000   0.11004   0.75000   0.00000  Uiso   1.00
C230   C     0.75000   0.88996   0.25000   0.00000  Uiso   1.00
C231   C     0.25000   0.88996   0.25000   0.00000  Uiso   1.00
C232   C     0.75000   0.11004   0.75000   0.00000  Uiso   1.00
C233   C     0.20304   0.47301   0.25547   0.00000  Uiso   1.00
C234   C     0.61004   0.25000   0.75000   0.00000  Uiso   1.00
C235   C     0.79696   0.52699   0.74453   0.00000  Uiso   1.00
C236   C     0.20304   0.47301   0.74453   0.00000  Uiso   1.00
C237   C     0.79696   0.52699   0.25547   0.00000  Uiso   1.00
C238   C     0.79696   0.47301   0.74453   0.00000  Uiso   1.00
C239   C     0.20304   0.52699   0.25547   0.00000  Uiso   1.00
C240   C     0.79696   0.47301   0.25547   0.00000  Uiso   1.00
C241   C     0.20304   0.52699   0.74453   0.00000  Uiso   1.00
C242   C     0.47301   0.74453   0.79696   0.00000  Uiso   1.00
C243   C     0.52699   0.25548   0.20304   0.00000  Uiso   1.00
C244   C     0.47301   0.25548   0.79696   0.00000  Uiso   1.00
C245   C     0.38996   0.75000   0.25000   0.00000  Uiso   1.00
C246   C     0.52699   0.74453   0.20304   0.00000  Uiso   1.00
C247   C     0.47301   0.25548   0.20304   0.00000  Uiso   1.00
C248   C     0.52699   0.74453   0.79696   0.00000  Uiso   1.00
C249   C     0.47301   0.74453   0.20304   0.00000  Uiso   1.00
C250   C     0.52699   0.25548   0.79696   0.00000  Uiso   1.00
C251   C     0.74453   0.20304   0.52699   0.00000  Uiso   1.00
C252   C     0.25547   0.79696   0.47301   0.00000  Uiso   1.00
C253   C     0.25547   0.20304   0.52699   0.00000  Uiso   1.00
C254   C     0.74453   0.79696   0.47301   0.00000  Uiso   1.00
C255   C     0.25547   0.79696   0.52699   0.00000  Uiso   1.00
C256   C     0.75000   0.25000   0.38996   0.00000  Uiso   1.00
C257   C     0.74453   0.20304   0.47301   0.00000  Uiso   1.00
C258   C     0.74453   0.79696   0.52699   0.00000  Uiso   1.00
C259   C     0.25547   0.20304   0.47301   0.00000  Uiso   1.00
C260   C     0.70304   0.97301   0.25548   0.00000  Uiso   1.00
C261   C     0.29696   0.02699   0.74453   0.00000  Uiso   1.00
C262   C     0.20304   0.97301   0.24453   0.00000  Uiso   1.00
C263   C     0.79696   0.02699   0.75547   0.00000  Uiso   1.00
C264   C     0.29696   0.97301   0.74453   0.00000  Uiso   1.00
C265   C     0.70304   0.02699   0.25548   0.00000  Uiso   1.00
C266   C     0.79696   0.97301   0.75547   0.00000  Uiso   1.00
C267   C     0.25000   0.75000   0.61004   0.00000  Uiso   1.00
C268   C     0.20304   0.02699   0.24453   0.00000  Uiso   1.00
C269   C     0.70304   0.02699   0.74453   0.00000  Uiso   1.00
C270   C     0.29696   0.97301   0.25547   0.00000  Uiso   1.00
C271   C     0.20304   0.02699   0.75547   0.00000  Uiso   1.00
C272   C     0.79696   0.97301   0.24453   0.00000  Uiso   1.00
C273   C     0.29696   0.02699   0.25547   0.00000  Uiso   1.00
C274   C     0.70304   0.97301   0.74453   0.00000  Uiso   1.00
C275   C     0.79696   0.02699   0.24453   0.00000  Uiso   1.00
C276   C     0.20304   0.97301   0.75547   0.00000  Uiso   1.00
C277   C     0.97301   0.74453   0.29696   0.00000  Uiso   1.00
C278   C     0.38996   0.75000   0.75000   0.00000  Uiso   1.00
C279   C     0.02699   0.25547   0.70304   0.00000  Uiso   1.00
C280   C     0.97301   0.75548   0.79696   0.00000  Uiso   1.00
C281   C     0.02699   0.24453   0.20304   0.00000  Uiso   1.00
C282   C     0.97301   0.25547   0.70304   0.00000  Uiso   1.00
C283   C     0.02699   0.74453   0.29696   0.00000  Uiso   1.00
C284   C     0.97301   0.24453   0.20304   0.00000  Uiso   1.00
C285   C     0.02699   0.75548   0.79696   0.00000  Uiso   1.00
C286   C     0.02699   0.25547   0.29696   0.00000  Uiso   1.00
C287   C     0.97301   0.74452   0.70304   0.00000  Uiso   1.00
C288   C     0.02699   0.24453   0.79696   0.00000  Uiso   1.00
N1     N     0.11673   0.42300   0.26885   0.00000  Uiso   1.00
N2     N     0.57700   0.26887   0.11674   0.00000  Uiso   1.00
N3     N     0.42300   0.26886   0.88327   0.00000  Uiso   1.00
N4     N     0.57700   0.73115   0.11673   0.00000  Uiso   1.00
N5     N     0.42300   0.26887   0.11674   0.00000  Uiso   1.00
N6     N     0.57700   0.73115   0.88327   0.00000  Uiso   1.00
N7     N     0.42300   0.73115   0.11673   0.00000  Uiso   1.00
N8     N     0.57700   0.26886   0.88327   0.00000  Uiso   1.00
N9     N     0.73115   0.11673   0.57700   0.00000  Uiso   1.00
N10    N     0.26885   0.88327   0.42300   0.00000  Uiso   1.00
N11    N     0.26885   0.11673   0.57700   0.00000  Uiso   1.00
N12    N     0.88327   0.57700   0.73115   0.00000  Uiso   1.00
N13    N     0.73115   0.88327   0.42300   0.00000  Uiso   1.00
N14    N     0.26885   0.88327   0.57700   0.00000  Uiso   1.00
N15    N     0.73115   0.11673   0.42300   0.00000  Uiso   1.00
N16    N     0.73115   0.88327   0.57700   0.00000  Uiso   1.00
N17    N     0.26885   0.11673   0.42300   0.00000  Uiso   1.00
N18    N     0.61674   0.92300   0.26886   0.00000  Uiso   1.00
N19    N     0.38327   0.07700   0.73115   0.00000  Uiso   1.00
N20    N     0.11673   0.92300   0.23115   0.00000  Uiso   1.00
N21    N     0.88327   0.07700   0.76885   0.00000  Uiso   1.00
N22    N     0.38327   0.92300   0.73115   0.00000  Uiso   1.00
N23    N     0.11673   0.42300   0.73115   0.00000  Uiso   1.00
N24    N     0.61674   0.07700   0.26886   0.00000  Uiso   1.00
N25    N     0.88327   0.92300   0.76885   0.00000  Uiso   1.00
N26    N     0.11673   0.07700   0.23115   0.00000  Uiso   1.00
N27    N     0.61673   0.07700   0.73115   0.00000  Uiso   1.00
N28    N     0.38327   0.92300   0.26885   0.00000  Uiso   1.00
N29    N     0.11673   0.07700   0.76885   0.00000  Uiso   1.00
N30    N     0.88327   0.92300   0.23114   0.00000  Uiso   1.00
N31    N     0.38327   0.07700   0.26885   0.00000  Uiso   1.00
N32    N     0.61673   0.92300   0.73115   0.00000  Uiso   1.00
N33    N     0.88327   0.07700   0.23114   0.00000  Uiso   1.00
N34    N     0.88327   0.57700   0.26885   0.00000  Uiso   1.00
N35    N     0.11673   0.92300   0.76885   0.00000  Uiso   1.00
N36    N     0.92300   0.73115   0.38327   0.00000  Uiso   1.00
N37    N     0.07700   0.26885   0.61673   0.00000  Uiso   1.00
N38    N     0.92300   0.76886   0.88327   0.00000  Uiso   1.00
N39    N     0.07700   0.23115   0.11673   0.00000  Uiso   1.00
N40    N     0.92300   0.26885   0.61673   0.00000  Uiso   1.00
N41    N     0.07700   0.73115   0.38327   0.00000  Uiso   1.00
N42    N     0.92300   0.23115   0.11673   0.00000  Uiso   1.00
N43    N     0.07700   0.76886   0.88327   0.00000  Uiso   1.00
N44    N     0.07700   0.26885   0.38327   0.00000  Uiso   1.00
N45    N     0.88327   0.42300   0.73115   0.00000  Uiso   1.00
N46    N     0.92300   0.73114   0.61674   0.00000  Uiso   1.00
N47    N     0.07700   0.23115   0.88327   0.00000  Uiso   1.00
N48    N     0.92300   0.76885   0.11673   0.00000  Uiso   1.00
N49    N     0.07700   0.73114   0.61674   0.00000  Uiso   1.00
N50    N     0.92300   0.26885   0.38327   0.00000  Uiso   1.00
N51    N     0.07700   0.76885   0.11673   0.00000  Uiso   1.00
N52    N     0.92300   0.23115   0.88327   0.00000  Uiso   1.00
N53    N     0.73114   0.61674   0.07700   0.00000  Uiso   1.00
N54    N     0.26886   0.38326   0.92300   0.00000  Uiso   1.00
N55    N     0.76887   0.11674   0.07700   0.00000  Uiso   1.00
N56    N     0.11673   0.57700   0.26885   0.00000  Uiso   1.00
N57    N     0.23117   0.88327   0.92300   0.00000  Uiso   1.00
N58    N     0.26886   0.38326   0.07700   0.00000  Uiso   1.00
N59    N     0.73115   0.61674   0.92300   0.00000  Uiso   1.00
N60    N     0.23117   0.88327   0.07700   0.00000  Uiso   1.00
N61    N     0.76887   0.11674   0.92300   0.00000  Uiso   1.00
N62    N     0.26884   0.61673   0.92300   0.00000  Uiso   1.00
N63    N     0.73114   0.38326   0.07700   0.00000  Uiso   1.00
N64    N     0.23114   0.11674   0.92300   0.00000  Uiso   1.00
N65    N     0.76886   0.88327   0.07700   0.00000  Uiso   1.00
N66    N     0.73114   0.38326   0.92300   0.00000  Uiso   1.00
N67    N     0.88327   0.42300   0.26885   0.00000  Uiso   1.00
N68    N     0.26883   0.61673   0.07700   0.00000  Uiso   1.00
N69    N     0.76886   0.88327   0.92300   0.00000  Uiso   1.00
N70    N     0.23114   0.11674   0.07700   0.00000  Uiso   1.00
N71    N     0.61673   0.42300   0.76885   0.00000  Uiso   1.00
N72    N     0.38327   0.57700   0.23115   0.00000  Uiso   1.00
N73    N     0.61673   0.42300   0.23115   0.00000  Uiso   1.00
N74    N     0.38327   0.57700   0.76885   0.00000  Uiso   1.00
N75    N     0.38327   0.42300   0.23115   0.00000  Uiso   1.00
N76    N     0.61673   0.57700   0.76885   0.00000  Uiso   1.00
N77    N     0.38327   0.42300   0.76885   0.00000  Uiso   1.00
N78    N     0.11673   0.57700   0.73115   0.00000  Uiso   1.00
N79    N     0.61673   0.57700   0.23115   0.00000  Uiso   1.00
N80    N     0.42300   0.23113   0.38326   0.00000  Uiso   1.00
N81    N     0.57700   0.76885   0.61673   0.00000  Uiso   1.00
N82    N     0.42300   0.76885   0.38327   0.00000  Uiso   1.00
N83    N     0.57700   0.23114   0.61673   0.00000  Uiso   1.00
N84    N     0.42300   0.76885   0.61673   0.00000  Uiso   1.00
N85    N     0.57700   0.23114   0.38326   0.00000  Uiso   1.00
N86    N     0.42300   0.23114   0.61673   0.00000  Uiso   1.00
N87    N     0.57700   0.76885   0.38327   0.00000  Uiso   1.00
N88    N     0.23115   0.61673   0.57700   0.00000  Uiso   1.00
N89    N     0.42300   0.73115   0.88327   0.00000  Uiso   1.00
N90    N     0.76885   0.38327   0.42300   0.00000  Uiso   1.00
N91    N     0.76885   0.61673   0.57700   0.00000  Uiso   1.00
N92    N     0.23115   0.38327   0.42300   0.00000  Uiso   1.00
N93    N     0.76885   0.38327   0.57700   0.00000  Uiso   1.00
N94    N     0.23115   0.61673   0.42300   0.00000  Uiso   1.00
N95    N     0.23115   0.38327   0.57700   0.00000  Uiso   1.00
N96    N     0.76885   0.61673   0.42300   0.00000  Uiso   1.00
O1     O     0.25000   0.25000   0.25000   0.00000  Uiso   1.00
O2     O     0.63420   0.71971   0.71971   0.00000  Uiso   1.00
O3     O     0.21971   0.36580   0.21971   0.00000  Uiso   1.00
O4     O     0.21971   0.63420   0.21971   0.00000  Uiso   1.00
O5     O     0.78029   0.36580   0.78029   0.00000  Uiso   1.00
O6     O     0.21971   0.36580   0.78029   0.00000  Uiso   1.00
O7     O     0.78029   0.63420   0.21971   0.00000  Uiso   1.00
O8     O     0.28029   0.28029   0.63420   0.00000  Uiso   1.00
O9     O     0.71971   0.71971   0.36580   0.00000  Uiso   1.00
O10    O     0.63420   0.28029   0.71971   0.00000  Uiso   1.00
O11    O     0.36580   0.71971   0.28029   0.00000  Uiso   1.00
O12    O     0.71971   0.28029   0.36580   0.00000  Uiso   1.00
O13    O     0.28029   0.71971   0.63420   0.00000  Uiso   1.00
O14    O     0.36580   0.71971   0.71971   0.00000  Uiso   1.00
O15    O     0.63420   0.28029   0.28029   0.00000  Uiso   1.00
O16    O     0.28029   0.71971   0.36580   0.00000  Uiso   1.00
O17    O     0.75000   0.75000   0.75000   0.00000  Uiso   1.00
O18    O     0.71971   0.28029   0.63420   0.00000  Uiso   1.00
O19    O     0.63420   0.71971   0.28029   0.00000  Uiso   1.00
O20    O     0.36580   0.28029   0.71971   0.00000  Uiso   1.00
O21    O     0.71971   0.71971   0.63420   0.00000  Uiso   1.00
O22    O     0.28029   0.28029   0.36580   0.00000  Uiso   1.00
O23    O     0.28029   0.36580   0.71971   0.00000  Uiso   1.00
O24    O     0.71971   0.63420   0.28029   0.00000  Uiso   1.00
O25    O     0.28029   0.63420   0.28029   0.00000  Uiso   1.00
O26    O     0.71971   0.36580   0.71971   0.00000  Uiso   1.00
O27    O     0.71971   0.63420   0.71971   0.00000  Uiso   1.00
O28    O     0.25000   0.25000   0.75000   0.00000  Uiso   1.00
O29    O     0.28029   0.36580   0.28029   0.00000  Uiso   1.00
O30    O     0.71971   0.36580   0.28029   0.00000  Uiso   1.00
O31    O     0.28029   0.63420   0.71971   0.00000  Uiso   1.00
O32    O     0.86580   0.78029   0.28029   0.00000  Uiso   1.00
O33    O     0.13420   0.21971   0.71971   0.00000  Uiso   1.00
O34    O     0.28029   0.78029   0.13420   0.00000  Uiso   1.00
O35    O     0.71971   0.21971   0.86580   0.00000  Uiso   1.00
O36    O     0.13420   0.78029   0.71971   0.00000  Uiso   1.00
O37    O     0.86580   0.21971   0.28029   0.00000  Uiso   1.00
O38    O     0.71971   0.78029   0.86580   0.00000  Uiso   1.00
O39    O     0.75000   0.75000   0.25000   0.00000  Uiso   1.00
O40    O     0.28029   0.21971   0.13420   0.00000  Uiso   1.00
O41    O     0.86580   0.21971   0.71971   0.00000  Uiso   1.00
O42    O     0.13420   0.78029   0.28029   0.00000  Uiso   1.00
O43    O     0.28029   0.21971   0.86580   0.00000  Uiso   1.00
O44    O     0.71971   0.78029   0.13420   0.00000  Uiso   1.00
O45    O     0.13420   0.21971   0.28029   0.00000  Uiso   1.00
O46    O     0.86580   0.78029   0.71971   0.00000  Uiso   1.00
O47    O     0.71971   0.21971   0.13420   0.00000  Uiso   1.00
O48    O     0.28029   0.78029   0.86580   0.00000  Uiso   1.00
O49    O     0.78029   0.71971   0.13420   0.00000  Uiso   1.00
O50    O     0.75000   0.25000   0.75000   0.00000  Uiso   1.00
O51    O     0.21971   0.28029   0.86580   0.00000  Uiso   1.00
O52    O     0.78029   0.86580   0.71971   0.00000  Uiso   1.00
O53    O     0.21971   0.13420   0.28029   0.00000  Uiso   1.00
O54    O     0.78029   0.28029   0.86580   0.00000  Uiso   1.00
O55    O     0.21971   0.71971   0.13420   0.00000  Uiso   1.00
O56    O     0.78029   0.13420   0.28029   0.00000  Uiso   1.00
O57    O     0.21971   0.86580   0.71971   0.00000  Uiso   1.00
O58    O     0.21971   0.28029   0.13420   0.00000  Uiso   1.00
O59    O     0.78029   0.71971   0.86580   0.00000  Uiso   1.00
O60    O     0.21971   0.13420   0.71971   0.00000  Uiso   1.00
O61    O     0.25000   0.75000   0.25000   0.00000  Uiso   1.00
O62    O     0.78029   0.86580   0.28029   0.00000  Uiso   1.00
O63    O     0.21971   0.71971   0.86580   0.00000  Uiso   1.00
O64    O     0.78029   0.28029   0.13420   0.00000  Uiso   1.00
O65    O     0.21971   0.86580   0.28029   0.00000  Uiso   1.00
O66    O     0.78029   0.13420   0.71971   0.00000  Uiso   1.00
O67    O     0.71971   0.86580   0.21971   0.00000  Uiso   1.00
O68    O     0.28029   0.13420   0.78029   0.00000  Uiso   1.00
O69    O     0.86580   0.28029   0.21971   0.00000  Uiso   1.00
O70    O     0.13420   0.71971   0.78029   0.00000  Uiso   1.00
O71    O     0.28029   0.13420   0.21971   0.00000  Uiso   1.00
O72    O     0.75000   0.25000   0.25000   0.00000  Uiso   1.00
O73    O     0.71971   0.86580   0.78029   0.00000  Uiso   1.00
O74    O     0.13420   0.71971   0.21971   0.00000  Uiso   1.00
O75    O     0.86580   0.28029   0.78029   0.00000  Uiso   1.00
O76    O     0.28029   0.86580   0.78029   0.00000  Uiso   1.00
O77    O     0.71971   0.13420   0.21971   0.00000  Uiso   1.00
O78    O     0.13420   0.28029   0.78029   0.00000  Uiso   1.00
O79    O     0.86580   0.71971   0.21971   0.00000  Uiso   1.00
O80    O     0.71971   0.13420   0.78029   0.00000  Uiso   1.00
O81    O     0.28029   0.86580   0.21971   0.00000  Uiso   1.00
O82    O     0.86580   0.71971   0.78029   0.00000  Uiso   1.00
O83    O     0.25000   0.75000   0.75000   0.00000  Uiso   1.00
O84    O     0.13420   0.28029   0.21971   0.00000  Uiso   1.00
O85    O     0.36580   0.78029   0.78029   0.00000  Uiso   1.00
O86    O     0.63420   0.21971   0.21971   0.00000  Uiso   1.00
O87    O     0.78029   0.78029   0.63420   0.00000  Uiso   1.00
O88    O     0.21971   0.21971   0.36580   0.00000  Uiso   1.00
O89    O     0.63420   0.78029   0.21971   0.00000  Uiso   1.00
O90    O     0.36580   0.21971   0.78029   0.00000  Uiso   1.00
O91    O     0.21971   0.78029   0.36580   0.00000  Uiso   1.00
O92    O     0.78029   0.21971   0.63420   0.00000  Uiso   1.00
O93    O     0.36580   0.21971   0.21971   0.00000  Uiso   1.00
O94    O     0.36580   0.28029   0.28029   0.00000  Uiso   1.00
O95    O     0.63420   0.78029   0.78029   0.00000  Uiso   1.00
O96    O     0.78029   0.21971   0.36580   0.00000  Uiso   1.00
O97    O     0.21971   0.78029   0.63420   0.00000  Uiso   1.00
O98    O     0.63420   0.21971   0.78029   0.00000  Uiso   1.00
O99    O     0.36580   0.78029   0.21971   0.00000  Uiso   1.00
O100   O     0.21971   0.21971   0.63420   0.00000  Uiso   1.00
O101   O     0.78029   0.78029   0.36580   0.00000  Uiso   1.00
O102   O     0.78029   0.36580   0.21971   0.00000  Uiso   1.00
O103   O     0.21971   0.63420   0.78029   0.00000  Uiso   1.00
O104   O     0.78029   0.63420   0.78029   0.00000  Uiso   1.00
Zn1    Zn    0.20660   0.29340   0.20660   0.00000  Uiso   1.00
Zn2    Zn    0.70660   0.20660   0.20660   0.00000  Uiso   1.00
Zn3    Zn    0.29340   0.20660   0.79340   0.00000  Uiso   1.00
Zn4    Zn    0.70660   0.79340   0.20660   0.00000  Uiso   1.00
Zn5    Zn    0.29340   0.20660   0.20660   0.00000  Uiso   1.00
Zn6    Zn    0.70660   0.79340   0.79340   0.00000  Uiso   1.00
Zn7    Zn    0.29340   0.79340   0.20660   0.00000  Uiso   1.00
Zn8    Zn    0.70660   0.20660   0.79340   0.00000  Uiso   1.00
Zn9    Zn    0.79340   0.20660   0.70660   0.00000  Uiso   1.00
Zn10   Zn    0.20660   0.79340   0.29340   0.00000  Uiso   1.00
Zn11   Zn    0.20660   0.20660   0.70660   0.00000  Uiso   1.00
Zn12   Zn    0.79340   0.70660   0.79340   0.00000  Uiso   1.00
Zn13   Zn    0.79340   0.79340   0.29340   0.00000  Uiso   1.00
Zn14   Zn    0.20660   0.79340   0.70660   0.00000  Uiso   1.00
Zn15   Zn    0.79340   0.20660   0.29340   0.00000  Uiso   1.00
Zn16   Zn    0.79340   0.79340   0.70660   0.00000  Uiso   1.00
Zn17   Zn    0.20660   0.20660   0.29340   0.00000  Uiso   1.00
Zn18   Zn    0.70660   0.29340   0.70660   0.00000  Uiso   1.00
Zn19   Zn    0.29340   0.70660   0.29340   0.00000  Uiso   1.00
Zn20   Zn    0.70660   0.29340   0.29340   0.00000  Uiso   1.00
Zn21   Zn    0.29340   0.70660   0.70660   0.00000  Uiso   1.00
Zn22   Zn    0.29340   0.29340   0.29340   0.00000  Uiso   1.00
Zn23   Zn    0.20660   0.29340   0.79340   0.00000  Uiso   1.00
Zn24   Zn    0.70660   0.70660   0.70660   0.00000  Uiso   1.00
Zn25   Zn    0.29340   0.29340   0.70660   0.00000  Uiso   1.00
Zn26   Zn    0.70660   0.70660   0.29340   0.00000  Uiso   1.00
Zn27   Zn    0.79340   0.70660   0.20660   0.00000  Uiso   1.00
Zn28   Zn    0.79340   0.29340   0.79340   0.00000  Uiso   1.00
Zn29   Zn    0.20660   0.70660   0.20660   0.00000  Uiso   1.00
Zn30   Zn    0.79340   0.29340   0.20660   0.00000  Uiso   1.00
Zn31   Zn    0.20660   0.70660   0.79340   0.00000  Uiso   1.00
Zn32   Zn    0.29340   0.79340   0.79340   0.00000  Uiso   1.00
loop_
_geom_bond_atom_site_label_1
_geom_bond_atom_site_label_2
_geom_bond_distance
_geom_bond_site_symmetry_2
_ccdc_geom_bond_type
C1     C62     1.458   .     S
C1     O93     1.276   .     A
C1     O94     1.276   .     A
C2     C65     1.458   .     S
C2     O86     1.276   .     A
C2     O15     1.276   .     A
C3     C162    1.453   .     S
C3     C93     1.410   .     A
C3     C6      1.400   1_655 S
C4     C89     1.410   .     A
C4     C163    1.453   .     S
C4     C287    1.400   1_455 S
C5     C91     1.410   .     A
C5     C164    1.453   .     S
C5     C286    1.400   1_655 S
C6     C165    1.453   .     S
C6     C87     1.410   .     A
C6     C3      1.400   1_455 S
C7     C88     1.410   .     A
C7     C166    1.453   .     S
C7     C288    1.400   1_655 S
C8     C167    1.453   .     S
C8     C102    1.410   .     A
C8     C14     1.400   1_554 S
C9     C169    1.453   .     S
C9     C100    1.410   .     A
C9     C12     1.400   1_556 S
C10    C170    1.453   .     S
C10    C104    1.410   .     A
C10    C16     1.400   1_554 S
C11    C171    1.453   .     S
C11    C103    1.410   .     A
C11    C15     1.400   1_556 S
C12    C172    1.453   .     S
C12    C97     1.410   .     A
C12    C9      1.400   1_554 S
C13    O91     1.276   .     A
C13    C74     1.458   .     S
C13    O16     1.276   .     A
C14    C173    1.453   .     S
C14    C96     1.410   .     A
C14    C8      1.400   1_556 S
C15    C174    1.453   .     S
C15    C99     1.410   .     A
C15    C11     1.400   1_554 S
C16    C175    1.453   .     S
C16    C98     1.410   .     A
C16    C10     1.400   1_556 S
C17    C176    1.453   .     S
C17    C103    1.410   .     A
C17    C22     1.400   1_556 S
C18    C177    1.453   .     S
C18    C104    1.410   .     A
C18    C21     1.400   1_554 S
C19    C100    1.410   .     A
C19    C178    1.453   .     S
C19    C25     1.400   1_556 S
C20    C180    1.453   .     S
C20    C102    1.410   .     A
C20    C23     1.400   1_554 S
C21    C98     1.410   .     A
C21    C181    1.453   .     S
C21    C18     1.400   1_556 S
C22    C182    1.453   .     S
C22    C99     1.410   .     A
C22    C17     1.400   1_554 S
C23    C183    1.453   .     S
C23    C96     1.410   .     A
C23    C20     1.400   1_556 S
C24    O18     1.276   .     A
C24    O92     1.276   .     A
C24    C75     1.458   .     S
C25    C97     1.410   .     A
C25    C184    1.453   .     S
C25    C19     1.400   1_554 S
C26    C185    1.453   .     S
C26    C31     1.400   .     A
C26    C53     1.410   .     A
C27    C30     1.400   .     A
C27    C186    1.453   .     S
C27    C52     1.410   .     A
C28    C33     1.400   .     A
C28    C187    1.453   .     S
C28    C55     1.410   .     A
C29    C188    1.453   .     S
C29    C32     1.400   .     A
C29    C54     1.410   .     A
C30    C189    1.453   .     S
C30    C58     1.410   .     A
C31    C56     1.410   .     A
C31    C191    1.453   .     S
C32    C192    1.453   .     S
C32    C60     1.410   .     A
C33    C59     1.410   .     A
C33    C193    1.453   .     S
C34    C194    1.453   .     S
C34    C62     1.410   .     A
C34    C40     1.400   .     A
C35    O19     1.276   .     A
C35    C67     1.458   .     S
C35    O89     1.276   .     A
C36    C39     1.400   .     A
C36    C61     1.410   .     A
C36    C195    1.453   .     S
C37    C42     1.400   .     A
C37    C64     1.410   .     A
C37    C196    1.453   .     S
C38    C63     1.410   .     A
C38    C41     1.400   .     A
C38    C197    1.453   .     S
C39    C66     1.410   .     A
C39    C198    1.453   .     S
C40    C65     1.410   .     A
C40    C199    1.453   .     S
C41    C200    1.453   .     S
C41    C69     1.410   .     A
C42    C67     1.410   .     A
C42    C202    1.453   .     S
C43    C71     1.410   .     A
C43    C49     1.400   .     A
C43    C203    1.453   .     S
C44    C70     1.410   .     A
C44    C48     1.400   .     A
C44    C204    1.453   .     S
C45    C205    1.453   .     S
C45    C51     1.400   .     A
C45    C73     1.410   .     A
C46    O90     1.276   .     A
C46    O20     1.276   .     A
C46    C69     1.458   .     S
C47    C206    1.453   .     S
C47    C50     1.400   .     A
C47    C72     1.410   .     A
C48    C207    1.453   .     S
C48    C75     1.410   .     A
C49    C208    1.453   .     S
C49    C74     1.410   .     A
C50    C77     1.410   .     A
C50    C209    1.453   .     S
C51    C76     1.410   .     A
C51    C210    1.453   .     S
C52    C239    1.410   .     A
C52    C101    1.458   .     S
C53    C113    1.458   .     S
C53    C238    1.410   .     A
C54    C241    1.410   .     A
C54    C157    1.458   .     S
C55    C240    1.410   .     A
C55    C146    1.458   .     S
C56    C235    1.410   .     A
C56    C124    1.458   .     S
C57    O87     1.276   .     A
C57    C73     1.458   .     S
C57    O21     1.276   .     A
C58    C233    1.410   .     A
C58    C135    1.458   .     S
C59    C237    1.410   .     A
C59    C90     1.458   .     S
C60    C79     1.458   .     S
C60    C236    1.410   .     A
C61    C248    1.410   .     A
C61    C112    1.458   .     S
C62    C247    1.410   .     A
C63    C250    1.410   .     A
C63    C234    1.458   .     S
C64    C249    1.410   .     A
C64    C245    1.458   .     S
C65    C243    1.410   .     A
C66    C242    1.410   .     A
C66    C278    1.458   .     S
C67    C246    1.410   .     A
C68    O88     1.276   .     A
C68    C72     1.458   .     S
C68    O22     1.276   .     A
C69    C244    1.410   .     A
C70    C256    1.458   .     S
C70    C257    1.410   .     A
C71    C255    1.410   .     A
C71    C267    1.458   .     S
C72    C259    1.410   .     A
C73    C258    1.410   .     A
C74    C252    1.410   .     A
C75    C251    1.410   .     A
C76    C223    1.458   .     S
C76    C254    1.410   .     A
C77    C253    1.410   .     A
C77    C212    1.458   .     S
C78    C227    1.458   .     S
C78    C265    1.410   .     A
C78    C275    1.410   .     A
C79    O6      1.276   .     A
C79    O23     1.276   .     A
C80    C276    1.410   .     A
C80    C264    1.410   .     A
C80    C228    1.458   .     S
C81    C268    1.410   .     A
C81    C226    1.458   .     S
C81    C273    1.410   .     A
C82    C274    1.410   .     A
C82    C266    1.410   .     A
C82    C225    1.458   .     S
C83    C261    1.410   .     A
C83    C229    1.458   .     S
C83    C271    1.410   .     A
C84    C230    1.458   .     S
C84    C260    1.410   .     A
C84    C272    1.410   .     A
C85    C263    1.410   .     A
C85    C269    1.410   .     A
C85    C232    1.458   .     S
C86    C231    1.458   .     S
C86    C262    1.410   .     A
C86    C270    1.410   .     A
C87    C283    1.410   .     A
C87    C217    1.458   .     S
C88    C282    1.410   .     A
C88    C216    1.458   .     S
C89    C285    1.410   .     A
C89    C211    1.458   .     S
C90    O7      1.276   .     A
C90    O24     1.276   .     A
C91    C213    1.458   .     S
C91    C284    1.410   .     A
C92    C288    1.410   .     A
C92    C179    1.458   .     S
C92    C279    1.410   .     A
C93    C277    1.410   .     A
C93    C168    1.458   .     S
C94    C286    1.410   .     A
C94    C220    1.458   .     S
C94    C281    1.410   .     A
C95    C221    1.458   .     S
C95    C280    1.410   .     A
C95    C287    1.410   .     A
C96    C214    1.458   .     S
C97    C215    1.458   .     S
C98    C201    1.458   .     S
C99    C190    1.458   .     S
C100   C218    1.458   .     S
C101   O25     1.276   .     A
C101   O4      1.276   .     A
C102   C219    1.458   .     S
C103   C224    1.458   .     S
C104   C222    1.458   .     S
C105   N1      1.157   .     T
C105   C233    1.453   .     S
C106   C235    1.453   .     S
C106   N12     1.157   .     T
C107   N23     1.157   .     T
C107   C236    1.453   .     S
C108   C237    1.453   .     S
C108   N34     1.157   .     T
C109   C238    1.453   .     S
C109   N45     1.157   .     T
C110   N56     1.157   .     T
C110   C239    1.453   .     S
C111   N67     1.157   .     T
C111   C240    1.453   .     S
C112   O2      1.276   .     A
C112   O95     1.276   .     A
C113   O26     1.276   .     A
C113   O5      1.276   .     A
C114   N78     1.157   .     T
C114   C241    1.453   .     S
C115   N89     1.157   .     T
C115   C242    1.453   .     S
C116   N2      1.157   .     T
C116   C243    1.453   .     S
C117   N3      1.157   .     T
C117   C244    1.453   .     S
C118   C246    1.453   .     S
C118   N4      1.157   .     T
C119   C247    1.453   .     S
C119   N5      1.157   .     T
C120   N6      1.157   .     T
C120   C248    1.453   .     S
C121   N7      1.157   .     T
C121   C249    1.453   .     S
C122   C250    1.453   .     S
C122   N8      1.157   .     T
C123   N9      1.157   .     T
C123   C251    1.453   .     S
C124   O27     1.276   .     A
C124   O104    1.276   .     A
C125   N10     1.157   .     T
C125   C252    1.453   .     S
C126   N11     1.157   .     T
C126   C253    1.453   .     S
C127   C254    1.453   .     S
C127   N13     1.157   .     T
C128   C255    1.453   .     S
C128   N14     1.157   .     T
C129   C257    1.453   .     S
C129   N15     1.157   .     T
C130   C258    1.453   .     S
C130   N16     1.157   .     T
C131   N17     1.157   .     T
C131   C259    1.453   .     S
C132   C260    1.453   .     S
C132   N18     1.157   .     T
C133   C261    1.453   .     S
C133   N19     1.157   .     T
C134   N20     1.157   .     T
C134   C262    1.453   .     S
C135   O3      1.276   .     A
C135   O29     1.276   .     A
C136   N21     1.157   .     T
C136   C263    1.453   .     S
C137   C264    1.453   .     S
C137   N22     1.157   .     T
C138   C265    1.453   .     S
C138   N24     1.157   .     T
C139   N25     1.157   .     T
C139   C266    1.453   .     S
C140   C268    1.453   .     S
C140   N26     1.157   .     T
C141   N27     1.157   .     T
C141   C269    1.453   .     S
C142   C270    1.453   .     S
C142   N28     1.157   .     T
C143   N29     1.157   .     T
C143   C271    1.453   .     S
C144   C272    1.453   .     S
C144   N30     1.157   .     T
C145   N31     1.157   .     T
C145   C273    1.453   .     S
C146   O30     1.276   .     A
C146   O102    1.276   .     A
C147   N32     1.157   .     T
C147   C274    1.453   .     S
C148   C275    1.453   .     S
C148   N33     1.157   .     T
C149   C276    1.453   .     S
C149   N35     1.157   .     T
C150   N36     1.157   .     T
C150   C277    1.453   .     S
C151   C279    1.453   .     S
C151   N37     1.157   .     T
C152   C280    1.453   .     S
C152   N38     1.157   .     T
C153   C281    1.453   .     S
C153   N39     1.157   .     T
C154   C282    1.453   .     S
C154   N40     1.157   .     T
C155   N41     1.157   .     T
C155   C283    1.453   .     S
C156   N42     1.157   .     T
C156   C284    1.453   .     S
C157   O103    1.276   .     A
C157   O31     1.276   .     A
C158   C285    1.453   .     S
C158   N43     1.157   .     T
C159   N44     1.157   .     T
C159   C286    1.453   .     S
C160   N46     1.157   .     T
C160   C287    1.453   .     S
C161   N47     1.157   .     T
C161   C288    1.453   .     S
C162   N48     1.157   .     T
C163   N49     1.157   .     T
C164   N50     1.157   .     T
C165   N51     1.157   .     T
C166   N52     1.157   .     T
C167   N53     1.157   .     T
C168   O79     1.276   .     A
C168   O32     1.276   .     A
C169   N54     1.157   .     T
C170   N55     1.157   .     T
C171   N57     1.157   .     T
C172   N58     1.157   .     T
C173   N59     1.157   .     T
C174   N60     1.157   .     T
C175   N61     1.157   .     T
C176   N62     1.157   .     T
C177   N63     1.157   .     T
C178   N64     1.157   .     T
C179   O33     1.276   .     A
C179   O78     1.276   .     A
C180   N65     1.157   .     T
C181   N66     1.157   .     T
C182   N68     1.157   .     T
C183   N69     1.157   .     T
C184   N70     1.157   .     T
C185   N71     1.157   .     T
C186   N72     1.157   .     T
C187   N73     1.157   .     T
C188   N74     1.157   .     T
C189   N75     1.157   .     T
C190   O55     1.276   .     A
C190   O34     1.276   .     A
C191   N76     1.157   .     T
C192   N77     1.157   .     T
C193   N79     1.157   .     T
C194   N80     1.157   .     T
C195   N81     1.157   .     T
C196   N82     1.157   .     T
C197   N83     1.157   .     T
C198   N84     1.157   .     T
C199   N85     1.157   .     T
C200   N86     1.157   .     T
C201   O54     1.276   .     A
C201   O35     1.276   .     A
C202   N87     1.157   .     T
C203   N88     1.157   .     T
C204   N90     1.157   .     T
C205   N91     1.157   .     T
C206   N92     1.157   .     T
C207   N93     1.157   .     T
C208   N94     1.157   .     T
C209   N95     1.157   .     T
C210   N96     1.157   .     T
C211   O70     1.276   .     A
C211   O36     1.276   .     A
C212   O8      1.276   .     A
C212   O100    1.276   .     A
C213   O69     1.276   .     A
C213   O37     1.276   .     A
C214   O59     1.276   .     A
C214   O38     1.276   .     A
C215   O58     1.276   .     A
C215   O40     1.276   .     A
C216   O75     1.276   .     A
C216   O41     1.276   .     A
C217   O74     1.276   .     A
C217   O42     1.276   .     A
C218   O43     1.276   .     A
C218   O51     1.276   .     A
C219   O44     1.276   .     A
C219   O49     1.276   .     A
C220   O45     1.276   .     A
C220   O84     1.276   .     A
C221   O46     1.276   .     A
C221   O82     1.276   .     A
C222   O64     1.276   .     A
C222   O47     1.276   .     A
C223   O101    1.276   .     A
C223   O9      1.276   .     A
C224   O48     1.276   .     A
C224   O63     1.276   .     A
C225   O52     1.276   .     A
C225   O73     1.276   .     A
C226   O53     1.276   .     A
C226   O71     1.276   .     A
C227   O56     1.276   .     A
C227   O77     1.276   .     A
C228   O76     1.276   .     A
C228   O57     1.276   .     A
C229   O60     1.276   .     A
C229   O68     1.276   .     A
C230   O62     1.276   .     A
C230   O67     1.276   .     A
C231   O65     1.276   .     A
C231   O81     1.276   .     A
C232   O66     1.276   .     A
C232   O80     1.276   .     A
C233   C239    1.400   .     A
C234   O98     1.276   .     A
C234   O10     1.276   .     A
C235   C238    1.400   .     A
C236   C241    1.400   .     A
C237   C240    1.400   .     A
C242   C248    1.400   .     A
C243   C247    1.400   .     A
C244   C250    1.400   .     A
C245   O99     1.276   .     A
C245   O11     1.276   .     A
C246   C249    1.400   .     A
C251   C257    1.400   .     A
C252   C255    1.400   .     A
C253   C259    1.400   .     A
C254   C258    1.400   .     A
C256   O96     1.276   .     A
C256   O12     1.276   .     A
C260   C265    1.400   1_565 S
C261   C264    1.400   1_545 S
C262   C268    1.400   1_565 S
C263   C266    1.400   1_545 S
C264   C261    1.400   1_565 S
C265   C260    1.400   1_545 S
C266   C263    1.400   1_565 S
C267   O97     1.276   .     A
C267   O13     1.276   .     A
C268   C262    1.400   1_545 S
C269   C274    1.400   1_545 S
C270   C273    1.400   1_565 S
C271   C276    1.400   1_545 S
C272   C275    1.400   1_565 S
C273   C270    1.400   1_545 S
C274   C269    1.400   1_565 S
C275   C272    1.400   1_545 S
C276   C271    1.400   1_565 S
C277   C283    1.400   1_655 S
C278   O14     1.276   .     A
C278   O85     1.276   .     A
C279   C282    1.400   1_455 S
C280   C285    1.400   1_655 S
C281   C284    1.400   1_455 S
C282   C279    1.400   1_655 S
C283   C277    1.400   1_455 S
C284   C281    1.400   1_655 S
C285   C280    1.400   1_455 S
C286   C5      1.400   1_455 S
C287   C4      1.400   1_655 S
C288   C7      1.400   1_455 S
O1     Zn5     1.950   .     S
O1     Zn1     1.950   .     S
O1     Zn17    1.950   .     S
O1     Zn22    1.950   .     S
O2     Zn24    1.939   .     S
O3     Zn1     1.939   .     S
O4     Zn29    1.939   .     S
O5     Zn28    1.939   .     S
O6     Zn23    1.939   .     S
O7     Zn27    1.939   .     S
O8     Zn25    1.939   .     S
O9     Zn26    1.939   .     S
O10    Zn18    1.939   .     S
O11    Zn19    1.939   .     S
O12    Zn20    1.939   .     S
O13    Zn21    1.939   .     S
O14    Zn21    1.939   .     S
O15    Zn20    1.939   .     S
O16    Zn19    1.939   .     S
O17    Zn16    1.950   .     S
O17    Zn24    1.950   .     S
O17    Zn6     1.950   .     S
O17    Zn12    1.950   .     S
O18    Zn18    1.939   .     S
O19    Zn26    1.939   .     S
O20    Zn25    1.939   .     S
O21    Zn24    1.939   .     S
O22    Zn22    1.939   .     S
O23    Zn25    1.939   .     S
O24    Zn26    1.939   .     S
O25    Zn19    1.939   .     S
O26    Zn18    1.939   .     S
O27    Zn24    1.939   .     S
O28    Zn23    1.950   .     S
O28    Zn11    1.950   .     S
O28    Zn3     1.950   .     S
O28    Zn25    1.950   .     S
O29    Zn22    1.939   .     S
O30    Zn20    1.939   .     S
O31    Zn21    1.939   .     S
O32    Zn13    1.939   .     S
O33    Zn11    1.939   .     S
O34    Zn7     1.939   .     S
O35    Zn8     1.939   .     S
O36    Zn14    1.939   .     S
O37    Zn15    1.939   .     S
O38    Zn6     1.939   .     S
O39    Zn27    1.950   .     S
O39    Zn13    1.950   .     S
O39    Zn26    1.950   .     S
O39    Zn4     1.950   .     S
O40    Zn5     1.939   .     S
O41    Zn9     1.939   .     S
O42    Zn10    1.939   .     S
O43    Zn3     1.939   .     S
O44    Zn4     1.939   .     S
O45    Zn17    1.939   .     S
O46    Zn16    1.939   .     S
O47    Zn2     1.939   .     S
O48    Zn32    1.939   .     S
O49    Zn27    1.939   .     S
O50    Zn18    1.950   .     S
O50    Zn28    1.950   .     S
O50    Zn9     1.950   .     S
O50    Zn8     1.950   .     S
O51    Zn23    1.939   .     S
O52    Zn16    1.939   .     S
O53    Zn17    1.939   .     S
O54    Zn28    1.939   .     S
O55    Zn29    1.939   .     S
O56    Zn15    1.939   .     S
O57    Zn14    1.939   .     S
O58    Zn1     1.939   .     S
O59    Zn12    1.939   .     S
O60    Zn11    1.939   .     S
O61    Zn19    1.950   .     S
O61    Zn10    1.950   .     S
O61    Zn29    1.950   .     S
O61    Zn7     1.950   .     S
O62    Zn13    1.939   .     S
O63    Zn31    1.939   .     S
O64    Zn30    1.939   .     S
O65    Zn10    1.939   .     S
O66    Zn9     1.939   .     S
O67    Zn4     1.939   .     S
O68    Zn3     1.939   .     S
O69    Zn30    1.939   .     S
O70    Zn31    1.939   .     S
O71    Zn5     1.939   .     S
O72    Zn15    1.950   .     S
O72    Zn20    1.950   .     S
O72    Zn2     1.950   .     S
O72    Zn30    1.950   .     S
O73    Zn6     1.939   .     S
O74    Zn29    1.939   .     S
O75    Zn28    1.939   .     S
O76    Zn32    1.939   .     S
O77    Zn2     1.939   .     S
O78    Zn23    1.939   .     S
O79    Zn27    1.939   .     S
O80    Zn8     1.939   .     S
O81    Zn7     1.939   .     S
O82    Zn12    1.939   .     S
O83    Zn31    1.950   .     S
O83    Zn14    1.950   .     S
O83    Zn21    1.950   .     S
O83    Zn32    1.950   .     S
O84    Zn1     1.939   .     S
O85    Zn32    1.939   .     S
O86    Zn2     1.939   .     S
O87    Zn16    1.939   .     S
O88    Zn17    1.939   .     S
O89    Zn4     1.939   .     S
O90    Zn3     1.939   .     S
O91    Zn10    1.939   .     S
O92    Zn9     1.939   .     S
O93    Zn5     1.939   .     S
O94    Zn22    1.939   .     S
O95    Zn6     1.939   .     S
O96    Zn15    1.939   .     S
O97    Zn14    1.939   .     S
O98    Zn8     1.939   .     S
O99    Zn7     1.939   .     S
O100   Zn11    1.939   .     S
O101   Zn13    1.939   .     S
O102   Zn30    1.939   .     S
O103   Zn31    1.939   .     S
O104   Zn12    1.939   .     S
