data_str_m1_o1_o17_pcu_sym.151
_audit_creation_date              2020-01-03
_audit_creation_method            'Materials Studio'
_symmetry_space_group_name_H-M    'P1'
_symmetry_Int_Tables_number       1
_symmetry_cell_setting            triclinic
loop_
_symmetry_equiv_pos_as_xyz
  x,y,z
_cell_length_a                    36.5532
_cell_length_b                    36.5315
_cell_length_c                    34.4217
_cell_angle_alpha                 90.0047
_cell_angle_beta                  89.9893
_cell_angle_gamma                 89.9926
loop_
_atom_site_label
_atom_site_type_symbol
_atom_site_fract_x
_atom_site_fract_y
_atom_site_fract_z
_atom_site_U_iso_or_equiv
_atom_site_adp_type
_atom_site_occupancy
C1     C     0.01385   0.28035   0.41825   0.00000  Uiso   1.00
C2     C     0.49734   0.21676   0.58229   0.00000  Uiso   1.00
C3     C     0.21967   0.48609   0.41825   0.00000  Uiso   1.00
C4     C     0.28321   0.00265   0.58229   0.00000  Uiso   1.00
C5     C     0.48611   0.21964   0.41825   0.00000  Uiso   1.00
C6     C     0.00265   0.28323   0.58229   0.00000  Uiso   1.00
C7     C     0.28031   0.01388   0.41825   0.00000  Uiso   1.00
C8     C     0.21679   0.49730   0.58230   0.00000  Uiso   1.00
C9     C     0.24687   0.03322   0.91768   0.00000  Uiso   1.00
C10    C     0.26430   0.46991   0.08169   0.00000  Uiso   1.00
C11    C     0.46680   0.25291   0.91771   0.00000  Uiso   1.00
C12    C     0.03022   0.23593   0.08172   0.00000  Uiso   1.00
C13    C     0.25304   0.46683   0.91769   0.00000  Uiso   1.00
C14    C     0.23572   0.03022   0.08174   0.00000  Uiso   1.00
C15    C     0.03318   0.24715   0.91770   0.00000  Uiso   1.00
C16    C     0.46973   0.26409   0.08176   0.00000  Uiso   1.00
C17    C     0.49999   0.25000   0.39824   0.00000  Uiso   1.00
C18    C     0.00000   0.24999   0.60211   0.00000  Uiso   1.00
C19    C     0.24999  -0.00000   0.39824   0.00000  Uiso   1.00
C20    C     0.25000   0.49999   0.60211   0.00000  Uiso   1.00
C21    C     0.24998   0.00002   0.89787   0.00000  Uiso   1.00
C22    C     0.25001   0.00005   0.10174   0.00000  Uiso   1.00
C23    C     0.49999   0.25001   0.89789   0.00000  Uiso   1.00
C24    C     0.49997   0.25000   0.10175   0.00000  Uiso   1.00
C25    C     0.48428   0.18475   0.48000   0.00000  Uiso   1.00
C26    C     0.01720   0.31486   0.52056   0.00000  Uiso   1.00
C27    C     0.31520   0.01568   0.47999   0.00000  Uiso   1.00
C28    C     0.18519   0.48267   0.52058   0.00000  Uiso   1.00
C29    C     0.01565   0.31524   0.48001   0.00000  Uiso   1.00
C30    C     0.48275   0.18513   0.52056   0.00000  Uiso   1.00
C31    C     0.18481   0.48421   0.48003   0.00000  Uiso   1.00
C32    C     0.31483   0.01721   0.52054   0.00000  Uiso   1.00
C33    C     0.26799   0.43539   0.97942   0.00000  Uiso   1.00
C34    C     0.23342   0.06508   0.01997   0.00000  Uiso   1.00
C35    C     0.06471   0.23239   0.97943   0.00000  Uiso   1.00
C36    C     0.43488   0.26619   0.01999   0.00000  Uiso   1.00
C37    C     0.23189   0.06468   0.97942   0.00000  Uiso   1.00
C38    C     0.26647   0.43501   0.01997   0.00000  Uiso   1.00
C39    C     0.43528   0.26773   0.97944   0.00000  Uiso   1.00
C40    C     0.06509   0.23393   0.01998   0.00000  Uiso   1.00
C41    C     0.25000   0.00000   0.35585   0.00000  Uiso   1.00
C42    C     0.25000  -0.00000   0.64429   0.00000  Uiso   1.00
C43    C    -0.00000   0.25000   0.35584   0.00000  Uiso   1.00
C44    C     0.00000   0.25000   0.64429   0.00000  Uiso   1.00
C45    C     0.49999   0.25000   0.85571   0.00000  Uiso   1.00
C46    C     0.49999   0.25000   0.14415   0.00000  Uiso   1.00
C47    C     0.25000   0.00001   0.85570   0.00000  Uiso   1.00
C48    C     0.25000   0.00001   0.14415   0.00000  Uiso   1.00
C49    C     0.18001   0.06994   0.24999   0.00000  Uiso   1.00
C50    C     0.31994   0.43001   0.74999   0.00000  Uiso   1.00
C51    C     0.43002   0.18005   0.25001   0.00000  Uiso   1.00
C52    C     0.06995   0.31999   0.75001   0.00000  Uiso   1.00
C53    C     0.31992   0.43000   0.24994   0.00000  Uiso   1.00
C54    C     0.18005   0.06998   0.75005   0.00000  Uiso   1.00
C55    C     0.06992   0.32001   0.25002   0.00000  Uiso   1.00
C56    C     0.43005   0.18002   0.74996   0.00000  Uiso   1.00
C57    C     0.18003   0.43004   0.74995   0.00000  Uiso   1.00
C58    C     0.31999   0.06994   0.25002   0.00000  Uiso   1.00
C59    C     0.43003   0.31996   0.75006   0.00000  Uiso   1.00
C60    C     0.06999   0.18006   0.24998   0.00000  Uiso   1.00
C61    C     0.31998   0.06995   0.75000   0.00000  Uiso   1.00
C62    C     0.18007   0.43000   0.25001   0.00000  Uiso   1.00
C63    C     0.06998   0.18005   0.75000   0.00000  Uiso   1.00
C64    C     0.43007   0.31999   0.25003   0.00000  Uiso   1.00
C65    C     0.11785   0.40930   0.26821   0.00000  Uiso   1.00
C66    C     0.37375   0.09915   0.71899   0.00000  Uiso   1.00
C67    C     0.13228   0.15976   0.23310   0.00000  Uiso   1.00
C68    C     0.37691   0.34942   0.78111   0.00000  Uiso   1.00
C69    C     0.34068   0.13227   0.23203   0.00000  Uiso   1.00
C70    C     0.15070   0.37637   0.78101   0.00000  Uiso   1.00
C71    C     0.40740   0.37998   0.27213   0.00000  Uiso   1.00
C72    C     0.12371   0.15082   0.78104   0.00000  Uiso   1.00
C73    C     0.15071   0.12325   0.78098   0.00000  Uiso   1.00
C74    C     0.38026   0.40742   0.27227   0.00000  Uiso   1.00
C75    C     0.12310   0.34941   0.78099   0.00000  Uiso   1.00
C76    C     0.36796   0.15954   0.23255   0.00000  Uiso   1.00
C77    C     0.34932   0.37640   0.78115   0.00000  Uiso   1.00
C78    C     0.15953   0.13246   0.23251   0.00000  Uiso   1.00
C79    C     0.40076   0.12671   0.71906   0.00000  Uiso   1.00
C80    C     0.09056   0.38204   0.26765   0.00000  Uiso   1.00
C81    C     0.37623   0.15087   0.78089   0.00000  Uiso   1.00
C82    C     0.13222   0.34064   0.23204   0.00000  Uiso   1.00
C83    C     0.37309   0.40057   0.71899   0.00000  Uiso   1.00
C84    C     0.11766   0.09018   0.26667   0.00000  Uiso   1.00
C85    C     0.09931   0.37362   0.71887   0.00000  Uiso   1.00
C86    C     0.40925   0.11781   0.26822   0.00000  Uiso   1.00
C87    C     0.12627   0.09916   0.71909   0.00000  Uiso   1.00
C88    C     0.34264   0.37003   0.22776   0.00000  Uiso   1.00
C89    C     0.36982   0.34264   0.22752   0.00000  Uiso   1.00
C90    C     0.09929   0.12675   0.71913   0.00000  Uiso   1.00
C91    C     0.38198   0.09052   0.26768   0.00000  Uiso   1.00
C92    C     0.12690   0.40060   0.71891   0.00000  Uiso   1.00
C93    C     0.09040   0.11747   0.26724   0.00000  Uiso   1.00
C94    C     0.40070   0.37362   0.71898   0.00000  Uiso   1.00
C95    C     0.15950   0.36789   0.23260   0.00000  Uiso   1.00
C96    C     0.34925   0.12329   0.78084   0.00000  Uiso   1.00
C97    C     0.49032   0.21758   0.45906   0.00000  Uiso   1.00
C98    C     0.00705   0.28309   0.54148   0.00000  Uiso   1.00
C99    C     0.28238   0.00965   0.45905   0.00000  Uiso   1.00
C100   C     0.21694   0.49287   0.54148   0.00000  Uiso   1.00
C101   C     0.00963   0.28241   0.45906   0.00000  Uiso   1.00
C102   C     0.49292   0.21690   0.54148   0.00000  Uiso   1.00
C103   C     0.21761   0.49028   0.45907   0.00000  Uiso   1.00
C104   C     0.28308   0.00705   0.54147   0.00000  Uiso   1.00
C105   C     0.25744   0.46703   0.95851   0.00000  Uiso   1.00
C106   C     0.23989   0.03234   0.04092   0.00000  Uiso   1.00
C107   C     0.03302   0.24275   0.95851   0.00000  Uiso   1.00
C108   C     0.46765   0.25992   0.04094   0.00000  Uiso   1.00
C109   C     0.24246   0.03304   0.95850   0.00000  Uiso   1.00
C110   C     0.26005   0.46777   0.04091   0.00000  Uiso   1.00
C111   C     0.46696   0.25734   0.95852   0.00000  Uiso   1.00
C112   C     0.03231   0.24016   0.04093   0.00000  Uiso   1.00
C113   C     0.09811   0.34804   0.24976   0.00000  Uiso   1.00
C114   C     0.40178   0.15207   0.75005   0.00000  Uiso   1.00
C115   C     0.15196   0.09810   0.24966   0.00000  Uiso   1.00
C116   C     0.34788   0.40174   0.75011   0.00000  Uiso   1.00
C117   C     0.40196   0.15189   0.25032   0.00000  Uiso   1.00
C118   C     0.09789   0.34826   0.74989   0.00000  Uiso   1.00
C119   C     0.34816   0.40201   0.25010   0.00000  Uiso   1.00
C120   C     0.15178   0.09792   0.74995   0.00000  Uiso   1.00
C121   C     0.09824   0.15210   0.75013   0.00000  Uiso   1.00
C122   C     0.40186   0.34799   0.24982   0.00000  Uiso   1.00
C123   C     0.15210   0.40176   0.75003   0.00000  Uiso   1.00
C124   C     0.34802   0.09813   0.24979   0.00000  Uiso   1.00
C125   C     0.40210   0.34824   0.74998   0.00000  Uiso   1.00
C126   C     0.09803   0.15188   0.25023   0.00000  Uiso   1.00
C127   C     0.34824   0.09791   0.74987   0.00000  Uiso   1.00
C128   C     0.15191   0.40195   0.25035   0.00000  Uiso   1.00
C129   C     0.49998   0.24999   0.47967   0.00000  Uiso   1.00
C130   C     0.49998   0.24999   0.52085   0.00000  Uiso   1.00
C131   C     0.25000   0.49996   0.47967   0.00000  Uiso   1.00
C132   C     0.25000   0.49996   0.52085   0.00000  Uiso   1.00
C133   C     0.24995   0.00004   0.97912   0.00000  Uiso   1.00
C134   C     0.24996   0.00005   0.02030   0.00000  Uiso   1.00
C135   C     0.49999   0.25005   0.97914   0.00000  Uiso   1.00
C136   C     0.49998   0.25004   0.02032   0.00000  Uiso   1.00
O137   O     0.25000   0.00000   0.25000   0.00000  Uiso   1.00
O138   O     0.25000   0.00000   0.75000   0.00000  Uiso   1.00
O139   O     0.00000   0.25000   0.25000   0.00000  Uiso   1.00
O140   O     0.00000   0.25000   0.75000   0.00000  Uiso   1.00
O141   O     0.25000   0.46964   0.33755   0.00000  Uiso   1.00
O142   O     0.25000   0.03037   0.66245   0.00000  Uiso   1.00
O143   O     0.03036   0.25000   0.33755   0.00000  Uiso   1.00
O144   O     0.46963   0.25000   0.66245   0.00000  Uiso   1.00
O145   O     0.25000   0.03037   0.33755   0.00000  Uiso   1.00
O146   O     0.25000   0.46964   0.66245   0.00000  Uiso   1.00
O147   O     0.46963   0.25000   0.33755   0.00000  Uiso   1.00
O148   O     0.03036   0.25000   0.66245   0.00000  Uiso   1.00
O149   O     0.00000   0.21964   0.83755   0.00000  Uiso   1.00
O150   O     0.00000   0.28037   0.16245   0.00000  Uiso   1.00
O151   O     0.28036   0.00000   0.83755   0.00000  Uiso   1.00
O152   O     0.21963   0.00000   0.16245   0.00000  Uiso   1.00
O153   O     0.00000   0.28037   0.83755   0.00000  Uiso   1.00
O154   O     0.00000   0.21964   0.16245   0.00000  Uiso   1.00
O155   O     0.21963   0.00000   0.83755   0.00000  Uiso   1.00
O156   O     0.28036   0.00000   0.16245   0.00000  Uiso   1.00
O157   O     0.20724   0.07308   0.27302   0.00000  Uiso   1.00
O158   O     0.29275   0.42693   0.72698   0.00000  Uiso   1.00
O159   O     0.42692   0.20725   0.27302   0.00000  Uiso   1.00
O160   O     0.07307   0.29276   0.72698   0.00000  Uiso   1.00
O161   O     0.29275   0.42693   0.27302   0.00000  Uiso   1.00
O162   O     0.20724   0.07308   0.72698   0.00000  Uiso   1.00
O163   O     0.07307   0.29276   0.27302   0.00000  Uiso   1.00
O164   O     0.42692   0.20725   0.72698   0.00000  Uiso   1.00
O165   O     0.20724   0.42693   0.72698   0.00000  Uiso   1.00
O166   O     0.29275   0.07308   0.27302   0.00000  Uiso   1.00
O167   O     0.42692   0.29276   0.72698   0.00000  Uiso   1.00
O168   O     0.07307   0.20725   0.27302   0.00000  Uiso   1.00
O169   O     0.29275   0.07308   0.72698   0.00000  Uiso   1.00
O170   O     0.20724   0.42693   0.27302   0.00000  Uiso   1.00
O171   O     0.07307   0.20725   0.72698   0.00000  Uiso   1.00
O172   O     0.42692   0.29276   0.27302   0.00000  Uiso   1.00
O173   O     0.45724   0.32308   0.77302   0.00000  Uiso   1.00
O174   O     0.04275   0.17693   0.22698   0.00000  Uiso   1.00
O175   O     0.17692   0.45725   0.77302   0.00000  Uiso   1.00
O176   O     0.32307   0.04276   0.22698   0.00000  Uiso   1.00
O177   O     0.04275   0.17693   0.77302   0.00000  Uiso   1.00
O178   O     0.45724   0.32308   0.22698   0.00000  Uiso   1.00
O179   O     0.32307   0.04276   0.77302   0.00000  Uiso   1.00
O180   O     0.17692   0.45725   0.22698   0.00000  Uiso   1.00
O181   O     0.45724   0.17693   0.22698   0.00000  Uiso   1.00
O182   O     0.04275   0.32308   0.77302   0.00000  Uiso   1.00
O183   O     0.17692   0.04276   0.22698   0.00000  Uiso   1.00
O184   O     0.32307   0.45725   0.77302   0.00000  Uiso   1.00
O185   O     0.04275   0.32308   0.22698   0.00000  Uiso   1.00
O186   O     0.45724   0.17693   0.77302   0.00000  Uiso   1.00
O187   O     0.32307   0.45725   0.22698   0.00000  Uiso   1.00
O188   O     0.17692   0.04276   0.77302   0.00000  Uiso   1.00
Zn189  Zn    0.20659   0.00000   0.21735   0.00000  Uiso   1.00
Zn190  Zn    0.29340   0.00000   0.78265   0.00000  Uiso   1.00
Zn191  Zn    0.00000   0.20660   0.21735   0.00000  Uiso   1.00
Zn192  Zn    0.00000   0.29341   0.78265   0.00000  Uiso   1.00
Zn193  Zn    0.29340   0.00000   0.21735   0.00000  Uiso   1.00
Zn194  Zn    0.20659   0.00000   0.78265   0.00000  Uiso   1.00
Zn195  Zn    0.00000   0.29341   0.21735   0.00000  Uiso   1.00
Zn196  Zn    0.00000   0.20660   0.78265   0.00000  Uiso   1.00
Zn197  Zn    0.45659   0.25000   0.71735   0.00000  Uiso   1.00
Zn198  Zn    0.04340   0.25000   0.28265   0.00000  Uiso   1.00
Zn199  Zn    0.25000   0.45660   0.71735   0.00000  Uiso   1.00
Zn200  Zn    0.25000   0.04341   0.28265   0.00000  Uiso   1.00
Zn201  Zn    0.04340   0.25000   0.71735   0.00000  Uiso   1.00
Zn202  Zn    0.45659   0.25000   0.28265   0.00000  Uiso   1.00
Zn203  Zn    0.25000   0.04341   0.71735   0.00000  Uiso   1.00
Zn204  Zn    0.25000   0.45660   0.28265   0.00000  Uiso   1.00
Cl205  Cl    0.48471   0.14097   0.45763   0.00000  Uiso   1.00
Cl206  Cl    0.03801   0.35331   0.54305   0.00000  Uiso   1.00
Cl207  Cl    0.35895   0.01522   0.45760   0.00000  Uiso   1.00
Cl208  Cl    0.14680   0.46181   0.54309   0.00000  Uiso   1.00
Cl209  Cl    0.01517   0.35902   0.45765   0.00000  Uiso   1.00
Cl210  Cl    0.46194   0.14668   0.54306   0.00000  Uiso   1.00
Cl211  Cl    0.14105   0.48460   0.45768   0.00000  Uiso   1.00
Cl212  Cl    0.35325   0.03803   0.54302   0.00000  Uiso   1.00
Cl213  Cl    0.28925   0.39718   0.95694   0.00000  Uiso   1.00
Cl214  Cl    0.23330   0.10887   0.04233   0.00000  Uiso   1.00
Cl215  Cl    0.10301   0.21133   0.95694   0.00000  Uiso   1.00
Cl216  Cl    0.39112   0.26606   0.04235   0.00000  Uiso   1.00
Cl217  Cl    0.21059   0.10286   0.95692   0.00000  Uiso   1.00
Cl218  Cl    0.26651   0.39124   0.04237   0.00000  Uiso   1.00
Cl219  Cl    0.39701   0.28883   0.95694   0.00000  Uiso   1.00
Cl220  Cl    0.10884   0.23414   0.04234   0.00000  Uiso   1.00
C221   C     0.11070   0.44561   0.28847   0.00000  Uiso   1.00
H222   H     0.13424   0.46467   0.28833   0.00000  Uiso   1.00
H223   H     0.08760   0.45996   0.27409   0.00000  Uiso   1.00
H224   H     0.10404   0.44066   0.31950   0.00000  Uiso   1.00
C225   C     0.37279   0.07098   0.68646   0.00000  Uiso   1.00
H226   H     0.35113   0.05002   0.68955   0.00000  Uiso   1.00
H227   H     0.36809   0.08492   0.65823   0.00000  Uiso   1.00
H228   H     0.39913   0.05585   0.68558   0.00000  Uiso   1.00
C229   C     0.13863   0.19740   0.21534   0.00000  Uiso   1.00
H230   H     0.11783   0.20269   0.19250   0.00000  Uiso   1.00
H231   H     0.13620   0.21867   0.23822   0.00000  Uiso   1.00
H232   H     0.16574   0.20118   0.20170   0.00000  Uiso   1.00
C233   C     0.38001   0.32120   0.81352   0.00000  Uiso   1.00
H234   H     0.40684   0.32410   0.82830   0.00000  Uiso   1.00
H235   H     0.35883   0.32336   0.83632   0.00000  Uiso   1.00
H236   H     0.37792   0.29322   0.80110   0.00000  Uiso   1.00
C237   C     0.30435   0.13953   0.21194   0.00000  Uiso   1.00
H238   H     0.28530   0.11599   0.21205   0.00000  Uiso   1.00
H239   H     0.29007   0.16260   0.22648   0.00000  Uiso   1.00
H240   H     0.30920   0.14630   0.18092   0.00000  Uiso   1.00
C241   C     0.17879   0.37737   0.81360   0.00000  Uiso   1.00
H242   H     0.19987   0.39890   0.81041   0.00000  Uiso   1.00
H243   H     0.16482   0.38231   0.84176   0.00000  Uiso   1.00
H244   H     0.19378   0.35095   0.81467   0.00000  Uiso   1.00
C245   C     0.44251   0.38381   0.29551   0.00000  Uiso   1.00
H246   H     0.46631   0.38304   0.27553   0.00000  Uiso   1.00
H247   H     0.44475   0.40940   0.31248   0.00000  Uiso   1.00
H248   H     0.44477   0.36079   0.31643   0.00000  Uiso   1.00
C249   C     0.12271   0.17896   0.81359   0.00000  Uiso   1.00
H250   H     0.10107   0.19995   0.81049   0.00000  Uiso   1.00
H251   H     0.11795   0.16501   0.84180   0.00000  Uiso   1.00
H252   H     0.14905   0.19408   0.81452   0.00000  Uiso   1.00
C253   C     0.17907   0.12032   0.81325   0.00000  Uiso   1.00
H254   H     0.17629   0.09351   0.82814   0.00000  Uiso   1.00
H255   H     0.20698   0.12240   0.80066   0.00000  Uiso   1.00
H256   H     0.17699   0.14159   0.83597   0.00000  Uiso   1.00
C257   C     0.38565   0.44203   0.29614   0.00000  Uiso   1.00
H258   H     0.36270   0.46174   0.29438   0.00000  Uiso   1.00
H259   H     0.38869   0.43480   0.32730   0.00000  Uiso   1.00
H260   H     0.41045   0.45673   0.28594   0.00000  Uiso   1.00
C261   C     0.12002   0.32117   0.81338   0.00000  Uiso   1.00
H262   H     0.09320   0.32409   0.82818   0.00000  Uiso   1.00
H263   H     0.12208   0.29319   0.80094   0.00000  Uiso   1.00
H264   H     0.14122   0.32330   0.83615   0.00000  Uiso   1.00
C265   C     0.36190   0.19694   0.21406   0.00000  Uiso   1.00
H266   H     0.38292   0.20177   0.19134   0.00000  Uiso   1.00
H267   H     0.33493   0.20058   0.20008   0.00000  Uiso   1.00
H268   H     0.36421   0.21859   0.23655   0.00000  Uiso   1.00
C269   C     0.32130   0.37749   0.81381   0.00000  Uiso   1.00
H270   H     0.30025   0.39907   0.81067   0.00000  Uiso   1.00
H271   H     0.30626   0.35111   0.81496   0.00000  Uiso   1.00
H272   H     0.33534   0.38243   0.84194   0.00000  Uiso   1.00
C273   C     0.19605   0.13988   0.21285   0.00000  Uiso   1.00
H274   H     0.21500   0.11627   0.21269   0.00000  Uiso   1.00
H275   H     0.19147   0.14713   0.18190   0.00000  Uiso   1.00
H276   H     0.21030   0.16267   0.22790   0.00000  Uiso   1.00
C277   C     0.42917   0.12961   0.68683   0.00000  Uiso   1.00
H278   H     0.45706   0.12752   0.69945   0.00000  Uiso   1.00
H279   H     0.42712   0.10831   0.66412   0.00000  Uiso   1.00
H280   H     0.42642   0.15640   0.67189   0.00000  Uiso   1.00
C281   C     0.05320   0.38818   0.28606   0.00000  Uiso   1.00
H282   H     0.03179   0.38624   0.26333   0.00000  Uiso   1.00
H283   H     0.04809   0.36695   0.30850   0.00000  Uiso   1.00
H284   H     0.04967   0.41505   0.30033   0.00000  Uiso   1.00
C285   C     0.37711   0.17910   0.81335   0.00000  Uiso   1.00
H286   H     0.39872   0.20012   0.81021   0.00000  Uiso   1.00
H287   H     0.35074   0.19418   0.81418   0.00000  Uiso   1.00
H288   H     0.38185   0.16524   0.84161   0.00000  Uiso   1.00
C289   C     0.13945   0.30425   0.21197   0.00000  Uiso   1.00
H290   H     0.11592   0.28519   0.21207   0.00000  Uiso   1.00
H291   H     0.14626   0.30908   0.18095   0.00000  Uiso   1.00
H292   H     0.16249   0.28996   0.22653   0.00000  Uiso   1.00
C293   C     0.37000   0.42879   0.68659   0.00000  Uiso   1.00
H294   H     0.34318   0.42585   0.67180   0.00000  Uiso   1.00
H295   H     0.37205   0.45678   0.69900   0.00000  Uiso   1.00
H296   H     0.39119   0.42664   0.66380   0.00000  Uiso   1.00
C297   C     0.11124   0.05247   0.28426   0.00000  Uiso   1.00
H298   H     0.13199   0.04707   0.30711   0.00000  Uiso   1.00
H299   H     0.08410   0.04866   0.29783   0.00000  Uiso   1.00
H300   H     0.11368   0.03129   0.26129   0.00000  Uiso   1.00
C301   C     0.07130   0.37254   0.68621   0.00000  Uiso   1.00
H302   H     0.05026   0.35095   0.68935   0.00000  Uiso   1.00
H303   H     0.05625   0.39893   0.68510   0.00000  Uiso   1.00
H304   H     0.08534   0.36763   0.65808   0.00000  Uiso   1.00
C305   C     0.44549   0.11065   0.28855   0.00000  Uiso   1.00
H306   H     0.46449   0.13422   0.28848   0.00000  Uiso   1.00
H307   H     0.44048   0.10397   0.31957   0.00000  Uiso   1.00
H308   H     0.45988   0.08756   0.27418   0.00000  Uiso   1.00
C309   C     0.12719   0.07094   0.68660   0.00000  Uiso   1.00
H310   H     0.14877   0.04990   0.68977   0.00000  Uiso   1.00
H311   H     0.10081   0.05589   0.68572   0.00000  Uiso   1.00
H312   H     0.13198   0.08482   0.65836   0.00000  Uiso   1.00
C313   C     0.30751   0.36619   0.20440   0.00000  Uiso   1.00
H314   H     0.28373   0.36691   0.22439   0.00000  Uiso   1.00
H315   H     0.30523   0.38924   0.18353   0.00000  Uiso   1.00
H316   H     0.30530   0.34062   0.18739   0.00000  Uiso   1.00
C317   C     0.36459   0.30817   0.20337   0.00000  Uiso   1.00
H318   H     0.38764   0.28857   0.20496   0.00000  Uiso   1.00
H319   H     0.33986   0.29329   0.21345   0.00000  Uiso   1.00
H320   H     0.36153   0.31562   0.17227   0.00000  Uiso   1.00
C321   C     0.07093   0.12967   0.68687   0.00000  Uiso   1.00
H322   H     0.07374   0.15646   0.67195   0.00000  Uiso   1.00
H323   H     0.07300   0.10838   0.66416   0.00000  Uiso   1.00
H324   H     0.04302   0.12762   0.69945   0.00000  Uiso   1.00
C325   C     0.38798   0.05319   0.28634   0.00000  Uiso   1.00
H326   H     0.36691   0.04847   0.30904   0.00000  Uiso   1.00
H327   H     0.38567   0.03146   0.26393   0.00000  Uiso   1.00
H328   H     0.41492   0.04957   0.30038   0.00000  Uiso   1.00
C329   C     0.12999   0.42884   0.68652   0.00000  Uiso   1.00
H330   H     0.15682   0.42595   0.67173   0.00000  Uiso   1.00
H331   H     0.10880   0.42669   0.66373   0.00000  Uiso   1.00
H332   H     0.12789   0.45682   0.69896   0.00000  Uiso   1.00
C333   C     0.05379   0.10994   0.28667   0.00000  Uiso   1.00
H334   H     0.03481   0.13353   0.28681   0.00000  Uiso   1.00
H335   H     0.03964   0.08719   0.27146   0.00000  Uiso   1.00
H336   H     0.05823   0.10260   0.31762   0.00000  Uiso   1.00
C337   C     0.42879   0.37261   0.68639   0.00000  Uiso   1.00
H338   H     0.44989   0.35109   0.68959   0.00000  Uiso   1.00
H339   H     0.41483   0.36763   0.65823   0.00000  Uiso   1.00
H340   H     0.44376   0.39903   0.68529   0.00000  Uiso   1.00
C341   C     0.19694   0.36167   0.21440   0.00000  Uiso   1.00
H342   H     0.21825   0.36363   0.23724   0.00000  Uiso   1.00
H343   H     0.20051   0.33477   0.20021   0.00000  Uiso   1.00
H344   H     0.20219   0.38285   0.19193   0.00000  Uiso   1.00
C345   C     0.32083   0.12041   0.81307   0.00000  Uiso   1.00
H346   H     0.29294   0.12247   0.80044   0.00000  Uiso   1.00
H347   H     0.32361   0.09363   0.82801   0.00000  Uiso   1.00
H348   H     0.32287   0.14172   0.83575   0.00000  Uiso   1.00
Cl349  Cl    0.03929   0.31310   0.39123   0.00000  Uiso   1.00
Cl350  Cl    0.00452   0.17616   0.60973   0.00000  Uiso   1.00
Cl351  Cl    0.18695   0.46063   0.39121   0.00000  Uiso   1.00
Cl352  Cl    0.32379   0.49546   0.60972   0.00000  Uiso   1.00
Cl353  Cl    0.46068   0.18689   0.39121   0.00000  Uiso   1.00
Cl354  Cl    0.49541   0.32383   0.60973   0.00000  Uiso   1.00
Cl355  Cl    0.31302   0.03939   0.39124   0.00000  Uiso   1.00
Cl356  Cl    0.17621   0.00450   0.60973   0.00000  Uiso   1.00
Cl357  Cl    0.25356   0.07391   0.89024   0.00000  Uiso   1.00
Cl358  Cl    0.29036   0.43756   0.10859   0.00000  Uiso   1.00
Cl359  Cl    0.42617   0.24595   0.89029   0.00000  Uiso   1.00
Cl360  Cl    0.06278   0.21022   0.10871   0.00000  Uiso   1.00
Cl361  Cl    0.24630   0.42614   0.89027   0.00000  Uiso   1.00
Cl362  Cl    0.20989   0.06267   0.10878   0.00000  Uiso   1.00
Cl363  Cl    0.07381   0.25411   0.89025   0.00000  Uiso   1.00
Cl364  Cl    0.43713   0.28972   0.10881   0.00000  Uiso   1.00
C365   C     0.51385   0.28035   0.41825   0.00000  Uiso   1.00
C366   C     0.99734   0.21676   0.58229   0.00000  Uiso   1.00
C367   C     0.71967   0.48609   0.41825   0.00000  Uiso   1.00
C368   C     0.78321   0.00265   0.58229   0.00000  Uiso   1.00
C369   C     0.98611   0.21964   0.41825   0.00000  Uiso   1.00
C370   C     0.50265   0.28323   0.58229   0.00000  Uiso   1.00
C371   C     0.78031   0.01388   0.41825   0.00000  Uiso   1.00
C372   C     0.71679   0.49730   0.58230   0.00000  Uiso   1.00
C373   C     0.74687   0.03322   0.91768   0.00000  Uiso   1.00
C374   C     0.76430   0.46991   0.08169   0.00000  Uiso   1.00
C375   C     0.96680   0.25291   0.91771   0.00000  Uiso   1.00
C376   C     0.53022   0.23593   0.08172   0.00000  Uiso   1.00
C377   C     0.75304   0.46683   0.91769   0.00000  Uiso   1.00
C378   C     0.73572   0.03022   0.08174   0.00000  Uiso   1.00
C379   C     0.53318   0.24715   0.91770   0.00000  Uiso   1.00
C380   C     0.96973   0.26409   0.08176   0.00000  Uiso   1.00
C381   C     0.99999   0.25000   0.39824   0.00000  Uiso   1.00
C382   C     0.50000   0.24999   0.60211   0.00000  Uiso   1.00
C383   C     0.74999  -0.00000   0.39824   0.00000  Uiso   1.00
C384   C     0.75000   0.49999   0.60211   0.00000  Uiso   1.00
C385   C     0.74998   0.00002   0.89787   0.00000  Uiso   1.00
C386   C     0.75001   0.00005   0.10174   0.00000  Uiso   1.00
C387   C     0.99999   0.25001   0.89789   0.00000  Uiso   1.00
C388   C     0.99997   0.25000   0.10175   0.00000  Uiso   1.00
C389   C     0.98428   0.18475   0.48000   0.00000  Uiso   1.00
C390   C     0.51720   0.31486   0.52056   0.00000  Uiso   1.00
C391   C     0.81520   0.01568   0.47999   0.00000  Uiso   1.00
C392   C     0.68519   0.48267   0.52058   0.00000  Uiso   1.00
C393   C     0.51565   0.31524   0.48001   0.00000  Uiso   1.00
C394   C     0.98275   0.18513   0.52056   0.00000  Uiso   1.00
C395   C     0.68481   0.48421   0.48003   0.00000  Uiso   1.00
C396   C     0.81483   0.01721   0.52054   0.00000  Uiso   1.00
C397   C     0.76799   0.43539   0.97942   0.00000  Uiso   1.00
C398   C     0.73342   0.06508   0.01997   0.00000  Uiso   1.00
C399   C     0.56471   0.23239   0.97943   0.00000  Uiso   1.00
C400   C     0.93488   0.26619   0.01999   0.00000  Uiso   1.00
C401   C     0.73189   0.06468   0.97942   0.00000  Uiso   1.00
C402   C     0.76647   0.43501   0.01997   0.00000  Uiso   1.00
C403   C     0.93528   0.26773   0.97944   0.00000  Uiso   1.00
C404   C     0.56509   0.23393   0.01998   0.00000  Uiso   1.00
C405   C     0.75000   0.00000   0.35585   0.00000  Uiso   1.00
C406   C     0.75000  -0.00000   0.64429   0.00000  Uiso   1.00
C407   C     0.50000   0.25000   0.35584   0.00000  Uiso   1.00
C408   C     0.50000   0.25000   0.64429   0.00000  Uiso   1.00
C409   C     0.99999   0.25000   0.85571   0.00000  Uiso   1.00
C410   C     0.99999   0.25000   0.14415   0.00000  Uiso   1.00
C411   C     0.75000   0.00001   0.85570   0.00000  Uiso   1.00
C412   C     0.75000   0.00001   0.14415   0.00000  Uiso   1.00
C413   C     0.68001   0.06994   0.24999   0.00000  Uiso   1.00
C414   C     0.81994   0.43001   0.74999   0.00000  Uiso   1.00
C415   C     0.93002   0.18005   0.25001   0.00000  Uiso   1.00
C416   C     0.56995   0.31999   0.75001   0.00000  Uiso   1.00
C417   C     0.81992   0.43000   0.24994   0.00000  Uiso   1.00
C418   C     0.68005   0.06998   0.75005   0.00000  Uiso   1.00
C419   C     0.56992   0.32001   0.25002   0.00000  Uiso   1.00
C420   C     0.93005   0.18002   0.74996   0.00000  Uiso   1.00
C421   C     0.68003   0.43004   0.74995   0.00000  Uiso   1.00
C422   C     0.81999   0.06994   0.25002   0.00000  Uiso   1.00
C423   C     0.93003   0.31996   0.75006   0.00000  Uiso   1.00
C424   C     0.56999   0.18006   0.24998   0.00000  Uiso   1.00
C425   C     0.81998   0.06995   0.75000   0.00000  Uiso   1.00
C426   C     0.68007   0.43000   0.25001   0.00000  Uiso   1.00
C427   C     0.56998   0.18005   0.75000   0.00000  Uiso   1.00
C428   C     0.93007   0.31999   0.25003   0.00000  Uiso   1.00
C429   C     0.61785   0.40930   0.26821   0.00000  Uiso   1.00
C430   C     0.87375   0.09915   0.71899   0.00000  Uiso   1.00
C431   C     0.63228   0.15976   0.23310   0.00000  Uiso   1.00
C432   C     0.87691   0.34942   0.78111   0.00000  Uiso   1.00
C433   C     0.84068   0.13227   0.23203   0.00000  Uiso   1.00
C434   C     0.65070   0.37637   0.78101   0.00000  Uiso   1.00
C435   C     0.90740   0.37998   0.27213   0.00000  Uiso   1.00
C436   C     0.62371   0.15082   0.78104   0.00000  Uiso   1.00
C437   C     0.65071   0.12325   0.78098   0.00000  Uiso   1.00
C438   C     0.88026   0.40742   0.27227   0.00000  Uiso   1.00
C439   C     0.62310   0.34941   0.78099   0.00000  Uiso   1.00
C440   C     0.86796   0.15954   0.23255   0.00000  Uiso   1.00
C441   C     0.84932   0.37640   0.78115   0.00000  Uiso   1.00
C442   C     0.65953   0.13246   0.23251   0.00000  Uiso   1.00
C443   C     0.90076   0.12671   0.71906   0.00000  Uiso   1.00
C444   C     0.59056   0.38204   0.26765   0.00000  Uiso   1.00
C445   C     0.87623   0.15087   0.78089   0.00000  Uiso   1.00
C446   C     0.63222   0.34064   0.23204   0.00000  Uiso   1.00
C447   C     0.87309   0.40057   0.71899   0.00000  Uiso   1.00
C448   C     0.61766   0.09018   0.26667   0.00000  Uiso   1.00
C449   C     0.59931   0.37362   0.71887   0.00000  Uiso   1.00
C450   C     0.90925   0.11781   0.26822   0.00000  Uiso   1.00
C451   C     0.62627   0.09916   0.71909   0.00000  Uiso   1.00
C452   C     0.84264   0.37003   0.22776   0.00000  Uiso   1.00
C453   C     0.86982   0.34264   0.22752   0.00000  Uiso   1.00
C454   C     0.59929   0.12675   0.71913   0.00000  Uiso   1.00
C455   C     0.88198   0.09052   0.26768   0.00000  Uiso   1.00
C456   C     0.62690   0.40060   0.71891   0.00000  Uiso   1.00
C457   C     0.59040   0.11747   0.26724   0.00000  Uiso   1.00
C458   C     0.90070   0.37362   0.71898   0.00000  Uiso   1.00
C459   C     0.65950   0.36789   0.23260   0.00000  Uiso   1.00
C460   C     0.84925   0.12329   0.78084   0.00000  Uiso   1.00
C461   C     0.99032   0.21758   0.45906   0.00000  Uiso   1.00
C462   C     0.50705   0.28309   0.54148   0.00000  Uiso   1.00
C463   C     0.78238   0.00965   0.45905   0.00000  Uiso   1.00
C464   C     0.71694   0.49287   0.54148   0.00000  Uiso   1.00
C465   C     0.50963   0.28241   0.45906   0.00000  Uiso   1.00
C466   C     0.99292   0.21690   0.54148   0.00000  Uiso   1.00
C467   C     0.71761   0.49028   0.45907   0.00000  Uiso   1.00
C468   C     0.78308   0.00705   0.54147   0.00000  Uiso   1.00
C469   C     0.75744   0.46703   0.95851   0.00000  Uiso   1.00
C470   C     0.73989   0.03234   0.04092   0.00000  Uiso   1.00
C471   C     0.53302   0.24275   0.95851   0.00000  Uiso   1.00
C472   C     0.96765   0.25992   0.04094   0.00000  Uiso   1.00
C473   C     0.74246   0.03304   0.95850   0.00000  Uiso   1.00
C474   C     0.76005   0.46777   0.04091   0.00000  Uiso   1.00
C475   C     0.96696   0.25734   0.95852   0.00000  Uiso   1.00
C476   C     0.53231   0.24016   0.04093   0.00000  Uiso   1.00
C477   C     0.59811   0.34804   0.24976   0.00000  Uiso   1.00
C478   C     0.90178   0.15207   0.75005   0.00000  Uiso   1.00
C479   C     0.65196   0.09810   0.24966   0.00000  Uiso   1.00
C480   C     0.84788   0.40174   0.75011   0.00000  Uiso   1.00
C481   C     0.90196   0.15189   0.25032   0.00000  Uiso   1.00
C482   C     0.59789   0.34826   0.74989   0.00000  Uiso   1.00
C483   C     0.84816   0.40201   0.25010   0.00000  Uiso   1.00
C484   C     0.65178   0.09792   0.74995   0.00000  Uiso   1.00
C485   C     0.59824   0.15210   0.75013   0.00000  Uiso   1.00
C486   C     0.90186   0.34799   0.24982   0.00000  Uiso   1.00
C487   C     0.65210   0.40176   0.75003   0.00000  Uiso   1.00
C488   C     0.84802   0.09813   0.24979   0.00000  Uiso   1.00
C489   C     0.90210   0.34824   0.74998   0.00000  Uiso   1.00
C490   C     0.59803   0.15188   0.25023   0.00000  Uiso   1.00
C491   C     0.84824   0.09791   0.74987   0.00000  Uiso   1.00
C492   C     0.65191   0.40195   0.25035   0.00000  Uiso   1.00
C493   C     0.99998   0.24999   0.47967   0.00000  Uiso   1.00
C494   C     0.99998   0.24999   0.52085   0.00000  Uiso   1.00
C495   C     0.75000   0.49996   0.47967   0.00000  Uiso   1.00
C496   C     0.75000   0.49996   0.52085   0.00000  Uiso   1.00
C497   C     0.74995   0.00004   0.97912   0.00000  Uiso   1.00
C498   C     0.74996   0.00005   0.02030   0.00000  Uiso   1.00
C499   C     0.99999   0.25005   0.97914   0.00000  Uiso   1.00
C500   C     0.99998   0.25004   0.02032   0.00000  Uiso   1.00
O501   O     0.75000   0.00000   0.25000   0.00000  Uiso   1.00
O502   O     0.75000   0.00000   0.75000   0.00000  Uiso   1.00
O503   O     0.50000   0.25000   0.25000   0.00000  Uiso   1.00
O504   O     0.50000   0.25000   0.75000   0.00000  Uiso   1.00
O505   O     0.75000   0.46964   0.33755   0.00000  Uiso   1.00
O506   O     0.75000   0.03037   0.66245   0.00000  Uiso   1.00
O507   O     0.53036   0.25000   0.33755   0.00000  Uiso   1.00
O508   O     0.96963   0.25000   0.66245   0.00000  Uiso   1.00
O509   O     0.75000   0.03037   0.33755   0.00000  Uiso   1.00
O510   O     0.75000   0.46964   0.66245   0.00000  Uiso   1.00
O511   O     0.96963   0.25000   0.33755   0.00000  Uiso   1.00
O512   O     0.53036   0.25000   0.66245   0.00000  Uiso   1.00
O513   O     0.50000   0.21964   0.83755   0.00000  Uiso   1.00
O514   O     0.50000   0.28037   0.16245   0.00000  Uiso   1.00
O515   O     0.78036   0.00000   0.83755   0.00000  Uiso   1.00
O516   O     0.71963   0.00000   0.16245   0.00000  Uiso   1.00
O517   O     0.50000   0.28037   0.83755   0.00000  Uiso   1.00
O518   O     0.50000   0.21964   0.16245   0.00000  Uiso   1.00
O519   O     0.71963   0.00000   0.83755   0.00000  Uiso   1.00
O520   O     0.78036   0.00000   0.16245   0.00000  Uiso   1.00
O521   O     0.70724   0.07308   0.27302   0.00000  Uiso   1.00
O522   O     0.79275   0.42693   0.72698   0.00000  Uiso   1.00
O523   O     0.92692   0.20725   0.27302   0.00000  Uiso   1.00
O524   O     0.57307   0.29276   0.72698   0.00000  Uiso   1.00
O525   O     0.79275   0.42693   0.27302   0.00000  Uiso   1.00
O526   O     0.70724   0.07308   0.72698   0.00000  Uiso   1.00
O527   O     0.57307   0.29276   0.27302   0.00000  Uiso   1.00
O528   O     0.92692   0.20725   0.72698   0.00000  Uiso   1.00
O529   O     0.70724   0.42693   0.72698   0.00000  Uiso   1.00
O530   O     0.79275   0.07308   0.27302   0.00000  Uiso   1.00
O531   O     0.92692   0.29276   0.72698   0.00000  Uiso   1.00
O532   O     0.57307   0.20725   0.27302   0.00000  Uiso   1.00
O533   O     0.79275   0.07308   0.72698   0.00000  Uiso   1.00
O534   O     0.70724   0.42693   0.27302   0.00000  Uiso   1.00
O535   O     0.57307   0.20725   0.72698   0.00000  Uiso   1.00
O536   O     0.92692   0.29276   0.27302   0.00000  Uiso   1.00
O537   O     0.95724   0.32308   0.77302   0.00000  Uiso   1.00
O538   O     0.54275   0.17693   0.22698   0.00000  Uiso   1.00
O539   O     0.67692   0.45725   0.77302   0.00000  Uiso   1.00
O540   O     0.82307   0.04276   0.22698   0.00000  Uiso   1.00
O541   O     0.54275   0.17693   0.77302   0.00000  Uiso   1.00
O542   O     0.95724   0.32308   0.22698   0.00000  Uiso   1.00
O543   O     0.82307   0.04276   0.77302   0.00000  Uiso   1.00
O544   O     0.67692   0.45725   0.22698   0.00000  Uiso   1.00
O545   O     0.95724   0.17693   0.22698   0.00000  Uiso   1.00
O546   O     0.54275   0.32308   0.77302   0.00000  Uiso   1.00
O547   O     0.67692   0.04276   0.22698   0.00000  Uiso   1.00
O548   O     0.82307   0.45725   0.77302   0.00000  Uiso   1.00
O549   O     0.54275   0.32308   0.22698   0.00000  Uiso   1.00
O550   O     0.95724   0.17693   0.77302   0.00000  Uiso   1.00
O551   O     0.82307   0.45725   0.22698   0.00000  Uiso   1.00
O552   O     0.67692   0.04276   0.77302   0.00000  Uiso   1.00
Zn553  Zn    0.70659   0.00000   0.21735   0.00000  Uiso   1.00
Zn554  Zn    0.79340   0.00000   0.78265   0.00000  Uiso   1.00
Zn555  Zn    0.50000   0.20660   0.21735   0.00000  Uiso   1.00
Zn556  Zn    0.50000   0.29341   0.78265   0.00000  Uiso   1.00
Zn557  Zn    0.79340   0.00000   0.21735   0.00000  Uiso   1.00
Zn558  Zn    0.70659   0.00000   0.78265   0.00000  Uiso   1.00
Zn559  Zn    0.50000   0.29341   0.21735   0.00000  Uiso   1.00
Zn560  Zn    0.50000   0.20660   0.78265   0.00000  Uiso   1.00
Zn561  Zn    0.95659   0.25000   0.71735   0.00000  Uiso   1.00
Zn562  Zn    0.54340   0.25000   0.28265   0.00000  Uiso   1.00
Zn563  Zn    0.75000   0.45660   0.71735   0.00000  Uiso   1.00
Zn564  Zn    0.75000   0.04341   0.28265   0.00000  Uiso   1.00
Zn565  Zn    0.54340   0.25000   0.71735   0.00000  Uiso   1.00
Zn566  Zn    0.95659   0.25000   0.28265   0.00000  Uiso   1.00
Zn567  Zn    0.75000   0.04341   0.71735   0.00000  Uiso   1.00
Zn568  Zn    0.75000   0.45660   0.28265   0.00000  Uiso   1.00
Cl569  Cl    0.98471   0.14097   0.45763   0.00000  Uiso   1.00
Cl570  Cl    0.53801   0.35331   0.54305   0.00000  Uiso   1.00
Cl571  Cl    0.85895   0.01522   0.45760   0.00000  Uiso   1.00
Cl572  Cl    0.64680   0.46181   0.54309   0.00000  Uiso   1.00
Cl573  Cl    0.51517   0.35902   0.45765   0.00000  Uiso   1.00
Cl574  Cl    0.96194   0.14668   0.54306   0.00000  Uiso   1.00
Cl575  Cl    0.64105   0.48460   0.45768   0.00000  Uiso   1.00
Cl576  Cl    0.85325   0.03803   0.54302   0.00000  Uiso   1.00
Cl577  Cl    0.78925   0.39718   0.95694   0.00000  Uiso   1.00
Cl578  Cl    0.73330   0.10887   0.04233   0.00000  Uiso   1.00
Cl579  Cl    0.60301   0.21133   0.95694   0.00000  Uiso   1.00
Cl580  Cl    0.89112   0.26606   0.04235   0.00000  Uiso   1.00
Cl581  Cl    0.71059   0.10286   0.95692   0.00000  Uiso   1.00
Cl582  Cl    0.76651   0.39124   0.04237   0.00000  Uiso   1.00
Cl583  Cl    0.89701   0.28883   0.95694   0.00000  Uiso   1.00
Cl584  Cl    0.60884   0.23414   0.04234   0.00000  Uiso   1.00
C585   C     0.61070   0.44561   0.28847   0.00000  Uiso   1.00
H586   H     0.63424   0.46467   0.28833   0.00000  Uiso   1.00
H587   H     0.58760   0.45996   0.27409   0.00000  Uiso   1.00
H588   H     0.60404   0.44066   0.31950   0.00000  Uiso   1.00
C589   C     0.87279   0.07098   0.68646   0.00000  Uiso   1.00
H590   H     0.85113   0.05002   0.68955   0.00000  Uiso   1.00
H591   H     0.86809   0.08492   0.65823   0.00000  Uiso   1.00
H592   H     0.89913   0.05585   0.68558   0.00000  Uiso   1.00
C593   C     0.63863   0.19740   0.21534   0.00000  Uiso   1.00
H594   H     0.61783   0.20269   0.19250   0.00000  Uiso   1.00
H595   H     0.63620   0.21867   0.23822   0.00000  Uiso   1.00
H596   H     0.66574   0.20118   0.20170   0.00000  Uiso   1.00
C597   C     0.88001   0.32120   0.81352   0.00000  Uiso   1.00
H598   H     0.90684   0.32410   0.82830   0.00000  Uiso   1.00
H599   H     0.85883   0.32336   0.83632   0.00000  Uiso   1.00
H600   H     0.87792   0.29322   0.80110   0.00000  Uiso   1.00
C601   C     0.80435   0.13953   0.21194   0.00000  Uiso   1.00
H602   H     0.78530   0.11599   0.21205   0.00000  Uiso   1.00
H603   H     0.79007   0.16260   0.22648   0.00000  Uiso   1.00
H604   H     0.80920   0.14630   0.18092   0.00000  Uiso   1.00
C605   C     0.67879   0.37737   0.81360   0.00000  Uiso   1.00
H606   H     0.69987   0.39890   0.81041   0.00000  Uiso   1.00
H607   H     0.66482   0.38231   0.84176   0.00000  Uiso   1.00
H608   H     0.69378   0.35095   0.81467   0.00000  Uiso   1.00
C609   C     0.94251   0.38381   0.29551   0.00000  Uiso   1.00
H610   H     0.96631   0.38304   0.27553   0.00000  Uiso   1.00
H611   H     0.94475   0.40940   0.31248   0.00000  Uiso   1.00
H612   H     0.94477   0.36079   0.31643   0.00000  Uiso   1.00
C613   C     0.62271   0.17896   0.81359   0.00000  Uiso   1.00
H614   H     0.60107   0.19995   0.81049   0.00000  Uiso   1.00
H615   H     0.61795   0.16501   0.84180   0.00000  Uiso   1.00
H616   H     0.64905   0.19408   0.81452   0.00000  Uiso   1.00
C617   C     0.67907   0.12032   0.81325   0.00000  Uiso   1.00
H618   H     0.67629   0.09351   0.82814   0.00000  Uiso   1.00
H619   H     0.70698   0.12240   0.80066   0.00000  Uiso   1.00
H620   H     0.67699   0.14159   0.83597   0.00000  Uiso   1.00
C621   C     0.88565   0.44203   0.29614   0.00000  Uiso   1.00
H622   H     0.86270   0.46174   0.29438   0.00000  Uiso   1.00
H623   H     0.88869   0.43480   0.32730   0.00000  Uiso   1.00
H624   H     0.91045   0.45673   0.28594   0.00000  Uiso   1.00
C625   C     0.62002   0.32117   0.81338   0.00000  Uiso   1.00
H626   H     0.59320   0.32409   0.82818   0.00000  Uiso   1.00
H627   H     0.62208   0.29319   0.80094   0.00000  Uiso   1.00
H628   H     0.64122   0.32330   0.83615   0.00000  Uiso   1.00
C629   C     0.86190   0.19694   0.21406   0.00000  Uiso   1.00
H630   H     0.88292   0.20177   0.19134   0.00000  Uiso   1.00
H631   H     0.83493   0.20058   0.20008   0.00000  Uiso   1.00
H632   H     0.86421   0.21859   0.23655   0.00000  Uiso   1.00
C633   C     0.82130   0.37749   0.81381   0.00000  Uiso   1.00
H634   H     0.80025   0.39907   0.81067   0.00000  Uiso   1.00
H635   H     0.80626   0.35111   0.81496   0.00000  Uiso   1.00
H636   H     0.83534   0.38243   0.84194   0.00000  Uiso   1.00
C637   C     0.69605   0.13988   0.21285   0.00000  Uiso   1.00
H638   H     0.71500   0.11627   0.21269   0.00000  Uiso   1.00
H639   H     0.69147   0.14713   0.18190   0.00000  Uiso   1.00
H640   H     0.71030   0.16267   0.22790   0.00000  Uiso   1.00
C641   C     0.92917   0.12961   0.68683   0.00000  Uiso   1.00
H642   H     0.95706   0.12752   0.69945   0.00000  Uiso   1.00
H643   H     0.92712   0.10831   0.66412   0.00000  Uiso   1.00
H644   H     0.92642   0.15640   0.67189   0.00000  Uiso   1.00
C645   C     0.55320   0.38818   0.28606   0.00000  Uiso   1.00
H646   H     0.53179   0.38624   0.26333   0.00000  Uiso   1.00
H647   H     0.54809   0.36695   0.30850   0.00000  Uiso   1.00
H648   H     0.54967   0.41505   0.30033   0.00000  Uiso   1.00
C649   C     0.87711   0.17910   0.81335   0.00000  Uiso   1.00
H650   H     0.89872   0.20012   0.81021   0.00000  Uiso   1.00
H651   H     0.85074   0.19418   0.81418   0.00000  Uiso   1.00
H652   H     0.88185   0.16524   0.84161   0.00000  Uiso   1.00
C653   C     0.63945   0.30425   0.21197   0.00000  Uiso   1.00
H654   H     0.61592   0.28519   0.21207   0.00000  Uiso   1.00
H655   H     0.64626   0.30908   0.18095   0.00000  Uiso   1.00
H656   H     0.66249   0.28996   0.22653   0.00000  Uiso   1.00
C657   C     0.87000   0.42879   0.68659   0.00000  Uiso   1.00
H658   H     0.84318   0.42585   0.67180   0.00000  Uiso   1.00
H659   H     0.87205   0.45678   0.69900   0.00000  Uiso   1.00
H660   H     0.89119   0.42664   0.66380   0.00000  Uiso   1.00
C661   C     0.61124   0.05247   0.28426   0.00000  Uiso   1.00
H662   H     0.63199   0.04707   0.30711   0.00000  Uiso   1.00
H663   H     0.58410   0.04866   0.29783   0.00000  Uiso   1.00
H664   H     0.61368   0.03129   0.26129   0.00000  Uiso   1.00
C665   C     0.57130   0.37254   0.68621   0.00000  Uiso   1.00
H666   H     0.55026   0.35095   0.68935   0.00000  Uiso   1.00
H667   H     0.55625   0.39893   0.68510   0.00000  Uiso   1.00
H668   H     0.58534   0.36763   0.65808   0.00000  Uiso   1.00
C669   C     0.94549   0.11065   0.28855   0.00000  Uiso   1.00
H670   H     0.96449   0.13422   0.28848   0.00000  Uiso   1.00
H671   H     0.94048   0.10397   0.31957   0.00000  Uiso   1.00
H672   H     0.95988   0.08756   0.27418   0.00000  Uiso   1.00
C673   C     0.62719   0.07094   0.68660   0.00000  Uiso   1.00
H674   H     0.64877   0.04990   0.68977   0.00000  Uiso   1.00
H675   H     0.60081   0.05589   0.68572   0.00000  Uiso   1.00
H676   H     0.63198   0.08482   0.65836   0.00000  Uiso   1.00
C677   C     0.80751   0.36619   0.20440   0.00000  Uiso   1.00
H678   H     0.78373   0.36691   0.22439   0.00000  Uiso   1.00
H679   H     0.80523   0.38924   0.18353   0.00000  Uiso   1.00
H680   H     0.80530   0.34062   0.18739   0.00000  Uiso   1.00
C681   C     0.86459   0.30817   0.20337   0.00000  Uiso   1.00
H682   H     0.88764   0.28857   0.20496   0.00000  Uiso   1.00
H683   H     0.83986   0.29329   0.21345   0.00000  Uiso   1.00
H684   H     0.86153   0.31562   0.17227   0.00000  Uiso   1.00
C685   C     0.57093   0.12967   0.68687   0.00000  Uiso   1.00
H686   H     0.57374   0.15646   0.67195   0.00000  Uiso   1.00
H687   H     0.57300   0.10838   0.66416   0.00000  Uiso   1.00
H688   H     0.54302   0.12762   0.69945   0.00000  Uiso   1.00
C689   C     0.88798   0.05319   0.28634   0.00000  Uiso   1.00
H690   H     0.86691   0.04847   0.30904   0.00000  Uiso   1.00
H691   H     0.88567   0.03146   0.26393   0.00000  Uiso   1.00
H692   H     0.91492   0.04957   0.30038   0.00000  Uiso   1.00
C693   C     0.62999   0.42884   0.68652   0.00000  Uiso   1.00
H694   H     0.65682   0.42595   0.67173   0.00000  Uiso   1.00
H695   H     0.60880   0.42669   0.66373   0.00000  Uiso   1.00
H696   H     0.62789   0.45682   0.69896   0.00000  Uiso   1.00
C697   C     0.55379   0.10994   0.28667   0.00000  Uiso   1.00
H698   H     0.53481   0.13353   0.28681   0.00000  Uiso   1.00
H699   H     0.53964   0.08719   0.27146   0.00000  Uiso   1.00
H700   H     0.55823   0.10260   0.31762   0.00000  Uiso   1.00
C701   C     0.92879   0.37261   0.68639   0.00000  Uiso   1.00
H702   H     0.94989   0.35109   0.68959   0.00000  Uiso   1.00
H703   H     0.91483   0.36763   0.65823   0.00000  Uiso   1.00
H704   H     0.94376   0.39903   0.68529   0.00000  Uiso   1.00
C705   C     0.69694   0.36167   0.21440   0.00000  Uiso   1.00
H706   H     0.71825   0.36363   0.23724   0.00000  Uiso   1.00
H707   H     0.70051   0.33477   0.20021   0.00000  Uiso   1.00
H708   H     0.70219   0.38285   0.19193   0.00000  Uiso   1.00
C709   C     0.82083   0.12041   0.81307   0.00000  Uiso   1.00
H710   H     0.79294   0.12247   0.80044   0.00000  Uiso   1.00
H711   H     0.82361   0.09363   0.82801   0.00000  Uiso   1.00
H712   H     0.82287   0.14172   0.83575   0.00000  Uiso   1.00
Cl713  Cl    0.53929   0.31310   0.39123   0.00000  Uiso   1.00
Cl714  Cl    0.50452   0.17616   0.60973   0.00000  Uiso   1.00
Cl715  Cl    0.68695   0.46063   0.39121   0.00000  Uiso   1.00
Cl716  Cl    0.82379   0.49546   0.60972   0.00000  Uiso   1.00
Cl717  Cl    0.96068   0.18689   0.39121   0.00000  Uiso   1.00
Cl718  Cl    0.99541   0.32383   0.60973   0.00000  Uiso   1.00
Cl719  Cl    0.81302   0.03939   0.39124   0.00000  Uiso   1.00
Cl720  Cl    0.67621   0.00450   0.60973   0.00000  Uiso   1.00
Cl721  Cl    0.75356   0.07391   0.89024   0.00000  Uiso   1.00
Cl722  Cl    0.79036   0.43756   0.10859   0.00000  Uiso   1.00
Cl723  Cl    0.92617   0.24595   0.89029   0.00000  Uiso   1.00
Cl724  Cl    0.56278   0.21022   0.10871   0.00000  Uiso   1.00
Cl725  Cl    0.74630   0.42614   0.89027   0.00000  Uiso   1.00
Cl726  Cl    0.70989   0.06267   0.10878   0.00000  Uiso   1.00
Cl727  Cl    0.57381   0.25411   0.89025   0.00000  Uiso   1.00
Cl728  Cl    0.93713   0.28972   0.10881   0.00000  Uiso   1.00
C729   C     0.01385   0.78035   0.41825   0.00000  Uiso   1.00
C730   C     0.49734   0.71676   0.58229   0.00000  Uiso   1.00
C731   C     0.21967   0.98609   0.41825   0.00000  Uiso   1.00
C732   C     0.28321   0.50265   0.58229   0.00000  Uiso   1.00
C733   C     0.48611   0.71964   0.41825   0.00000  Uiso   1.00
C734   C     0.00265   0.78323   0.58229   0.00000  Uiso   1.00
C735   C     0.28031   0.51388   0.41825   0.00000  Uiso   1.00
C736   C     0.21679   0.99730   0.58230   0.00000  Uiso   1.00
C737   C     0.24687   0.53322   0.91768   0.00000  Uiso   1.00
C738   C     0.26430   0.96991   0.08169   0.00000  Uiso   1.00
C739   C     0.46680   0.75291   0.91771   0.00000  Uiso   1.00
C740   C     0.03022   0.73593   0.08172   0.00000  Uiso   1.00
C741   C     0.25304   0.96683   0.91769   0.00000  Uiso   1.00
C742   C     0.23572   0.53022   0.08174   0.00000  Uiso   1.00
C743   C     0.03318   0.74715   0.91770   0.00000  Uiso   1.00
C744   C     0.46973   0.76409   0.08176   0.00000  Uiso   1.00
C745   C     0.49999   0.75000   0.39824   0.00000  Uiso   1.00
C746   C     0.00000   0.74999   0.60211   0.00000  Uiso   1.00
C747   C     0.24999   0.50000   0.39824   0.00000  Uiso   1.00
C748   C     0.25000   0.99999   0.60211   0.00000  Uiso   1.00
C749   C     0.24998   0.50002   0.89787   0.00000  Uiso   1.00
C750   C     0.25001   0.50005   0.10174   0.00000  Uiso   1.00
C751   C     0.49999   0.75001   0.89789   0.00000  Uiso   1.00
C752   C     0.49997   0.75000   0.10175   0.00000  Uiso   1.00
C753   C     0.48428   0.68475   0.48000   0.00000  Uiso   1.00
C754   C     0.01720   0.81486   0.52056   0.00000  Uiso   1.00
C755   C     0.31520   0.51568   0.47999   0.00000  Uiso   1.00
C756   C     0.18519   0.98267   0.52058   0.00000  Uiso   1.00
C757   C     0.01565   0.81524   0.48001   0.00000  Uiso   1.00
C758   C     0.48275   0.68513   0.52056   0.00000  Uiso   1.00
C759   C     0.18481   0.98421   0.48003   0.00000  Uiso   1.00
C760   C     0.31483   0.51721   0.52054   0.00000  Uiso   1.00
C761   C     0.26799   0.93539   0.97942   0.00000  Uiso   1.00
C762   C     0.23342   0.56508   0.01997   0.00000  Uiso   1.00
C763   C     0.06471   0.73239   0.97943   0.00000  Uiso   1.00
C764   C     0.43488   0.76619   0.01999   0.00000  Uiso   1.00
C765   C     0.23189   0.56468   0.97942   0.00000  Uiso   1.00
C766   C     0.26647   0.93501   0.01997   0.00000  Uiso   1.00
C767   C     0.43528   0.76773   0.97944   0.00000  Uiso   1.00
C768   C     0.06509   0.73393   0.01998   0.00000  Uiso   1.00
C769   C     0.25000   0.50000   0.35585   0.00000  Uiso   1.00
C770   C     0.25000   0.50000   0.64429   0.00000  Uiso   1.00
C771   C    -0.00000   0.75000   0.35584   0.00000  Uiso   1.00
C772   C     0.00000   0.75000   0.64429   0.00000  Uiso   1.00
C773   C     0.49999   0.75000   0.85571   0.00000  Uiso   1.00
C774   C     0.49999   0.75000   0.14415   0.00000  Uiso   1.00
C775   C     0.25000   0.50001   0.85570   0.00000  Uiso   1.00
C776   C     0.25000   0.50001   0.14415   0.00000  Uiso   1.00
C777   C     0.18001   0.56994   0.24999   0.00000  Uiso   1.00
C778   C     0.31994   0.93001   0.74999   0.00000  Uiso   1.00
C779   C     0.43002   0.68005   0.25001   0.00000  Uiso   1.00
C780   C     0.06995   0.81999   0.75001   0.00000  Uiso   1.00
C781   C     0.31992   0.93000   0.24994   0.00000  Uiso   1.00
C782   C     0.18005   0.56998   0.75005   0.00000  Uiso   1.00
C783   C     0.06992   0.82001   0.25002   0.00000  Uiso   1.00
C784   C     0.43005   0.68002   0.74996   0.00000  Uiso   1.00
C785   C     0.18003   0.93004   0.74995   0.00000  Uiso   1.00
C786   C     0.31999   0.56994   0.25002   0.00000  Uiso   1.00
C787   C     0.43003   0.81996   0.75006   0.00000  Uiso   1.00
C788   C     0.06999   0.68006   0.24998   0.00000  Uiso   1.00
C789   C     0.31998   0.56995   0.75000   0.00000  Uiso   1.00
C790   C     0.18007   0.93000   0.25001   0.00000  Uiso   1.00
C791   C     0.06998   0.68005   0.75000   0.00000  Uiso   1.00
C792   C     0.43007   0.81999   0.25003   0.00000  Uiso   1.00
C793   C     0.11785   0.90930   0.26821   0.00000  Uiso   1.00
C794   C     0.37375   0.59915   0.71899   0.00000  Uiso   1.00
C795   C     0.13228   0.65976   0.23310   0.00000  Uiso   1.00
C796   C     0.37691   0.84942   0.78111   0.00000  Uiso   1.00
C797   C     0.34068   0.63227   0.23203   0.00000  Uiso   1.00
C798   C     0.15070   0.87637   0.78101   0.00000  Uiso   1.00
C799   C     0.40740   0.87998   0.27213   0.00000  Uiso   1.00
C800   C     0.12371   0.65082   0.78104   0.00000  Uiso   1.00
C801   C     0.15071   0.62325   0.78098   0.00000  Uiso   1.00
C802   C     0.38026   0.90742   0.27227   0.00000  Uiso   1.00
C803   C     0.12310   0.84941   0.78099   0.00000  Uiso   1.00
C804   C     0.36796   0.65954   0.23255   0.00000  Uiso   1.00
C805   C     0.34932   0.87640   0.78115   0.00000  Uiso   1.00
C806   C     0.15953   0.63246   0.23251   0.00000  Uiso   1.00
C807   C     0.40076   0.62671   0.71906   0.00000  Uiso   1.00
C808   C     0.09056   0.88204   0.26765   0.00000  Uiso   1.00
C809   C     0.37623   0.65087   0.78089   0.00000  Uiso   1.00
C810   C     0.13222   0.84064   0.23204   0.00000  Uiso   1.00
C811   C     0.37309   0.90057   0.71899   0.00000  Uiso   1.00
C812   C     0.11766   0.59018   0.26667   0.00000  Uiso   1.00
C813   C     0.09931   0.87362   0.71887   0.00000  Uiso   1.00
C814   C     0.40925   0.61781   0.26822   0.00000  Uiso   1.00
C815   C     0.12627   0.59916   0.71909   0.00000  Uiso   1.00
C816   C     0.34264   0.87003   0.22776   0.00000  Uiso   1.00
C817   C     0.36982   0.84264   0.22752   0.00000  Uiso   1.00
C818   C     0.09929   0.62675   0.71913   0.00000  Uiso   1.00
C819   C     0.38198   0.59052   0.26768   0.00000  Uiso   1.00
C820   C     0.12690   0.90060   0.71891   0.00000  Uiso   1.00
C821   C     0.09040   0.61747   0.26724   0.00000  Uiso   1.00
C822   C     0.40070   0.87362   0.71898   0.00000  Uiso   1.00
C823   C     0.15950   0.86789   0.23260   0.00000  Uiso   1.00
C824   C     0.34925   0.62329   0.78084   0.00000  Uiso   1.00
C825   C     0.49032   0.71758   0.45906   0.00000  Uiso   1.00
C826   C     0.00705   0.78309   0.54148   0.00000  Uiso   1.00
C827   C     0.28238   0.50965   0.45905   0.00000  Uiso   1.00
C828   C     0.21694   0.99287   0.54148   0.00000  Uiso   1.00
C829   C     0.00963   0.78241   0.45906   0.00000  Uiso   1.00
C830   C     0.49292   0.71690   0.54148   0.00000  Uiso   1.00
C831   C     0.21761   0.99028   0.45907   0.00000  Uiso   1.00
C832   C     0.28308   0.50705   0.54147   0.00000  Uiso   1.00
C833   C     0.25744   0.96703   0.95851   0.00000  Uiso   1.00
C834   C     0.23989   0.53234   0.04092   0.00000  Uiso   1.00
C835   C     0.03302   0.74275   0.95851   0.00000  Uiso   1.00
C836   C     0.46765   0.75992   0.04094   0.00000  Uiso   1.00
C837   C     0.24246   0.53304   0.95850   0.00000  Uiso   1.00
C838   C     0.26005   0.96777   0.04091   0.00000  Uiso   1.00
C839   C     0.46696   0.75734   0.95852   0.00000  Uiso   1.00
C840   C     0.03231   0.74016   0.04093   0.00000  Uiso   1.00
C841   C     0.09811   0.84804   0.24976   0.00000  Uiso   1.00
C842   C     0.40178   0.65207   0.75005   0.00000  Uiso   1.00
C843   C     0.15196   0.59810   0.24966   0.00000  Uiso   1.00
C844   C     0.34788   0.90174   0.75011   0.00000  Uiso   1.00
C845   C     0.40196   0.65189   0.25032   0.00000  Uiso   1.00
C846   C     0.09789   0.84826   0.74989   0.00000  Uiso   1.00
C847   C     0.34816   0.90201   0.25010   0.00000  Uiso   1.00
C848   C     0.15178   0.59792   0.74995   0.00000  Uiso   1.00
C849   C     0.09824   0.65210   0.75013   0.00000  Uiso   1.00
C850   C     0.40186   0.84799   0.24982   0.00000  Uiso   1.00
C851   C     0.15210   0.90176   0.75003   0.00000  Uiso   1.00
C852   C     0.34802   0.59813   0.24979   0.00000  Uiso   1.00
C853   C     0.40210   0.84824   0.74998   0.00000  Uiso   1.00
C854   C     0.09803   0.65188   0.25023   0.00000  Uiso   1.00
C855   C     0.34824   0.59791   0.74987   0.00000  Uiso   1.00
C856   C     0.15191   0.90195   0.25035   0.00000  Uiso   1.00
C857   C     0.49998   0.74999   0.47967   0.00000  Uiso   1.00
C858   C     0.49998   0.74999   0.52085   0.00000  Uiso   1.00
C859   C     0.25000   0.99996   0.47967   0.00000  Uiso   1.00
C860   C     0.25000   0.99996   0.52085   0.00000  Uiso   1.00
C861   C     0.24995   0.50004   0.97912   0.00000  Uiso   1.00
C862   C     0.24996   0.50005   0.02030   0.00000  Uiso   1.00
C863   C     0.49999   0.75005   0.97914   0.00000  Uiso   1.00
C864   C     0.49998   0.75004   0.02032   0.00000  Uiso   1.00
O865   O     0.25000   0.50000   0.25000   0.00000  Uiso   1.00
O866   O     0.25000   0.50000   0.75000   0.00000  Uiso   1.00
O867   O     0.00000   0.75000   0.25000   0.00000  Uiso   1.00
O868   O     0.00000   0.75000   0.75000   0.00000  Uiso   1.00
O869   O     0.25000   0.96964   0.33755   0.00000  Uiso   1.00
O870   O     0.25000   0.53037   0.66245   0.00000  Uiso   1.00
O871   O     0.03036   0.75000   0.33755   0.00000  Uiso   1.00
O872   O     0.46963   0.75000   0.66245   0.00000  Uiso   1.00
O873   O     0.25000   0.53037   0.33755   0.00000  Uiso   1.00
O874   O     0.25000   0.96964   0.66245   0.00000  Uiso   1.00
O875   O     0.46963   0.75000   0.33755   0.00000  Uiso   1.00
O876   O     0.03036   0.75000   0.66245   0.00000  Uiso   1.00
O877   O     0.00000   0.71964   0.83755   0.00000  Uiso   1.00
O878   O     0.00000   0.78037   0.16245   0.00000  Uiso   1.00
O879   O     0.28036   0.50000   0.83755   0.00000  Uiso   1.00
O880   O     0.21963   0.50000   0.16245   0.00000  Uiso   1.00
O881   O     0.00000   0.78037   0.83755   0.00000  Uiso   1.00
O882   O     0.00000   0.71964   0.16245   0.00000  Uiso   1.00
O883   O     0.21963   0.50000   0.83755   0.00000  Uiso   1.00
O884   O     0.28036   0.50000   0.16245   0.00000  Uiso   1.00
O885   O     0.20724   0.57308   0.27302   0.00000  Uiso   1.00
O886   O     0.29275   0.92693   0.72698   0.00000  Uiso   1.00
O887   O     0.42692   0.70725   0.27302   0.00000  Uiso   1.00
O888   O     0.07307   0.79276   0.72698   0.00000  Uiso   1.00
O889   O     0.29275   0.92693   0.27302   0.00000  Uiso   1.00
O890   O     0.20724   0.57308   0.72698   0.00000  Uiso   1.00
O891   O     0.07307   0.79276   0.27302   0.00000  Uiso   1.00
O892   O     0.42692   0.70725   0.72698   0.00000  Uiso   1.00
O893   O     0.20724   0.92693   0.72698   0.00000  Uiso   1.00
O894   O     0.29275   0.57308   0.27302   0.00000  Uiso   1.00
O895   O     0.42692   0.79276   0.72698   0.00000  Uiso   1.00
O896   O     0.07307   0.70725   0.27302   0.00000  Uiso   1.00
O897   O     0.29275   0.57308   0.72698   0.00000  Uiso   1.00
O898   O     0.20724   0.92693   0.27302   0.00000  Uiso   1.00
O899   O     0.07307   0.70725   0.72698   0.00000  Uiso   1.00
O900   O     0.42692   0.79276   0.27302   0.00000  Uiso   1.00
O901   O     0.45724   0.82308   0.77302   0.00000  Uiso   1.00
O902   O     0.04275   0.67693   0.22698   0.00000  Uiso   1.00
O903   O     0.17692   0.95725   0.77302   0.00000  Uiso   1.00
O904   O     0.32307   0.54276   0.22698   0.00000  Uiso   1.00
O905   O     0.04275   0.67693   0.77302   0.00000  Uiso   1.00
O906   O     0.45724   0.82308   0.22698   0.00000  Uiso   1.00
O907   O     0.32307   0.54276   0.77302   0.00000  Uiso   1.00
O908   O     0.17692   0.95725   0.22698   0.00000  Uiso   1.00
O909   O     0.45724   0.67693   0.22698   0.00000  Uiso   1.00
O910   O     0.04275   0.82308   0.77302   0.00000  Uiso   1.00
O911   O     0.17692   0.54276   0.22698   0.00000  Uiso   1.00
O912   O     0.32307   0.95725   0.77302   0.00000  Uiso   1.00
O913   O     0.04275   0.82308   0.22698   0.00000  Uiso   1.00
O914   O     0.45724   0.67693   0.77302   0.00000  Uiso   1.00
O915   O     0.32307   0.95725   0.22698   0.00000  Uiso   1.00
O916   O     0.17692   0.54276   0.77302   0.00000  Uiso   1.00
Zn917  Zn    0.20659   0.50000   0.21735   0.00000  Uiso   1.00
Zn918  Zn    0.29340   0.50000   0.78265   0.00000  Uiso   1.00
Zn919  Zn    0.00000   0.70660   0.21735   0.00000  Uiso   1.00
Zn920  Zn    0.00000   0.79341   0.78265   0.00000  Uiso   1.00
Zn921  Zn    0.29340   0.50000   0.21735   0.00000  Uiso   1.00
Zn922  Zn    0.20659   0.50000   0.78265   0.00000  Uiso   1.00
Zn923  Zn    0.00000   0.79341   0.21735   0.00000  Uiso   1.00
Zn924  Zn    0.00000   0.70660   0.78265   0.00000  Uiso   1.00
Zn925  Zn    0.45659   0.75000   0.71735   0.00000  Uiso   1.00
Zn926  Zn    0.04340   0.75000   0.28265   0.00000  Uiso   1.00
Zn927  Zn    0.25000   0.95660   0.71735   0.00000  Uiso   1.00
Zn928  Zn    0.25000   0.54341   0.28265   0.00000  Uiso   1.00
Zn929  Zn    0.04340   0.75000   0.71735   0.00000  Uiso   1.00
Zn930  Zn    0.45659   0.75000   0.28265   0.00000  Uiso   1.00
Zn931  Zn    0.25000   0.54341   0.71735   0.00000  Uiso   1.00
Zn932  Zn    0.25000   0.95660   0.28265   0.00000  Uiso   1.00
Cl933  Cl    0.48471   0.64097   0.45763   0.00000  Uiso   1.00
Cl934  Cl    0.03801   0.85331   0.54305   0.00000  Uiso   1.00
Cl935  Cl    0.35895   0.51522   0.45760   0.00000  Uiso   1.00
Cl936  Cl    0.14680   0.96181   0.54309   0.00000  Uiso   1.00
Cl937  Cl    0.01517   0.85902   0.45765   0.00000  Uiso   1.00
Cl938  Cl    0.46194   0.64668   0.54306   0.00000  Uiso   1.00
Cl939  Cl    0.14105   0.98460   0.45768   0.00000  Uiso   1.00
Cl940  Cl    0.35325   0.53803   0.54302   0.00000  Uiso   1.00
Cl941  Cl    0.28925   0.89718   0.95694   0.00000  Uiso   1.00
Cl942  Cl    0.23330   0.60887   0.04233   0.00000  Uiso   1.00
Cl943  Cl    0.10301   0.71133   0.95694   0.00000  Uiso   1.00
Cl944  Cl    0.39112   0.76606   0.04235   0.00000  Uiso   1.00
Cl945  Cl    0.21059   0.60286   0.95692   0.00000  Uiso   1.00
Cl946  Cl    0.26651   0.89124   0.04237   0.00000  Uiso   1.00
Cl947  Cl    0.39701   0.78883   0.95694   0.00000  Uiso   1.00
Cl948  Cl    0.10884   0.73414   0.04234   0.00000  Uiso   1.00
C949   C     0.11070   0.94561   0.28847   0.00000  Uiso   1.00
H950   H     0.13424   0.96467   0.28833   0.00000  Uiso   1.00
H951   H     0.08760   0.95996   0.27409   0.00000  Uiso   1.00
H952   H     0.10404   0.94066   0.31950   0.00000  Uiso   1.00
C953   C     0.37279   0.57098   0.68646   0.00000  Uiso   1.00
H954   H     0.35113   0.55002   0.68955   0.00000  Uiso   1.00
H955   H     0.36809   0.58492   0.65823   0.00000  Uiso   1.00
H956   H     0.39913   0.55585   0.68558   0.00000  Uiso   1.00
C957   C     0.13863   0.69740   0.21534   0.00000  Uiso   1.00
H958   H     0.11783   0.70269   0.19250   0.00000  Uiso   1.00
H959   H     0.13620   0.71867   0.23822   0.00000  Uiso   1.00
H960   H     0.16574   0.70118   0.20170   0.00000  Uiso   1.00
C961   C     0.38001   0.82120   0.81352   0.00000  Uiso   1.00
H962   H     0.40684   0.82410   0.82830   0.00000  Uiso   1.00
H963   H     0.35883   0.82336   0.83632   0.00000  Uiso   1.00
H964   H     0.37792   0.79322   0.80110   0.00000  Uiso   1.00
C965   C     0.30435   0.63953   0.21194   0.00000  Uiso   1.00
H966   H     0.28530   0.61599   0.21205   0.00000  Uiso   1.00
H967   H     0.29007   0.66260   0.22648   0.00000  Uiso   1.00
H968   H     0.30920   0.64630   0.18092   0.00000  Uiso   1.00
C969   C     0.17879   0.87737   0.81360   0.00000  Uiso   1.00
H970   H     0.19987   0.89890   0.81041   0.00000  Uiso   1.00
H971   H     0.16482   0.88231   0.84176   0.00000  Uiso   1.00
H972   H     0.19378   0.85095   0.81467   0.00000  Uiso   1.00
C973   C     0.44251   0.88381   0.29551   0.00000  Uiso   1.00
H974   H     0.46631   0.88304   0.27553   0.00000  Uiso   1.00
H975   H     0.44475   0.90940   0.31248   0.00000  Uiso   1.00
H976   H     0.44477   0.86079   0.31643   0.00000  Uiso   1.00
C977   C     0.12271   0.67896   0.81359   0.00000  Uiso   1.00
H978   H     0.10107   0.69995   0.81049   0.00000  Uiso   1.00
H979   H     0.11795   0.66501   0.84180   0.00000  Uiso   1.00
H980   H     0.14905   0.69408   0.81452   0.00000  Uiso   1.00
C981   C     0.17907   0.62032   0.81325   0.00000  Uiso   1.00
H982   H     0.17629   0.59351   0.82814   0.00000  Uiso   1.00
H983   H     0.20698   0.62240   0.80066   0.00000  Uiso   1.00
H984   H     0.17699   0.64159   0.83597   0.00000  Uiso   1.00
C985   C     0.38565   0.94203   0.29614   0.00000  Uiso   1.00
H986   H     0.36270   0.96174   0.29438   0.00000  Uiso   1.00
H987   H     0.38869   0.93480   0.32730   0.00000  Uiso   1.00
H988   H     0.41045   0.95673   0.28594   0.00000  Uiso   1.00
C989   C     0.12002   0.82117   0.81338   0.00000  Uiso   1.00
H990   H     0.09320   0.82409   0.82818   0.00000  Uiso   1.00
H991   H     0.12208   0.79319   0.80094   0.00000  Uiso   1.00
H992   H     0.14122   0.82330   0.83615   0.00000  Uiso   1.00
C993   C     0.36190   0.69694   0.21406   0.00000  Uiso   1.00
H994   H     0.38292   0.70177   0.19134   0.00000  Uiso   1.00
H995   H     0.33493   0.70058   0.20008   0.00000  Uiso   1.00
H996   H     0.36421   0.71859   0.23655   0.00000  Uiso   1.00
C997   C     0.32130   0.87749   0.81381   0.00000  Uiso   1.00
H998   H     0.30025   0.89907   0.81067   0.00000  Uiso   1.00
H999   H     0.30626   0.85111   0.81496   0.00000  Uiso   1.00
H1000  H     0.33534   0.88243   0.84194   0.00000  Uiso   1.00
C1001  C     0.19605   0.63988   0.21285   0.00000  Uiso   1.00
H1002  H     0.21500   0.61627   0.21269   0.00000  Uiso   1.00
H1003  H     0.19147   0.64713   0.18190   0.00000  Uiso   1.00
H1004  H     0.21030   0.66267   0.22790   0.00000  Uiso   1.00
C1005  C     0.42917   0.62961   0.68683   0.00000  Uiso   1.00
H1006  H     0.45706   0.62752   0.69945   0.00000  Uiso   1.00
H1007  H     0.42712   0.60831   0.66412   0.00000  Uiso   1.00
H1008  H     0.42642   0.65640   0.67189   0.00000  Uiso   1.00
C1009  C     0.05320   0.88818   0.28606   0.00000  Uiso   1.00
H1010  H     0.03179   0.88624   0.26333   0.00000  Uiso   1.00
H1011  H     0.04809   0.86695   0.30850   0.00000  Uiso   1.00
H1012  H     0.04967   0.91505   0.30033   0.00000  Uiso   1.00
C1013  C     0.37711   0.67910   0.81335   0.00000  Uiso   1.00
H1014  H     0.39872   0.70012   0.81021   0.00000  Uiso   1.00
H1015  H     0.35074   0.69418   0.81418   0.00000  Uiso   1.00
H1016  H     0.38185   0.66524   0.84161   0.00000  Uiso   1.00
C1017  C     0.13945   0.80425   0.21197   0.00000  Uiso   1.00
H1018  H     0.11592   0.78519   0.21207   0.00000  Uiso   1.00
H1019  H     0.14626   0.80908   0.18095   0.00000  Uiso   1.00
H1020  H     0.16249   0.78996   0.22653   0.00000  Uiso   1.00
C1021  C     0.37000   0.92879   0.68659   0.00000  Uiso   1.00
H1022  H     0.34318   0.92585   0.67180   0.00000  Uiso   1.00
H1023  H     0.37205   0.95678   0.69900   0.00000  Uiso   1.00
H1024  H     0.39119   0.92664   0.66380   0.00000  Uiso   1.00
C1025  C     0.11124   0.55247   0.28426   0.00000  Uiso   1.00
H1026  H     0.13199   0.54707   0.30711   0.00000  Uiso   1.00
H1027  H     0.08410   0.54866   0.29783   0.00000  Uiso   1.00
H1028  H     0.11368   0.53129   0.26129   0.00000  Uiso   1.00
C1029  C     0.07130   0.87254   0.68621   0.00000  Uiso   1.00
H1030  H     0.05026   0.85095   0.68935   0.00000  Uiso   1.00
H1031  H     0.05625   0.89893   0.68510   0.00000  Uiso   1.00
H1032  H     0.08534   0.86763   0.65808   0.00000  Uiso   1.00
C1033  C     0.44549   0.61065   0.28855   0.00000  Uiso   1.00
H1034  H     0.46449   0.63422   0.28848   0.00000  Uiso   1.00
H1035  H     0.44048   0.60397   0.31957   0.00000  Uiso   1.00
H1036  H     0.45988   0.58756   0.27418   0.00000  Uiso   1.00
C1037  C     0.12719   0.57094   0.68660   0.00000  Uiso   1.00
H1038  H     0.14877   0.54990   0.68977   0.00000  Uiso   1.00
H1039  H     0.10081   0.55589   0.68572   0.00000  Uiso   1.00
H1040  H     0.13198   0.58482   0.65836   0.00000  Uiso   1.00
C1041  C     0.30751   0.86619   0.20440   0.00000  Uiso   1.00
H1042  H     0.28373   0.86691   0.22439   0.00000  Uiso   1.00
H1043  H     0.30523   0.88924   0.18353   0.00000  Uiso   1.00
H1044  H     0.30530   0.84062   0.18739   0.00000  Uiso   1.00
C1045  C     0.36459   0.80817   0.20337   0.00000  Uiso   1.00
H1046  H     0.38764   0.78857   0.20496   0.00000  Uiso   1.00
H1047  H     0.33986   0.79329   0.21345   0.00000  Uiso   1.00
H1048  H     0.36153   0.81562   0.17227   0.00000  Uiso   1.00
C1049  C     0.07093   0.62967   0.68687   0.00000  Uiso   1.00
H1050  H     0.07374   0.65646   0.67195   0.00000  Uiso   1.00
H1051  H     0.07300   0.60838   0.66416   0.00000  Uiso   1.00
H1052  H     0.04302   0.62762   0.69945   0.00000  Uiso   1.00
C1053  C     0.38798   0.55319   0.28634   0.00000  Uiso   1.00
H1054  H     0.36691   0.54847   0.30904   0.00000  Uiso   1.00
H1055  H     0.38567   0.53146   0.26393   0.00000  Uiso   1.00
H1056  H     0.41492   0.54957   0.30038   0.00000  Uiso   1.00
C1057  C     0.12999   0.92884   0.68652   0.00000  Uiso   1.00
H1058  H     0.15682   0.92595   0.67173   0.00000  Uiso   1.00
H1059  H     0.10880   0.92669   0.66373   0.00000  Uiso   1.00
H1060  H     0.12789   0.95682   0.69896   0.00000  Uiso   1.00
C1061  C     0.05379   0.60994   0.28667   0.00000  Uiso   1.00
H1062  H     0.03481   0.63353   0.28681   0.00000  Uiso   1.00
H1063  H     0.03964   0.58719   0.27146   0.00000  Uiso   1.00
H1064  H     0.05823   0.60260   0.31762   0.00000  Uiso   1.00
C1065  C     0.42879   0.87261   0.68639   0.00000  Uiso   1.00
H1066  H     0.44989   0.85109   0.68959   0.00000  Uiso   1.00
H1067  H     0.41483   0.86763   0.65823   0.00000  Uiso   1.00
H1068  H     0.44376   0.89903   0.68529   0.00000  Uiso   1.00
C1069  C     0.19694   0.86167   0.21440   0.00000  Uiso   1.00
H1070  H     0.21825   0.86363   0.23724   0.00000  Uiso   1.00
H1071  H     0.20051   0.83477   0.20021   0.00000  Uiso   1.00
H1072  H     0.20219   0.88285   0.19193   0.00000  Uiso   1.00
C1073  C     0.32083   0.62041   0.81307   0.00000  Uiso   1.00
H1074  H     0.29294   0.62247   0.80044   0.00000  Uiso   1.00
H1075  H     0.32361   0.59363   0.82801   0.00000  Uiso   1.00
H1076  H     0.32287   0.64172   0.83575   0.00000  Uiso   1.00
Cl1077 Cl    0.03929   0.81310   0.39123   0.00000  Uiso   1.00
Cl1078 Cl    0.00452   0.67616   0.60973   0.00000  Uiso   1.00
Cl1079 Cl    0.18695   0.96063   0.39121   0.00000  Uiso   1.00
Cl1080 Cl    0.32379   0.99546   0.60972   0.00000  Uiso   1.00
Cl1081 Cl    0.46068   0.68689   0.39121   0.00000  Uiso   1.00
Cl1082 Cl    0.49541   0.82383   0.60973   0.00000  Uiso   1.00
Cl1083 Cl    0.31302   0.53939   0.39124   0.00000  Uiso   1.00
Cl1084 Cl    0.17621   0.50450   0.60973   0.00000  Uiso   1.00
Cl1085 Cl    0.25356   0.57391   0.89024   0.00000  Uiso   1.00
Cl1086 Cl    0.29036   0.93756   0.10859   0.00000  Uiso   1.00
Cl1087 Cl    0.42617   0.74595   0.89029   0.00000  Uiso   1.00
Cl1088 Cl    0.06278   0.71022   0.10871   0.00000  Uiso   1.00
Cl1089 Cl    0.24630   0.92614   0.89027   0.00000  Uiso   1.00
Cl1090 Cl    0.20989   0.56267   0.10878   0.00000  Uiso   1.00
Cl1091 Cl    0.07381   0.75411   0.89025   0.00000  Uiso   1.00
Cl1092 Cl    0.43713   0.78972   0.10881   0.00000  Uiso   1.00
C1093  C     0.51385   0.78035   0.41825   0.00000  Uiso   1.00
C1094  C     0.99734   0.71676   0.58229   0.00000  Uiso   1.00
C1095  C     0.71967   0.98609   0.41825   0.00000  Uiso   1.00
C1096  C     0.78321   0.50265   0.58229   0.00000  Uiso   1.00
C1097  C     0.98611   0.71964   0.41825   0.00000  Uiso   1.00
C1098  C     0.50265   0.78323   0.58229   0.00000  Uiso   1.00
C1099  C     0.78031   0.51388   0.41825   0.00000  Uiso   1.00
C1100  C     0.71679   0.99730   0.58230   0.00000  Uiso   1.00
C1101  C     0.74687   0.53322   0.91768   0.00000  Uiso   1.00
C1102  C     0.76430   0.96991   0.08169   0.00000  Uiso   1.00
C1103  C     0.96680   0.75291   0.91771   0.00000  Uiso   1.00
C1104  C     0.53022   0.73593   0.08172   0.00000  Uiso   1.00
C1105  C     0.75304   0.96683   0.91769   0.00000  Uiso   1.00
C1106  C     0.73572   0.53022   0.08174   0.00000  Uiso   1.00
C1107  C     0.53318   0.74715   0.91770   0.00000  Uiso   1.00
C1108  C     0.96973   0.76409   0.08176   0.00000  Uiso   1.00
C1109  C     0.99999   0.75000   0.39824   0.00000  Uiso   1.00
C1110  C     0.50000   0.74999   0.60211   0.00000  Uiso   1.00
C1111  C     0.74999   0.50000   0.39824   0.00000  Uiso   1.00
C1112  C     0.75000   0.99999   0.60211   0.00000  Uiso   1.00
C1113  C     0.74998   0.50002   0.89787   0.00000  Uiso   1.00
C1114  C     0.75001   0.50005   0.10174   0.00000  Uiso   1.00
C1115  C     0.99999   0.75001   0.89789   0.00000  Uiso   1.00
C1116  C     0.99997   0.75000   0.10175   0.00000  Uiso   1.00
C1117  C     0.98428   0.68475   0.48000   0.00000  Uiso   1.00
C1118  C     0.51720   0.81486   0.52056   0.00000  Uiso   1.00
C1119  C     0.81520   0.51568   0.47999   0.00000  Uiso   1.00
C1120  C     0.68519   0.98267   0.52058   0.00000  Uiso   1.00
C1121  C     0.51565   0.81524   0.48001   0.00000  Uiso   1.00
C1122  C     0.98275   0.68513   0.52056   0.00000  Uiso   1.00
C1123  C     0.68481   0.98421   0.48003   0.00000  Uiso   1.00
C1124  C     0.81483   0.51721   0.52054   0.00000  Uiso   1.00
C1125  C     0.76799   0.93539   0.97942   0.00000  Uiso   1.00
C1126  C     0.73342   0.56508   0.01997   0.00000  Uiso   1.00
C1127  C     0.56471   0.73239   0.97943   0.00000  Uiso   1.00
C1128  C     0.93488   0.76619   0.01999   0.00000  Uiso   1.00
C1129  C     0.73189   0.56468   0.97942   0.00000  Uiso   1.00
C1130  C     0.76647   0.93501   0.01997   0.00000  Uiso   1.00
C1131  C     0.93528   0.76773   0.97944   0.00000  Uiso   1.00
C1132  C     0.56509   0.73393   0.01998   0.00000  Uiso   1.00
C1133  C     0.75000   0.50000   0.35585   0.00000  Uiso   1.00
C1134  C     0.75000   0.50000   0.64429   0.00000  Uiso   1.00
C1135  C     0.50000   0.75000   0.35584   0.00000  Uiso   1.00
C1136  C     0.50000   0.75000   0.64429   0.00000  Uiso   1.00
C1137  C     0.99999   0.75000   0.85571   0.00000  Uiso   1.00
C1138  C     0.99999   0.75000   0.14415   0.00000  Uiso   1.00
C1139  C     0.75000   0.50001   0.85570   0.00000  Uiso   1.00
C1140  C     0.75000   0.50001   0.14415   0.00000  Uiso   1.00
C1141  C     0.68001   0.56994   0.24999   0.00000  Uiso   1.00
C1142  C     0.81994   0.93001   0.74999   0.00000  Uiso   1.00
C1143  C     0.93002   0.68005   0.25001   0.00000  Uiso   1.00
C1144  C     0.56995   0.81999   0.75001   0.00000  Uiso   1.00
C1145  C     0.81992   0.93000   0.24994   0.00000  Uiso   1.00
C1146  C     0.68005   0.56998   0.75005   0.00000  Uiso   1.00
C1147  C     0.56992   0.82001   0.25002   0.00000  Uiso   1.00
C1148  C     0.93005   0.68002   0.74996   0.00000  Uiso   1.00
C1149  C     0.68003   0.93004   0.74995   0.00000  Uiso   1.00
C1150  C     0.81999   0.56994   0.25002   0.00000  Uiso   1.00
C1151  C     0.93003   0.81996   0.75006   0.00000  Uiso   1.00
C1152  C     0.56999   0.68006   0.24998   0.00000  Uiso   1.00
C1153  C     0.81998   0.56995   0.75000   0.00000  Uiso   1.00
C1154  C     0.68007   0.93000   0.25001   0.00000  Uiso   1.00
C1155  C     0.56998   0.68005   0.75000   0.00000  Uiso   1.00
C1156  C     0.93007   0.81999   0.25003   0.00000  Uiso   1.00
C1157  C     0.61785   0.90930   0.26821   0.00000  Uiso   1.00
C1158  C     0.87375   0.59915   0.71899   0.00000  Uiso   1.00
C1159  C     0.63228   0.65976   0.23310   0.00000  Uiso   1.00
C1160  C     0.87691   0.84942   0.78111   0.00000  Uiso   1.00
C1161  C     0.84068   0.63227   0.23203   0.00000  Uiso   1.00
C1162  C     0.65070   0.87637   0.78101   0.00000  Uiso   1.00
C1163  C     0.90740   0.87998   0.27213   0.00000  Uiso   1.00
C1164  C     0.62371   0.65082   0.78104   0.00000  Uiso   1.00
C1165  C     0.65071   0.62325   0.78098   0.00000  Uiso   1.00
C1166  C     0.88026   0.90742   0.27227   0.00000  Uiso   1.00
C1167  C     0.62310   0.84941   0.78099   0.00000  Uiso   1.00
C1168  C     0.86796   0.65954   0.23255   0.00000  Uiso   1.00
C1169  C     0.84932   0.87640   0.78115   0.00000  Uiso   1.00
C1170  C     0.65953   0.63246   0.23251   0.00000  Uiso   1.00
C1171  C     0.90076   0.62671   0.71906   0.00000  Uiso   1.00
C1172  C     0.59056   0.88204   0.26765   0.00000  Uiso   1.00
C1173  C     0.87623   0.65087   0.78089   0.00000  Uiso   1.00
C1174  C     0.63222   0.84064   0.23204   0.00000  Uiso   1.00
C1175  C     0.87309   0.90057   0.71899   0.00000  Uiso   1.00
C1176  C     0.61766   0.59018   0.26667   0.00000  Uiso   1.00
C1177  C     0.59931   0.87362   0.71887   0.00000  Uiso   1.00
C1178  C     0.90925   0.61781   0.26822   0.00000  Uiso   1.00
C1179  C     0.62627   0.59916   0.71909   0.00000  Uiso   1.00
C1180  C     0.84264   0.87003   0.22776   0.00000  Uiso   1.00
C1181  C     0.86982   0.84264   0.22752   0.00000  Uiso   1.00
C1182  C     0.59929   0.62675   0.71913   0.00000  Uiso   1.00
C1183  C     0.88198   0.59052   0.26768   0.00000  Uiso   1.00
C1184  C     0.62690   0.90060   0.71891   0.00000  Uiso   1.00
C1185  C     0.59040   0.61747   0.26724   0.00000  Uiso   1.00
C1186  C     0.90070   0.87362   0.71898   0.00000  Uiso   1.00
C1187  C     0.65950   0.86789   0.23260   0.00000  Uiso   1.00
C1188  C     0.84925   0.62329   0.78084   0.00000  Uiso   1.00
C1189  C     0.99032   0.71758   0.45906   0.00000  Uiso   1.00
C1190  C     0.50705   0.78309   0.54148   0.00000  Uiso   1.00
C1191  C     0.78238   0.50965   0.45905   0.00000  Uiso   1.00
C1192  C     0.71694   0.99287   0.54148   0.00000  Uiso   1.00
C1193  C     0.50963   0.78241   0.45906   0.00000  Uiso   1.00
C1194  C     0.99292   0.71690   0.54148   0.00000  Uiso   1.00
C1195  C     0.71761   0.99028   0.45907   0.00000  Uiso   1.00
C1196  C     0.78308   0.50705   0.54147   0.00000  Uiso   1.00
C1197  C     0.75744   0.96703   0.95851   0.00000  Uiso   1.00
C1198  C     0.73989   0.53234   0.04092   0.00000  Uiso   1.00
C1199  C     0.53302   0.74275   0.95851   0.00000  Uiso   1.00
C1200  C     0.96765   0.75992   0.04094   0.00000  Uiso   1.00
C1201  C     0.74246   0.53304   0.95850   0.00000  Uiso   1.00
C1202  C     0.76005   0.96777   0.04091   0.00000  Uiso   1.00
C1203  C     0.96696   0.75734   0.95852   0.00000  Uiso   1.00
C1204  C     0.53231   0.74016   0.04093   0.00000  Uiso   1.00
C1205  C     0.59811   0.84804   0.24976   0.00000  Uiso   1.00
C1206  C     0.90178   0.65207   0.75005   0.00000  Uiso   1.00
C1207  C     0.65196   0.59810   0.24966   0.00000  Uiso   1.00
C1208  C     0.84788   0.90174   0.75011   0.00000  Uiso   1.00
C1209  C     0.90196   0.65189   0.25032   0.00000  Uiso   1.00
C1210  C     0.59789   0.84826   0.74989   0.00000  Uiso   1.00
C1211  C     0.84816   0.90201   0.25010   0.00000  Uiso   1.00
C1212  C     0.65178   0.59792   0.74995   0.00000  Uiso   1.00
C1213  C     0.59824   0.65210   0.75013   0.00000  Uiso   1.00
C1214  C     0.90186   0.84799   0.24982   0.00000  Uiso   1.00
C1215  C     0.65210   0.90176   0.75003   0.00000  Uiso   1.00
C1216  C     0.84802   0.59813   0.24979   0.00000  Uiso   1.00
C1217  C     0.90210   0.84824   0.74998   0.00000  Uiso   1.00
C1218  C     0.59803   0.65188   0.25023   0.00000  Uiso   1.00
C1219  C     0.84824   0.59791   0.74987   0.00000  Uiso   1.00
C1220  C     0.65191   0.90195   0.25035   0.00000  Uiso   1.00
C1221  C     0.99998   0.74999   0.47967   0.00000  Uiso   1.00
C1222  C     0.99998   0.74999   0.52085   0.00000  Uiso   1.00
C1223  C     0.75000   0.99996   0.47967   0.00000  Uiso   1.00
C1224  C     0.75000   0.99996   0.52085   0.00000  Uiso   1.00
C1225  C     0.74995   0.50004   0.97912   0.00000  Uiso   1.00
C1226  C     0.74996   0.50005   0.02030   0.00000  Uiso   1.00
C1227  C     0.99999   0.75005   0.97914   0.00000  Uiso   1.00
C1228  C     0.99998   0.75004   0.02032   0.00000  Uiso   1.00
O1229  O     0.75000   0.50000   0.25000   0.00000  Uiso   1.00
O1230  O     0.75000   0.50000   0.75000   0.00000  Uiso   1.00
O1231  O     0.50000   0.75000   0.25000   0.00000  Uiso   1.00
O1232  O     0.50000   0.75000   0.75000   0.00000  Uiso   1.00
O1233  O     0.75000   0.96964   0.33755   0.00000  Uiso   1.00
O1234  O     0.75000   0.53037   0.66245   0.00000  Uiso   1.00
O1235  O     0.53036   0.75000   0.33755   0.00000  Uiso   1.00
O1236  O     0.96963   0.75000   0.66245   0.00000  Uiso   1.00
O1237  O     0.75000   0.53037   0.33755   0.00000  Uiso   1.00
O1238  O     0.75000   0.96964   0.66245   0.00000  Uiso   1.00
O1239  O     0.96963   0.75000   0.33755   0.00000  Uiso   1.00
O1240  O     0.53036   0.75000   0.66245   0.00000  Uiso   1.00
O1241  O     0.50000   0.71964   0.83755   0.00000  Uiso   1.00
O1242  O     0.50000   0.78037   0.16245   0.00000  Uiso   1.00
O1243  O     0.78036   0.50000   0.83755   0.00000  Uiso   1.00
O1244  O     0.71963   0.50000   0.16245   0.00000  Uiso   1.00
O1245  O     0.50000   0.78037   0.83755   0.00000  Uiso   1.00
O1246  O     0.50000   0.71964   0.16245   0.00000  Uiso   1.00
O1247  O     0.71963   0.50000   0.83755   0.00000  Uiso   1.00
O1248  O     0.78036   0.50000   0.16245   0.00000  Uiso   1.00
O1249  O     0.70724   0.57308   0.27302   0.00000  Uiso   1.00
O1250  O     0.79275   0.92693   0.72698   0.00000  Uiso   1.00
O1251  O     0.92692   0.70725   0.27302   0.00000  Uiso   1.00
O1252  O     0.57307   0.79276   0.72698   0.00000  Uiso   1.00
O1253  O     0.79275   0.92693   0.27302   0.00000  Uiso   1.00
O1254  O     0.70724   0.57308   0.72698   0.00000  Uiso   1.00
O1255  O     0.57307   0.79276   0.27302   0.00000  Uiso   1.00
O1256  O     0.92692   0.70725   0.72698   0.00000  Uiso   1.00
O1257  O     0.70724   0.92693   0.72698   0.00000  Uiso   1.00
O1258  O     0.79275   0.57308   0.27302   0.00000  Uiso   1.00
O1259  O     0.92692   0.79276   0.72698   0.00000  Uiso   1.00
O1260  O     0.57307   0.70725   0.27302   0.00000  Uiso   1.00
O1261  O     0.79275   0.57308   0.72698   0.00000  Uiso   1.00
O1262  O     0.70724   0.92693   0.27302   0.00000  Uiso   1.00
O1263  O     0.57307   0.70725   0.72698   0.00000  Uiso   1.00
O1264  O     0.92692   0.79276   0.27302   0.00000  Uiso   1.00
O1265  O     0.95724   0.82308   0.77302   0.00000  Uiso   1.00
O1266  O     0.54275   0.67693   0.22698   0.00000  Uiso   1.00
O1267  O     0.67692   0.95725   0.77302   0.00000  Uiso   1.00
O1268  O     0.82307   0.54276   0.22698   0.00000  Uiso   1.00
O1269  O     0.54275   0.67693   0.77302   0.00000  Uiso   1.00
O1270  O     0.95724   0.82308   0.22698   0.00000  Uiso   1.00
O1271  O     0.82307   0.54276   0.77302   0.00000  Uiso   1.00
O1272  O     0.67692   0.95725   0.22698   0.00000  Uiso   1.00
O1273  O     0.95724   0.67693   0.22698   0.00000  Uiso   1.00
O1274  O     0.54275   0.82308   0.77302   0.00000  Uiso   1.00
O1275  O     0.67692   0.54276   0.22698   0.00000  Uiso   1.00
O1276  O     0.82307   0.95725   0.77302   0.00000  Uiso   1.00
O1277  O     0.54275   0.82308   0.22698   0.00000  Uiso   1.00
O1278  O     0.95724   0.67693   0.77302   0.00000  Uiso   1.00
O1279  O     0.82307   0.95725   0.22698   0.00000  Uiso   1.00
O1280  O     0.67692   0.54276   0.77302   0.00000  Uiso   1.00
Zn1281 Zn    0.70659   0.50000   0.21735   0.00000  Uiso   1.00
Zn1282 Zn    0.79340   0.50000   0.78265   0.00000  Uiso   1.00
Zn1283 Zn    0.50000   0.70660   0.21735   0.00000  Uiso   1.00
Zn1284 Zn    0.50000   0.79341   0.78265   0.00000  Uiso   1.00
Zn1285 Zn    0.79340   0.50000   0.21735   0.00000  Uiso   1.00
Zn1286 Zn    0.70659   0.50000   0.78265   0.00000  Uiso   1.00
Zn1287 Zn    0.50000   0.79341   0.21735   0.00000  Uiso   1.00
Zn1288 Zn    0.50000   0.70660   0.78265   0.00000  Uiso   1.00
Zn1289 Zn    0.95659   0.75000   0.71735   0.00000  Uiso   1.00
Zn1290 Zn    0.54340   0.75000   0.28265   0.00000  Uiso   1.00
Zn1291 Zn    0.75000   0.95660   0.71735   0.00000  Uiso   1.00
Zn1292 Zn    0.75000   0.54341   0.28265   0.00000  Uiso   1.00
Zn1293 Zn    0.54340   0.75000   0.71735   0.00000  Uiso   1.00
Zn1294 Zn    0.95659   0.75000   0.28265   0.00000  Uiso   1.00
Zn1295 Zn    0.75000   0.54341   0.71735   0.00000  Uiso   1.00
Zn1296 Zn    0.75000   0.95660   0.28265   0.00000  Uiso   1.00
Cl1297 Cl    0.98471   0.64097   0.45763   0.00000  Uiso   1.00
Cl1298 Cl    0.53801   0.85331   0.54305   0.00000  Uiso   1.00
Cl1299 Cl    0.85895   0.51522   0.45760   0.00000  Uiso   1.00
Cl1300 Cl    0.64680   0.96181   0.54309   0.00000  Uiso   1.00
Cl1301 Cl    0.51517   0.85902   0.45765   0.00000  Uiso   1.00
Cl1302 Cl    0.96194   0.64668   0.54306   0.00000  Uiso   1.00
Cl1303 Cl    0.64105   0.98460   0.45768   0.00000  Uiso   1.00
Cl1304 Cl    0.85325   0.53803   0.54302   0.00000  Uiso   1.00
Cl1305 Cl    0.78925   0.89718   0.95694   0.00000  Uiso   1.00
Cl1306 Cl    0.73330   0.60887   0.04233   0.00000  Uiso   1.00
Cl1307 Cl    0.60301   0.71133   0.95694   0.00000  Uiso   1.00
Cl1308 Cl    0.89112   0.76606   0.04235   0.00000  Uiso   1.00
Cl1309 Cl    0.71059   0.60286   0.95692   0.00000  Uiso   1.00
Cl1310 Cl    0.76651   0.89124   0.04237   0.00000  Uiso   1.00
Cl1311 Cl    0.89701   0.78883   0.95694   0.00000  Uiso   1.00
Cl1312 Cl    0.60884   0.73414   0.04234   0.00000  Uiso   1.00
C1313  C     0.61070   0.94561   0.28847   0.00000  Uiso   1.00
H1314  H     0.63424   0.96467   0.28833   0.00000  Uiso   1.00
H1315  H     0.58760   0.95996   0.27409   0.00000  Uiso   1.00
H1316  H     0.60404   0.94066   0.31950   0.00000  Uiso   1.00
C1317  C     0.87279   0.57098   0.68646   0.00000  Uiso   1.00
H1318  H     0.85113   0.55002   0.68955   0.00000  Uiso   1.00
H1319  H     0.86809   0.58492   0.65823   0.00000  Uiso   1.00
H1320  H     0.89913   0.55585   0.68558   0.00000  Uiso   1.00
C1321  C     0.63863   0.69740   0.21534   0.00000  Uiso   1.00
H1322  H     0.61783   0.70269   0.19250   0.00000  Uiso   1.00
H1323  H     0.63620   0.71867   0.23822   0.00000  Uiso   1.00
H1324  H     0.66574   0.70118   0.20170   0.00000  Uiso   1.00
C1325  C     0.88001   0.82120   0.81352   0.00000  Uiso   1.00
H1326  H     0.90684   0.82410   0.82830   0.00000  Uiso   1.00
H1327  H     0.85883   0.82336   0.83632   0.00000  Uiso   1.00
H1328  H     0.87792   0.79322   0.80110   0.00000  Uiso   1.00
C1329  C     0.80435   0.63953   0.21194   0.00000  Uiso   1.00
H1330  H     0.78530   0.61599   0.21205   0.00000  Uiso   1.00
H1331  H     0.79007   0.66260   0.22648   0.00000  Uiso   1.00
H1332  H     0.80920   0.64630   0.18092   0.00000  Uiso   1.00
C1333  C     0.67879   0.87737   0.81360   0.00000  Uiso   1.00
H1334  H     0.69987   0.89890   0.81041   0.00000  Uiso   1.00
H1335  H     0.66482   0.88231   0.84176   0.00000  Uiso   1.00
H1336  H     0.69378   0.85095   0.81467   0.00000  Uiso   1.00
C1337  C     0.94251   0.88381   0.29551   0.00000  Uiso   1.00
H1338  H     0.96631   0.88304   0.27553   0.00000  Uiso   1.00
H1339  H     0.94475   0.90940   0.31248   0.00000  Uiso   1.00
H1340  H     0.94477   0.86079   0.31643   0.00000  Uiso   1.00
C1341  C     0.62271   0.67896   0.81359   0.00000  Uiso   1.00
H1342  H     0.60107   0.69995   0.81049   0.00000  Uiso   1.00
H1343  H     0.61795   0.66501   0.84180   0.00000  Uiso   1.00
H1344  H     0.64905   0.69408   0.81452   0.00000  Uiso   1.00
C1345  C     0.67907   0.62032   0.81325   0.00000  Uiso   1.00
H1346  H     0.67629   0.59351   0.82814   0.00000  Uiso   1.00
H1347  H     0.70698   0.62240   0.80066   0.00000  Uiso   1.00
H1348  H     0.67699   0.64159   0.83597   0.00000  Uiso   1.00
C1349  C     0.88565   0.94203   0.29614   0.00000  Uiso   1.00
H1350  H     0.86270   0.96174   0.29438   0.00000  Uiso   1.00
H1351  H     0.88869   0.93480   0.32730   0.00000  Uiso   1.00
H1352  H     0.91045   0.95673   0.28594   0.00000  Uiso   1.00
C1353  C     0.62002   0.82117   0.81338   0.00000  Uiso   1.00
H1354  H     0.59320   0.82409   0.82818   0.00000  Uiso   1.00
H1355  H     0.62208   0.79319   0.80094   0.00000  Uiso   1.00
H1356  H     0.64122   0.82330   0.83615   0.00000  Uiso   1.00
C1357  C     0.86190   0.69694   0.21406   0.00000  Uiso   1.00
H1358  H     0.88292   0.70177   0.19134   0.00000  Uiso   1.00
H1359  H     0.83493   0.70058   0.20008   0.00000  Uiso   1.00
H1360  H     0.86421   0.71859   0.23655   0.00000  Uiso   1.00
C1361  C     0.82130   0.87749   0.81381   0.00000  Uiso   1.00
H1362  H     0.80025   0.89907   0.81067   0.00000  Uiso   1.00
H1363  H     0.80626   0.85111   0.81496   0.00000  Uiso   1.00
H1364  H     0.83534   0.88243   0.84194   0.00000  Uiso   1.00
C1365  C     0.69605   0.63988   0.21285   0.00000  Uiso   1.00
H1366  H     0.71500   0.61627   0.21269   0.00000  Uiso   1.00
H1367  H     0.69147   0.64713   0.18190   0.00000  Uiso   1.00
H1368  H     0.71030   0.66267   0.22790   0.00000  Uiso   1.00
C1369  C     0.92917   0.62961   0.68683   0.00000  Uiso   1.00
H1370  H     0.95706   0.62752   0.69945   0.00000  Uiso   1.00
H1371  H     0.92712   0.60831   0.66412   0.00000  Uiso   1.00
H1372  H     0.92642   0.65640   0.67189   0.00000  Uiso   1.00
C1373  C     0.55320   0.88818   0.28606   0.00000  Uiso   1.00
H1374  H     0.53179   0.88624   0.26333   0.00000  Uiso   1.00
H1375  H     0.54809   0.86695   0.30850   0.00000  Uiso   1.00
H1376  H     0.54967   0.91505   0.30033   0.00000  Uiso   1.00
C1377  C     0.87711   0.67910   0.81335   0.00000  Uiso   1.00
H1378  H     0.89872   0.70012   0.81021   0.00000  Uiso   1.00
H1379  H     0.85074   0.69418   0.81418   0.00000  Uiso   1.00
H1380  H     0.88185   0.66524   0.84161   0.00000  Uiso   1.00
C1381  C     0.63945   0.80425   0.21197   0.00000  Uiso   1.00
H1382  H     0.61592   0.78519   0.21207   0.00000  Uiso   1.00
H1383  H     0.64626   0.80908   0.18095   0.00000  Uiso   1.00
H1384  H     0.66249   0.78996   0.22653   0.00000  Uiso   1.00
C1385  C     0.87000   0.92879   0.68659   0.00000  Uiso   1.00
H1386  H     0.84318   0.92585   0.67180   0.00000  Uiso   1.00
H1387  H     0.87205   0.95678   0.69900   0.00000  Uiso   1.00
H1388  H     0.89119   0.92664   0.66380   0.00000  Uiso   1.00
C1389  C     0.61124   0.55247   0.28426   0.00000  Uiso   1.00
H1390  H     0.63199   0.54707   0.30711   0.00000  Uiso   1.00
H1391  H     0.58410   0.54866   0.29783   0.00000  Uiso   1.00
H1392  H     0.61368   0.53129   0.26129   0.00000  Uiso   1.00
C1393  C     0.57130   0.87254   0.68621   0.00000  Uiso   1.00
H1394  H     0.55026   0.85095   0.68935   0.00000  Uiso   1.00
H1395  H     0.55625   0.89893   0.68510   0.00000  Uiso   1.00
H1396  H     0.58534   0.86763   0.65808   0.00000  Uiso   1.00
C1397  C     0.94549   0.61065   0.28855   0.00000  Uiso   1.00
H1398  H     0.96449   0.63422   0.28848   0.00000  Uiso   1.00
H1399  H     0.94048   0.60397   0.31957   0.00000  Uiso   1.00
H1400  H     0.95988   0.58756   0.27418   0.00000  Uiso   1.00
C1401  C     0.62719   0.57094   0.68660   0.00000  Uiso   1.00
H1402  H     0.64877   0.54990   0.68977   0.00000  Uiso   1.00
H1403  H     0.60081   0.55589   0.68572   0.00000  Uiso   1.00
H1404  H     0.63198   0.58482   0.65836   0.00000  Uiso   1.00
C1405  C     0.80751   0.86619   0.20440   0.00000  Uiso   1.00
H1406  H     0.78373   0.86691   0.22439   0.00000  Uiso   1.00
H1407  H     0.80523   0.88924   0.18353   0.00000  Uiso   1.00
H1408  H     0.80530   0.84062   0.18739   0.00000  Uiso   1.00
C1409  C     0.86459   0.80817   0.20337   0.00000  Uiso   1.00
H1410  H     0.88764   0.78857   0.20496   0.00000  Uiso   1.00
H1411  H     0.83986   0.79329   0.21345   0.00000  Uiso   1.00
H1412  H     0.86153   0.81562   0.17227   0.00000  Uiso   1.00
C1413  C     0.57093   0.62967   0.68687   0.00000  Uiso   1.00
H1414  H     0.57374   0.65646   0.67195   0.00000  Uiso   1.00
H1415  H     0.57300   0.60838   0.66416   0.00000  Uiso   1.00
H1416  H     0.54302   0.62762   0.69945   0.00000  Uiso   1.00
C1417  C     0.88798   0.55319   0.28634   0.00000  Uiso   1.00
H1418  H     0.86691   0.54847   0.30904   0.00000  Uiso   1.00
H1419  H     0.88567   0.53146   0.26393   0.00000  Uiso   1.00
H1420  H     0.91492   0.54957   0.30038   0.00000  Uiso   1.00
C1421  C     0.62999   0.92884   0.68652   0.00000  Uiso   1.00
H1422  H     0.65682   0.92595   0.67173   0.00000  Uiso   1.00
H1423  H     0.60880   0.92669   0.66373   0.00000  Uiso   1.00
H1424  H     0.62789   0.95682   0.69896   0.00000  Uiso   1.00
C1425  C     0.55379   0.60994   0.28667   0.00000  Uiso   1.00
H1426  H     0.53481   0.63353   0.28681   0.00000  Uiso   1.00
H1427  H     0.53964   0.58719   0.27146   0.00000  Uiso   1.00
H1428  H     0.55823   0.60260   0.31762   0.00000  Uiso   1.00
C1429  C     0.92879   0.87261   0.68639   0.00000  Uiso   1.00
H1430  H     0.94989   0.85109   0.68959   0.00000  Uiso   1.00
H1431  H     0.91483   0.86763   0.65823   0.00000  Uiso   1.00
H1432  H     0.94376   0.89903   0.68529   0.00000  Uiso   1.00
C1433  C     0.69694   0.86167   0.21440   0.00000  Uiso   1.00
H1434  H     0.71825   0.86363   0.23724   0.00000  Uiso   1.00
H1435  H     0.70051   0.83477   0.20021   0.00000  Uiso   1.00
H1436  H     0.70219   0.88285   0.19193   0.00000  Uiso   1.00
C1437  C     0.82083   0.62041   0.81307   0.00000  Uiso   1.00
H1438  H     0.79294   0.62247   0.80044   0.00000  Uiso   1.00
H1439  H     0.82361   0.59363   0.82801   0.00000  Uiso   1.00
H1440  H     0.82287   0.64172   0.83575   0.00000  Uiso   1.00
Cl1441 Cl    0.53929   0.81310   0.39123   0.00000  Uiso   1.00
Cl1442 Cl    0.50452   0.67616   0.60973   0.00000  Uiso   1.00
Cl1443 Cl    0.68695   0.96063   0.39121   0.00000  Uiso   1.00
Cl1444 Cl    0.82379   0.99546   0.60972   0.00000  Uiso   1.00
Cl1445 Cl    0.96068   0.68689   0.39121   0.00000  Uiso   1.00
Cl1446 Cl    0.99541   0.82383   0.60973   0.00000  Uiso   1.00
Cl1447 Cl    0.81302   0.53939   0.39124   0.00000  Uiso   1.00
Cl1448 Cl    0.67621   0.50450   0.60973   0.00000  Uiso   1.00
Cl1449 Cl    0.75356   0.57391   0.89024   0.00000  Uiso   1.00
Cl1450 Cl    0.79036   0.93756   0.10859   0.00000  Uiso   1.00
Cl1451 Cl    0.92617   0.74595   0.89029   0.00000  Uiso   1.00
Cl1452 Cl    0.56278   0.71022   0.10871   0.00000  Uiso   1.00
Cl1453 Cl    0.74630   0.92614   0.89027   0.00000  Uiso   1.00
Cl1454 Cl    0.70989   0.56267   0.10878   0.00000  Uiso   1.00
Cl1455 Cl    0.57381   0.75411   0.89025   0.00000  Uiso   1.00
Cl1456 Cl    0.93713   0.78972   0.10881   0.00000  Uiso   1.00
loop_
_geom_bond_atom_site_label_1
_geom_bond_atom_site_label_2
_geom_bond_distance
_geom_bond_site_symmetry_2
_ccdc_geom_bond_type
C1     C101    1.415   .     A
C1     Cl349   1.778   .     S
C1     C381    1.400   1_455 S
C2     C102    1.414   .     A
C2     C382    1.396   .     S
C2     Cl714   1.778   .     S
C3     C103    1.415   .     A
C3     C747    1.400   .     A
C3     Cl351   1.778   .     S
C4     C104    1.414   .     A
C4     C748    1.396   1_545 S
C4     Cl1080  1.778   1_545 S
C5     Cl353   1.778   .     S
C5     C17     1.400   .     A
C5     C97     1.415   .     A
C6     C98     1.414   .     A
C6     C18     1.396   .     A
C6     Cl718   1.778   1_455 S
C7     C99     1.415   .     A
C7     Cl355   1.778   .     S
C7     C19     1.400   .     S
C8     C100    1.414   .     A
C8     C20     1.396   .     A
C8     Cl1084  1.778   .     S
C9     C21     1.396   .     A
C9     Cl357   1.778   .     S
C9     C109    1.414   .     A
C10    C110    1.415   .     A
C10    Cl358   1.778   .     S
C10    C750    1.400   .     S
C11    C23     1.396   .     A
C11    Cl359   1.778   .     S
C11    C111    1.414   .     A
C12    C112    1.415   .     A
C12    Cl360   1.778   .     S
C12    C388    1.400   1_455 S
C13    Cl361   1.778   .     S
C13    C105    1.414   .     A
C13    C749    1.396   .     S
C14    Cl362   1.778   .     S
C14    C106    1.415   .     A
C14    C22     1.401   .     A
C15    Cl363   1.778   .     S
C15    C107    1.414   .     A
C15    C387    1.396   1_455 S
C16    Cl364   1.778   .     S
C16    C24     1.400   .     A
C16    C108    1.415   .     A
C17    C407    1.459   .     S
C17    C365    1.400   .     S
C18    C44     1.452   .     S
C18    C366    1.396   1_455 S
C19    C731    1.400   1_545 A
C19    C41     1.459   .     S
C20    C770    1.452   .     S
C20    C732    1.396   .     S
C21    C47     1.452   .     S
C21    C741    1.396   1_545 S
C22    C48     1.460   .     S
C22    C738    1.400   1_545 S
C23    C45     1.452   .     S
C23    C379    1.396   .     S
C24    C46     1.459   .     S
C24    C376    1.400   .     S
C25    C97     1.417   .     A
C25    Cl205   1.775   .     S
C25    C30     1.397   .     A
C26    Cl206   1.775   .     S
C26    C98     1.415   .     A
C26    C29     1.397   .     A
C27    C99     1.417   .     A
C27    C32     1.397   .     A
C27    Cl207   1.775   .     S
C28    Cl208   1.775   .     S
C28    C31     1.397   .     A
C28    C100    1.415   .     A
C29    Cl209   1.775   .     S
C29    C101    1.417   .     A
C30    C102    1.415   .     A
C30    Cl210   1.775   .     S
C31    C103    1.417   .     A
C31    Cl211   1.775   .     S
C32    C104    1.415   .     A
C32    Cl212   1.775   .     S
C33    Cl213   1.775   .     S
C33    C105    1.415   .     A
C33    C38     1.397   1_556 S
C34    C106    1.417   .     A
C34    Cl214   1.775   .     S
C34    C37     1.397   1_554 S
C35    C107    1.415   .     A
C35    Cl215   1.775   .     S
C35    C40     1.397   1_556 S
C36    C108    1.417   .     A
C36    Cl216   1.775   .     S
C36    C39     1.397   1_554 S
C37    C109    1.415   .     A
C37    Cl217   1.775   .     S
C37    C34     1.397   1_556 S
C38    Cl218   1.775   .     S
C38    C110    1.417   .     A
C38    C33     1.397   1_554 S
C39    C111    1.415   .     A
C39    Cl219   1.775   .     S
C39    C36     1.397   1_556 S
C40    Cl220   1.775   .     S
C40    C112    1.417   .     A
C40    C35     1.397   1_554 S
C41    O145    1.276   .     A
C41    O869    1.276   1_545 S
C42    C748    1.452   1_545 S
C42    O874    1.273   1_545 A
C42    O142    1.273   .     S
C43    C381    1.459   1_455 S
C43    O511    1.276   1_455 A
C43    O143    1.276   .     S
C44    O148    1.274   .     A
C44    O508    1.274   1_455 S
C45    O513    1.273   .     S
C45    O517    1.273   .     S
C46    O514    1.276   .     S
C46    O518    1.276   .     S
C47    O151    1.274   .     A
C47    O155    1.274   .     A
C48    O156    1.276   .     A
C48    O152    1.276   .     A
C49    C115    1.452   .     S
C49    O157    1.278   .     A
C49    O183    1.275   .     A
C50    O184    1.277   .     A
C50    O158    1.276   .     A
C50    C116    1.452   .     S
C51    O181    1.277   .     A
C51    O159    1.275   .     A
C51    C117    1.453   .     S
C52    O182    1.276   .     A
C52    O160    1.277   .     A
C52    C118    1.453   .     S
C53    C119    1.453   .     S
C53    O187    1.276   .     A
C53    O161    1.277   .     A
C54    O188    1.276   .     A
C54    C120    1.452   .     S
C54    O162    1.277   .     A
C55    O163    1.277   .     A
C55    C113    1.453   .     S
C55    O185    1.276   .     A
C56    O164    1.276   .     A
C56    O186    1.277   .     A
C56    C114    1.453   .     S
C57    C123    1.453   .     S
C57    O175    1.277   .     A
C57    O165    1.276   .     A
C58    O166    1.277   .     A
C58    O176    1.276   .     A
C58    C124    1.453   .     S
C59    O167    1.277   .     A
C59    C125    1.452   .     S
C59    O173    1.276   .     A
C60    O174    1.277   .     A
C60    O168    1.276   .     A
C60    C126    1.453   .     S
C61    C127    1.453   .     S
C61    O179    1.276   .     A
C61    O169    1.277   .     A
C62    O170    1.276   .     A
C62    O180    1.278   .     A
C62    C128    1.453   .     S
C63    O171    1.276   .     A
C63    C121    1.452   .     S
C63    O177    1.277   .     A
C64    O172    1.277   .     A
C64    O178    1.276   .     A
C64    C122    1.452   .     S
C65    C221    1.521   .     S
C65    C128    1.414   .     A
C65    C80     1.410   .     A
C66    C79     1.410   .     A
C66    C225    1.521   .     S
C66    C127    1.415   .     A
C67    C229    1.523   .     S
C67    C126    1.413   .     A
C67    C78     1.410   .     A
C68    C77     1.410   .     A
C68    C233    1.523   .     S
C68    C125    1.413   .     A
C69    C76     1.410   .     A
C69    C124    1.415   .     A
C69    C237    1.521   .     S
C70    C75     1.410   .     A
C70    C241    1.521   .     S
C70    C123    1.414   .     A
C71    C122    1.413   .     A
C71    C245    1.522   .     S
C71    C74     1.410   .     A
C72    C73     1.410   .     A
C72    C249    1.521   .     S
C72    C121    1.415   .     A
C73    C120    1.413   .     A
C73    C253    1.523   .     S
C74    C257    1.521   .     S
C74    C119    1.414   .     A
C75    C261    1.523   .     S
C75    C118    1.413   .     A
C76    C117    1.413   .     A
C76    C265    1.523   .     S
C77    C269    1.521   .     S
C77    C116    1.415   .     A
C78    C115    1.414   .     A
C78    C273    1.521   .     S
C79    C277    1.523   .     S
C79    C114    1.413   .     A
C80    C281    1.522   .     S
C80    C113    1.413   .     A
C81    C114    1.414   .     A
C81    C285    1.521   .     S
C81    C96     1.410   .     A
C82    C289    1.521   .     S
C82    C95     1.410   .     A
C82    C113    1.414   .     A
C83    C94     1.410   .     A
C83    C116    1.413   .     A
C83    C293    1.523   .     S
C84    C93     1.410   .     A
C84    C297    1.523   .     S
C84    C115    1.413   .     A
C85    C301    1.521   .     S
C85    C92     1.410   .     A
C85    C118    1.415   .     A
C86    C117    1.415   .     A
C86    C91     1.410   .     A
C86    C305    1.521   .     S
C87    C309    1.521   .     S
C87    C90     1.410   .     A
C87    C120    1.414   .     A
C88    C119    1.413   .     A
C88    C313    1.521   .     S
C88    C89     1.410   .     A
C89    C122    1.414   .     A
C89    C317    1.521   .     S
C90    C121    1.413   .     A
C90    C321    1.523   .     S
C91    C325    1.523   .     S
C91    C124    1.413   .     A
C92    C123    1.413   .     A
C92    C329    1.523   .     S
C93    C126    1.415   .     A
C93    C333    1.521   .     S
C94    C337    1.521   .     S
C94    C125    1.414   .     A
C95    C128    1.413   .     A
C95    C341    1.522   .     S
C96    C127    1.413   .     A
C96    C345    1.523   .     S
C97    C129    1.425   .     A
C98    C494    1.426   1_455 S
C99    C859    1.425   1_545 S
C100   C132    1.426   .     A
C101   C493    1.425   1_455 S
C102   C130    1.426   .     A
C103   C131    1.425   .     A
C104   C860    1.426   1_545 S
C105   C861    1.426   .     S
C106   C134    1.425   .     A
C107   C499    1.426   1_455 S
C108   C136    1.425   .     A
C109   C133    1.426   .     A
C110   C862    1.425   .     S
C111   C135    1.426   .     A
C112   C500    1.425   1_455 S
C129   C130    1.418   .     A
C129   C465    1.425   .     S
C130   C462    1.426   .     S
C131   C132    1.418   .     A
C131   C827    1.425   .     S
C132   C832    1.426   .     S
C133   C833    1.426   1_545 S
C133   C134    1.417   1_556 S
C134   C838    1.425   1_545 S
C134   C133    1.417   1_554 S
C135   C471    1.426   .     S
C135   C136    1.418   1_556 S
C136   C476    1.425   .     S
C136   C135    1.418   1_554 S
O137   Zn193   1.944   .     S
O137   Zn200   1.943   .     S
O137   Zn189   1.944   .     S
O137   Zn932   1.944   1_545 S
O138   Zn194   1.944   .     S
O138   Zn203   1.944   .     S
O138   Zn190   1.944   .     S
O138   Zn927   1.943   1_545 S
O139   Zn195   1.944   .     S
O139   Zn198   1.944   .     S
O139   Zn191   1.943   .     S
O139   Zn566   1.944   1_455 S
O140   Zn196   1.944   .     S
O140   Zn192   1.943   .     S
O140   Zn201   1.944   .     S
O140   Zn561   1.944   1_455 S
O141   Zn204   1.949   .     S
O141   C769    1.276   .     S
O142   Zn203   1.949   .     S
O143   Zn198   1.949   .     S
O144   Zn197   1.949   .     S
O144   C408    1.274   .     S
O145   Zn200   1.949   .     S
O146   C770    1.273   .     A
O146   Zn199   1.949   .     S
O147   Zn202   1.949   .     S
O147   C407    1.276   .     A
O148   Zn201   1.949   .     S
O149   Zn196   1.949   .     S
O149   C409    1.273   1_455 S
O150   Zn195   1.949   .     S
O150   C410    1.276   1_455 S
O151   Zn190   1.949   .     S
O152   Zn189   1.949   .     S
O153   Zn192   1.949   .     S
O153   C409    1.273   1_455 S
O154   Zn191   1.949   .     S
O154   C410    1.276   1_455 S
O155   Zn194   1.949   .     S
O156   Zn193   1.949   .     S
O157   Zn200   1.931   .     S
O158   Zn199   1.931   .     S
O159   Zn202   1.930   .     S
O160   Zn201   1.930   .     S
O161   Zn204   1.930   .     S
O162   Zn203   1.930   .     S
O163   Zn198   1.930   .     S
O164   Zn197   1.930   .     S
O165   Zn199   1.931   .     S
O166   Zn200   1.931   .     S
O167   Zn197   1.930   .     S
O168   Zn198   1.930   .     S
O169   Zn203   1.931   .     S
O170   Zn204   1.931   .     S
O171   Zn201   1.930   .     S
O172   Zn202   1.930   .     S
O173   Zn556   1.931   .     S
O174   Zn191   1.931   .     S
O175   Zn922   1.930   .     S
O176   Zn193   1.930   .     S
O177   Zn196   1.930   .     S
O178   Zn559   1.930   .     S
O179   Zn190   1.930   .     S
O180   Zn917   1.930   .     S
O181   Zn555   1.931   .     S
O182   Zn192   1.931   .     S
O183   Zn189   1.930   .     S
O184   Zn918   1.930   .     S
O185   Zn195   1.931   .     S
O186   Zn560   1.931   .     S
O187   Zn921   1.930   .     S
O188   Zn194   1.930   .     S
Zn189  O908    1.930   1_545 S
Zn190  O912    1.930   1_545 S
Zn191  O545    1.931   1_455 S
Zn192  O537    1.931   1_455 S
Zn193  O915    1.930   1_545 S
Zn194  O903    1.930   1_545 S
Zn195  O542    1.930   1_455 S
Zn196  O550    1.931   1_455 S
Zn197  O504    1.944   .     S
Zn199  O866    1.943   .     S
Zn202  O503    1.944   .     S
Zn204  O865    1.944   .     S
C221   H222    1.107   .     S
C221   H224    1.110   .     S
C221   H223    1.110   .     S
C225   H228    1.110   .     S
C225   H227    1.110   .     S
C225   H226    1.107   .     S
C229   H230    1.111   .     S
C229   H232    1.105   .     S
C229   H231    1.110   .     S
C233   H234    1.110   .     S
C233   H236    1.111   .     S
C233   H235    1.105   .     S
C237   H238    1.106   .     S
C237   H239    1.110   .     S
C237   H240    1.110   .     S
C241   H243    1.110   .     S
C241   H244    1.110   .     S
C241   H242    1.107   .     S
C245   H246    1.109   .     S
C245   H248    1.111   .     S
C245   H247    1.105   .     S
C249   H250    1.107   .     S
C249   H252    1.110   .     S
C249   H251    1.110   .     S
C253   H256    1.105   .     S
C253   H254    1.110   .     S
C253   H255    1.111   .     S
C257   H258    1.107   .     S
C257   H260    1.110   .     S
C257   H259    1.110   .     S
C261   H262    1.110   .     S
C261   H264    1.105   .     S
C261   H263    1.111   .     S
C265   H267    1.105   .     S
C265   H266    1.111   .     S
C265   H268    1.110   .     S
C269   H271    1.110   .     S
C269   H272    1.110   .     S
C269   H270    1.107   .     S
C273   H276    1.110   .     S
C273   H274    1.106   .     S
C273   H275    1.110   .     S
C277   H280    1.110   .     S
C277   H279    1.105   .     S
C277   H278    1.111   .     S
C281   H284    1.105   .     S
C281   H283    1.111   .     S
C281   H282    1.109   .     S
C285   H287    1.110   .     S
C285   H286    1.107   .     S
C285   H288    1.110   .     S
C289   H290    1.107   .     S
C289   H292    1.110   .     S
C289   H291    1.110   .     S
C293   H296    1.105   .     S
C293   H294    1.110   .     S
C293   H295    1.111   .     S
C297   H299    1.105   .     S
C297   H298    1.111   .     S
C297   H300    1.110   .     S
C301   H304    1.110   .     S
C301   H302    1.107   .     S
C301   H303    1.110   .     S
C305   H307    1.110   .     S
C305   H306    1.106   .     S
C305   H308    1.110   .     S
C309   H311    1.110   .     S
C309   H310    1.107   .     S
C309   H312    1.110   .     S
C313   H315    1.110   .     S
C313   H314    1.109   .     S
C313   H316    1.105   .     S
C317   H320    1.110   .     S
C317   H319    1.110   .     S
C317   H318    1.107   .     S
C321   H322    1.110   .     S
C321   H324    1.111   .     S
C321   H323    1.105   .     S
C325   H327    1.110   .     S
C325   H326    1.111   .     S
C325   H328    1.105   .     S
C329   H330    1.110   .     S
C329   H331    1.105   .     S
C329   H332    1.111   .     S
C333   H334    1.106   .     S
C333   H336    1.110   .     S
C333   H335    1.110   .     S
C337   H338    1.107   .     S
C337   H340    1.110   .     S
C337   H339    1.110   .     S
C341   H343    1.105   .     S
C341   H344    1.111   .     S
C341   H342    1.109   .     S
C345   H348    1.105   .     S
C345   H347    1.110   .     S
C345   H346    1.111   .     S
Cl350  C366    1.778   1_455 S
Cl352  C732    1.778   .     S
Cl354  C370    1.778   .     S
Cl356  C736    1.778   1_545 S
C365   C465    1.415   .     A
C365   Cl713   1.778   .     S
C366   C466    1.414   .     A
C366   C18     1.396   1_655 S
C366   Cl350   1.778   1_655 S
C367   C467    1.415   .     A
C367   C1111   1.400   .     A
C367   Cl715   1.778   .     S
C368   C468    1.414   .     A
C368   C1112   1.396   1_545 S
C368   Cl1444  1.778   1_545 S
C369   Cl717   1.778   .     S
C369   C381    1.400   .     A
C369   C461    1.415   .     A
C370   C462    1.414   .     A
C370   C382    1.396   .     A
C371   C463    1.415   .     A
C371   Cl719   1.778   .     S
C371   C383    1.400   .     S
C372   C464    1.414   .     A
C372   C384    1.396   .     A
C372   Cl1448  1.778   .     S
C373   C385    1.396   .     A
C373   Cl721   1.778   .     S
C373   C473    1.414   .     A
C374   C474    1.415   .     A
C374   Cl722   1.778   .     S
C374   C1114   1.400   .     S
C375   C387    1.396   .     A
C375   Cl723   1.778   .     S
C375   C475    1.414   .     A
C376   C476    1.415   .     A
C376   Cl724   1.778   .     S
C377   Cl725   1.778   .     S
C377   C469    1.414   .     A
C377   C1113   1.396   .     S
C378   Cl726   1.778   .     S
C378   C470    1.415   .     A
C378   C386    1.401   .     A
C379   Cl727   1.778   .     S
C379   C471    1.414   .     A
C380   Cl728   1.778   .     S
C380   C388    1.400   .     A
C380   C472    1.415   .     A
C381   C43     1.459   1_655 S
C381   C1      1.400   1_655 S
C382   C408    1.452   .     S
C383   C1095   1.400   1_545 A
C383   C405    1.459   .     S
C384   C1134   1.452   .     S
C384   C1096   1.396   .     S
C385   C411    1.452   .     S
C385   C1105   1.396   1_545 S
C386   C412    1.460   .     S
C386   C1102   1.400   1_545 S
C387   C409    1.452   .     S
C387   C15     1.396   1_655 S
C388   C410    1.459   .     S
C388   C12     1.400   1_655 S
C389   C461    1.417   .     A
C389   Cl569   1.775   .     S
C389   C394    1.397   .     A
C390   Cl570   1.775   .     S
C390   C462    1.415   .     A
C390   C393    1.397   .     A
C391   C463    1.417   .     A
C391   C396    1.397   .     A
C391   Cl571   1.775   .     S
C392   Cl572   1.775   .     S
C392   C395    1.397   .     A
C392   C464    1.415   .     A
C393   Cl573   1.775   .     S
C393   C465    1.417   .     A
C394   C466    1.415   .     A
C394   Cl574   1.775   .     S
C395   C467    1.417   .     A
C395   Cl575   1.775   .     S
C396   C468    1.415   .     A
C396   Cl576   1.775   .     S
C397   Cl577   1.775   .     S
C397   C469    1.415   .     A
C397   C402    1.397   1_556 S
C398   C470    1.417   .     A
C398   Cl578   1.775   .     S
C398   C401    1.397   1_554 S
C399   C471    1.415   .     A
C399   Cl579   1.775   .     S
C399   C404    1.397   1_556 S
C400   C472    1.417   .     A
C400   Cl580   1.775   .     S
C400   C403    1.397   1_554 S
C401   C473    1.415   .     A
C401   Cl581   1.775   .     S
C401   C398    1.397   1_556 S
C402   Cl582   1.775   .     S
C402   C474    1.417   .     A
C402   C397    1.397   1_554 S
C403   C475    1.415   .     A
C403   Cl583   1.775   .     S
C403   C400    1.397   1_556 S
C404   Cl584   1.775   .     S
C404   C476    1.417   .     A
C404   C399    1.397   1_554 S
C405   O509    1.276   .     A
C405   O1233   1.276   1_545 S
C406   C1112   1.452   1_545 S
C406   O1238   1.273   1_545 A
C406   O506    1.273   .     S
C407   O507    1.276   .     S
C408   O512    1.274   .     A
C409   O149    1.273   1_655 S
C409   O153    1.273   1_655 S
C410   O150    1.276   1_655 S
C410   O154    1.276   1_655 S
C411   O515    1.274   .     A
C411   O519    1.274   .     A
C412   O520    1.276   .     A
C412   O516    1.276   .     A
C413   C479    1.452   .     S
C413   O521    1.278   .     A
C413   O547    1.275   .     A
C414   O548    1.277   .     A
C414   O522    1.276   .     A
C414   C480    1.452   .     S
C415   O545    1.277   .     A
C415   O523    1.275   .     A
C415   C481    1.453   .     S
C416   O546    1.276   .     A
C416   O524    1.277   .     A
C416   C482    1.453   .     S
C417   C483    1.453   .     S
C417   O551    1.276   .     A
C417   O525    1.277   .     A
C418   O552    1.276   .     A
C418   C484    1.452   .     S
C418   O526    1.277   .     A
C419   O527    1.277   .     A
C419   C477    1.453   .     S
C419   O549    1.276   .     A
C420   O528    1.276   .     A
C420   O550    1.277   .     A
C420   C478    1.453   .     S
C421   C487    1.453   .     S
C421   O539    1.277   .     A
C421   O529    1.276   .     A
C422   O530    1.277   .     A
C422   O540    1.276   .     A
C422   C488    1.453   .     S
C423   O531    1.277   .     A
C423   C489    1.452   .     S
C423   O537    1.276   .     A
C424   O538    1.277   .     A
C424   O532    1.276   .     A
C424   C490    1.453   .     S
C425   C491    1.453   .     S
C425   O543    1.276   .     A
C425   O533    1.277   .     A
C426   O534    1.276   .     A
C426   O544    1.278   .     A
C426   C492    1.453   .     S
C427   O535    1.276   .     A
C427   C485    1.452   .     S
C427   O541    1.277   .     A
C428   O536    1.277   .     A
C428   O542    1.276   .     A
C428   C486    1.452   .     S
C429   C585    1.521   .     S
C429   C492    1.414   .     A
C429   C444    1.410   .     A
C430   C443    1.410   .     A
C430   C589    1.521   .     S
C430   C491    1.415   .     A
C431   C593    1.523   .     S
C431   C490    1.413   .     A
C431   C442    1.410   .     A
C432   C441    1.410   .     A
C432   C597    1.523   .     S
C432   C489    1.413   .     A
C433   C440    1.410   .     A
C433   C488    1.415   .     A
C433   C601    1.521   .     S
C434   C439    1.410   .     A
C434   C605    1.521   .     S
C434   C487    1.414   .     A
C435   C486    1.413   .     A
C435   C609    1.522   .     S
C435   C438    1.410   .     A
C436   C437    1.410   .     A
C436   C613    1.521   .     S
C436   C485    1.415   .     A
C437   C484    1.413   .     A
C437   C617    1.523   .     S
C438   C621    1.521   .     S
C438   C483    1.414   .     A
C439   C625    1.523   .     S
C439   C482    1.413   .     A
C440   C481    1.413   .     A
C440   C629    1.523   .     S
C441   C633    1.521   .     S
C441   C480    1.415   .     A
C442   C479    1.414   .     A
C442   C637    1.521   .     S
C443   C641    1.523   .     S
C443   C478    1.413   .     A
C444   C645    1.522   .     S
C444   C477    1.413   .     A
C445   C478    1.414   .     A
C445   C649    1.521   .     S
C445   C460    1.410   .     A
C446   C653    1.521   .     S
C446   C459    1.410   .     A
C446   C477    1.414   .     A
C447   C458    1.410   .     A
C447   C480    1.413   .     A
C447   C657    1.523   .     S
C448   C457    1.410   .     A
C448   C661    1.523   .     S
C448   C479    1.413   .     A
C449   C665    1.521   .     S
C449   C456    1.410   .     A
C449   C482    1.415   .     A
C450   C481    1.415   .     A
C450   C455    1.410   .     A
C450   C669    1.521   .     S
C451   C673    1.521   .     S
C451   C454    1.410   .     A
C451   C484    1.414   .     A
C452   C483    1.413   .     A
C452   C677    1.521   .     S
C452   C453    1.410   .     A
C453   C486    1.414   .     A
C453   C681    1.521   .     S
C454   C485    1.413   .     A
C454   C685    1.523   .     S
C455   C689    1.523   .     S
C455   C488    1.413   .     A
C456   C487    1.413   .     A
C456   C693    1.523   .     S
C457   C490    1.415   .     A
C457   C697    1.521   .     S
C458   C701    1.521   .     S
C458   C489    1.414   .     A
C459   C492    1.413   .     A
C459   C705    1.522   .     S
C460   C491    1.413   .     A
C460   C709    1.523   .     S
C461   C493    1.425   .     A
C463   C1223   1.425   1_545 S
C464   C496    1.426   .     A
C466   C494    1.426   .     A
C467   C495    1.425   .     A
C468   C1224   1.426   1_545 S
C469   C1225   1.426   .     S
C470   C498    1.425   .     A
C472   C500    1.425   .     A
C473   C497    1.426   .     A
C474   C1226   1.425   .     S
C475   C499    1.426   .     A
C493   C494    1.418   .     A
C493   C101    1.425   1_655 S
C494   C98     1.426   1_655 S
C495   C496    1.418   .     A
C495   C1191   1.425   .     S
C496   C1196   1.426   .     S
C497   C1197   1.426   1_545 S
C497   C498    1.417   1_556 S
C498   C1202   1.425   1_545 S
C498   C497    1.417   1_554 S
C499   C107    1.426   1_655 S
C499   C500    1.418   1_556 S
C500   C112    1.425   1_655 S
C500   C499    1.418   1_554 S
O501   Zn557   1.944   .     S
O501   Zn564   1.943   .     S
O501   Zn553   1.944   .     S
O501   Zn1296  1.944   1_545 S
O502   Zn558   1.944   .     S
O502   Zn567   1.944   .     S
O502   Zn554   1.944   .     S
O502   Zn1291  1.943   1_545 S
O503   Zn559   1.944   .     S
O503   Zn562   1.944   .     S
O503   Zn555   1.943   .     S
O504   Zn560   1.944   .     S
O504   Zn556   1.943   .     S
O504   Zn565   1.944   .     S
O505   Zn568   1.949   .     S
O505   C1133   1.276   .     S
O506   Zn567   1.949   .     S
O507   Zn562   1.949   .     S
O508   Zn561   1.949   .     S
O508   C44     1.274   1_655 S
O509   Zn564   1.949   .     S
O510   C1134   1.273   .     A
O510   Zn563   1.949   .     S
O511   Zn566   1.949   .     S
O511   C43     1.276   1_655 A
O512   Zn565   1.949   .     S
O513   Zn560   1.949   .     S
O514   Zn559   1.949   .     S
O515   Zn554   1.949   .     S
O516   Zn553   1.949   .     S
O517   Zn556   1.949   .     S
O518   Zn555   1.949   .     S
O519   Zn558   1.949   .     S
O520   Zn557   1.949   .     S
O521   Zn564   1.931   .     S
O522   Zn563   1.931   .     S
O523   Zn566   1.930   .     S
O524   Zn565   1.930   .     S
O525   Zn568   1.930   .     S
O526   Zn567   1.930   .     S
O527   Zn562   1.930   .     S
O528   Zn561   1.930   .     S
O529   Zn563   1.931   .     S
O530   Zn564   1.931   .     S
O531   Zn561   1.930   .     S
O532   Zn562   1.930   .     S
O533   Zn567   1.931   .     S
O534   Zn568   1.931   .     S
O535   Zn565   1.930   .     S
O536   Zn566   1.930   .     S
O537   Zn192   1.931   1_655 S
O538   Zn555   1.931   .     S
O539   Zn1286  1.930   .     S
O540   Zn557   1.930   .     S
O541   Zn560   1.930   .     S
O542   Zn195   1.930   1_655 S
O543   Zn554   1.930   .     S
O544   Zn1281  1.930   .     S
O545   Zn191   1.931   1_655 S
O546   Zn556   1.931   .     S
O547   Zn553   1.930   .     S
O548   Zn1282  1.930   .     S
O549   Zn559   1.931   .     S
O550   Zn196   1.931   1_655 S
O551   Zn1285  1.930   .     S
O552   Zn558   1.930   .     S
Zn553  O1272   1.930   1_545 S
Zn554  O1276   1.930   1_545 S
Zn557  O1279   1.930   1_545 S
Zn558  O1267   1.930   1_545 S
Zn561  O140    1.944   1_655 S
Zn563  O1230   1.943   .     S
Zn566  O139    1.944   1_655 S
Zn568  O1229   1.944   .     S
C585   H586    1.107   .     S
C585   H588    1.110   .     S
C585   H587    1.110   .     S
C589   H592    1.110   .     S
C589   H591    1.110   .     S
C589   H590    1.107   .     S
C593   H594    1.111   .     S
C593   H596    1.105   .     S
C593   H595    1.110   .     S
C597   H598    1.110   .     S
C597   H600    1.111   .     S
C597   H599    1.105   .     S
C601   H602    1.106   .     S
C601   H603    1.110   .     S
C601   H604    1.110   .     S
C605   H607    1.110   .     S
C605   H608    1.110   .     S
C605   H606    1.107   .     S
C609   H610    1.109   .     S
C609   H612    1.111   .     S
C609   H611    1.105   .     S
C613   H614    1.107   .     S
C613   H616    1.110   .     S
C613   H615    1.110   .     S
C617   H620    1.105   .     S
C617   H618    1.110   .     S
C617   H619    1.111   .     S
C621   H622    1.107   .     S
C621   H624    1.110   .     S
C621   H623    1.110   .     S
C625   H626    1.110   .     S
C625   H628    1.105   .     S
C625   H627    1.111   .     S
C629   H631    1.105   .     S
C629   H630    1.111   .     S
C629   H632    1.110   .     S
C633   H635    1.110   .     S
C633   H636    1.110   .     S
C633   H634    1.107   .     S
C637   H640    1.110   .     S
C637   H638    1.106   .     S
C637   H639    1.110   .     S
C641   H644    1.110   .     S
C641   H643    1.105   .     S
C641   H642    1.111   .     S
C645   H648    1.105   .     S
C645   H647    1.111   .     S
C645   H646    1.109   .     S
C649   H651    1.110   .     S
C649   H650    1.107   .     S
C649   H652    1.110   .     S
C653   H654    1.107   .     S
C653   H656    1.110   .     S
C653   H655    1.110   .     S
C657   H660    1.105   .     S
C657   H658    1.110   .     S
C657   H659    1.111   .     S
C661   H663    1.105   .     S
C661   H662    1.111   .     S
C661   H664    1.110   .     S
C665   H668    1.110   .     S
C665   H666    1.107   .     S
C665   H667    1.110   .     S
C669   H671    1.110   .     S
C669   H670    1.106   .     S
C669   H672    1.110   .     S
C673   H675    1.110   .     S
C673   H674    1.107   .     S
C673   H676    1.110   .     S
C677   H679    1.110   .     S
C677   H678    1.109   .     S
C677   H680    1.105   .     S
C681   H684    1.110   .     S
C681   H683    1.110   .     S
C681   H682    1.107   .     S
C685   H686    1.110   .     S
C685   H688    1.111   .     S
C685   H687    1.105   .     S
C689   H691    1.110   .     S
C689   H690    1.111   .     S
C689   H692    1.105   .     S
C693   H694    1.110   .     S
C693   H695    1.105   .     S
C693   H696    1.111   .     S
C697   H698    1.106   .     S
C697   H700    1.110   .     S
C697   H699    1.110   .     S
C701   H702    1.107   .     S
C701   H704    1.110   .     S
C701   H703    1.110   .     S
C705   H707    1.105   .     S
C705   H708    1.111   .     S
C705   H706    1.109   .     S
C709   H712    1.105   .     S
C709   H711    1.110   .     S
C709   H710    1.111   .     S
Cl716  C1096   1.778   .     S
Cl718  C6      1.778   1_655 S
Cl720  C1100   1.778   1_545 S
C729   C829    1.415   .     A
C729   Cl1077  1.778   .     S
C729   C1109   1.400   1_455 S
C730   C830    1.414   .     A
C730   C1110   1.396   .     S
C730   Cl1442  1.778   .     S
C731   C831    1.415   .     A
C731   C19     1.400   1_565 A
C731   Cl1079  1.778   .     S
C732   C832    1.414   .     A
C733   Cl1081  1.778   .     S
C733   C745    1.400   .     A
C733   C825    1.415   .     A
C734   C826    1.414   .     A
C734   C746    1.396   .     A
C734   Cl1446  1.778   1_455 S
C735   C827    1.415   .     A
C735   Cl1083  1.778   .     S
C735   C747    1.400   .     S
C736   C828    1.414   .     A
C736   C748    1.396   .     A
C736   Cl356   1.778   1_565 S
C737   C749    1.396   .     A
C737   Cl1085  1.778   .     S
C737   C837    1.414   .     A
C738   C838    1.415   .     A
C738   Cl1086  1.778   .     S
C738   C22     1.400   1_565 S
C739   C751    1.396   .     A
C739   Cl1087  1.778   .     S
C739   C839    1.414   .     A
C740   C840    1.415   .     A
C740   Cl1088  1.778   .     S
C740   C1116   1.400   1_455 S
C741   Cl1089  1.778   .     S
C741   C833    1.414   .     A
C741   C21     1.396   1_565 S
C742   Cl1090  1.778   .     S
C742   C834    1.415   .     A
C742   C750    1.401   .     A
C743   Cl1091  1.778   .     S
C743   C835    1.414   .     A
C743   C1115   1.396   1_455 S
C744   Cl1092  1.778   .     S
C744   C752    1.400   .     A
C744   C836    1.415   .     A
C745   C1135   1.459   .     S
C745   C1093   1.400   .     S
C746   C772    1.452   .     S
C746   C1094   1.396   1_455 S
C747   C769    1.459   .     S
C748   C42     1.452   1_565 S
C748   C4      1.396   1_565 S
C749   C775    1.452   .     S
C750   C776    1.460   .     S
C751   C773    1.452   .     S
C751   C1107   1.396   .     S
C752   C774    1.459   .     S
C752   C1104   1.400   .     S
C753   C825    1.417   .     A
C753   Cl933   1.775   .     S
C753   C758    1.397   .     A
C754   Cl934   1.775   .     S
C754   C826    1.415   .     A
C754   C757    1.397   .     A
C755   C827    1.417   .     A
C755   C760    1.397   .     A
C755   Cl935   1.775   .     S
C756   Cl936   1.775   .     S
C756   C759    1.397   .     A
C756   C828    1.415   .     A
C757   Cl937   1.775   .     S
C757   C829    1.417   .     A
C758   C830    1.415   .     A
C758   Cl938   1.775   .     S
C759   C831    1.417   .     A
C759   Cl939   1.775   .     S
C760   C832    1.415   .     A
C760   Cl940   1.775   .     S
C761   Cl941   1.775   .     S
C761   C833    1.415   .     A
C761   C766    1.397   1_556 S
C762   C834    1.417   .     A
C762   Cl942   1.775   .     S
C762   C765    1.397   1_554 S
C763   C835    1.415   .     A
C763   Cl943   1.775   .     S
C763   C768    1.397   1_556 S
C764   C836    1.417   .     A
C764   Cl944   1.775   .     S
C764   C767    1.397   1_554 S
C765   C837    1.415   .     A
C765   Cl945   1.775   .     S
C765   C762    1.397   1_556 S
C766   Cl946   1.775   .     S
C766   C838    1.417   .     A
C766   C761    1.397   1_554 S
C767   C839    1.415   .     A
C767   Cl947   1.775   .     S
C767   C764    1.397   1_556 S
C768   Cl948   1.775   .     S
C768   C840    1.417   .     A
C768   C763    1.397   1_554 S
C769   O873    1.276   .     A
C770   O870    1.273   .     S
C771   C1109   1.459   1_455 S
C771   O1239   1.276   1_455 A
C771   O871    1.276   .     S
C772   O876    1.274   .     A
C772   O1236   1.274   1_455 S
C773   O1241   1.273   .     S
C773   O1245   1.273   .     S
C774   O1242   1.276   .     S
C774   O1246   1.276   .     S
C775   O879    1.274   .     A
C775   O883    1.274   .     A
C776   O884    1.276   .     A
C776   O880    1.276   .     A
C777   C843    1.452   .     S
C777   O885    1.278   .     A
C777   O911    1.275   .     A
C778   O912    1.277   .     A
C778   O886    1.276   .     A
C778   C844    1.452   .     S
C779   O909    1.277   .     A
C779   O887    1.275   .     A
C779   C845    1.453   .     S
C780   O910    1.276   .     A
C780   O888    1.277   .     A
C780   C846    1.453   .     S
C781   C847    1.453   .     S
C781   O915    1.276   .     A
C781   O889    1.277   .     A
C782   O916    1.276   .     A
C782   C848    1.452   .     S
C782   O890    1.277   .     A
C783   O891    1.277   .     A
C783   C841    1.453   .     S
C783   O913    1.276   .     A
C784   O892    1.276   .     A
C784   O914    1.277   .     A
C784   C842    1.453   .     S
C785   C851    1.453   .     S
C785   O903    1.277   .     A
C785   O893    1.276   .     A
C786   O894    1.277   .     A
C786   O904    1.276   .     A
C786   C852    1.453   .     S
C787   O895    1.277   .     A
C787   C853    1.452   .     S
C787   O901    1.276   .     A
C788   O902    1.277   .     A
C788   O896    1.276   .     A
C788   C854    1.453   .     S
C789   C855    1.453   .     S
C789   O907    1.276   .     A
C789   O897    1.277   .     A
C790   O898    1.276   .     A
C790   O908    1.278   .     A
C790   C856    1.453   .     S
C791   O899    1.276   .     A
C791   C849    1.452   .     S
C791   O905    1.277   .     A
C792   O900    1.277   .     A
C792   O906    1.276   .     A
C792   C850    1.452   .     S
C793   C949    1.521   .     S
C793   C856    1.414   .     A
C793   C808    1.410   .     A
C794   C807    1.410   .     A
C794   C953    1.521   .     S
C794   C855    1.415   .     A
C795   C957    1.523   .     S
C795   C854    1.413   .     A
C795   C806    1.410   .     A
C796   C805    1.410   .     A
C796   C961    1.523   .     S
C796   C853    1.413   .     A
C797   C804    1.410   .     A
C797   C852    1.415   .     A
C797   C965    1.521   .     S
C798   C803    1.410   .     A
C798   C969    1.521   .     S
C798   C851    1.414   .     A
C799   C850    1.413   .     A
C799   C973    1.522   .     S
C799   C802    1.410   .     A
C800   C801    1.410   .     A
C800   C977    1.521   .     S
C800   C849    1.415   .     A
C801   C848    1.413   .     A
C801   C981    1.523   .     S
C802   C985    1.521   .     S
C802   C847    1.414   .     A
C803   C989    1.523   .     S
C803   C846    1.413   .     A
C804   C845    1.413   .     A
C804   C993    1.523   .     S
C805   C997    1.521   .     S
C805   C844    1.415   .     A
C806   C843    1.414   .     A
C806   C1001   1.521   .     S
C807   C1005   1.523   .     S
C807   C842    1.413   .     A
C808   C1009   1.522   .     S
C808   C841    1.413   .     A
C809   C842    1.414   .     A
C809   C1013   1.521   .     S
C809   C824    1.410   .     A
C810   C1017   1.521   .     S
C810   C823    1.410   .     A
C810   C841    1.414   .     A
C811   C822    1.410   .     A
C811   C844    1.413   .     A
C811   C1021   1.523   .     S
C812   C821    1.410   .     A
C812   C1025   1.523   .     S
C812   C843    1.413   .     A
C813   C1029   1.521   .     S
C813   C820    1.410   .     A
C813   C846    1.415   .     A
C814   C845    1.415   .     A
C814   C819    1.410   .     A
C814   C1033   1.521   .     S
C815   C1037   1.521   .     S
C815   C818    1.410   .     A
C815   C848    1.414   .     A
C816   C847    1.413   .     A
C816   C1041   1.521   .     S
C816   C817    1.410   .     A
C817   C850    1.414   .     A
C817   C1045   1.521   .     S
C818   C849    1.413   .     A
C818   C1049   1.523   .     S
C819   C1053   1.523   .     S
C819   C852    1.413   .     A
C820   C851    1.413   .     A
C820   C1057   1.523   .     S
C821   C854    1.415   .     A
C821   C1061   1.521   .     S
C822   C1065   1.521   .     S
C822   C853    1.414   .     A
C823   C856    1.413   .     A
C823   C1069   1.522   .     S
C824   C855    1.413   .     A
C824   C1073   1.523   .     S
C825   C857    1.425   .     A
C826   C1222   1.426   1_455 S
C828   C860    1.426   .     A
C829   C1221   1.425   1_455 S
C830   C858    1.426   .     A
C831   C859    1.425   .     A
C833   C133    1.426   1_565 S
C834   C862    1.425   .     A
C835   C1227   1.426   1_455 S
C836   C864    1.425   .     A
C837   C861    1.426   .     A
C838   C134    1.425   1_565 S
C839   C863    1.426   .     A
C840   C1228   1.425   1_455 S
C857   C858    1.418   .     A
C857   C1193   1.425   .     S
C858   C1190   1.426   .     S
C859   C860    1.418   .     A
C859   C99     1.425   1_565 S
C860   C104    1.426   1_565 S
C861   C862    1.417   1_556 S
C862   C861    1.417   1_554 S
C863   C1199   1.426   .     S
C863   C864    1.418   1_556 S
C864   C1204   1.425   .     S
C864   C863    1.418   1_554 S
O865   Zn921   1.944   .     S
O865   Zn928   1.943   .     S
O865   Zn917   1.944   .     S
O866   Zn922   1.944   .     S
O866   Zn931   1.944   .     S
O866   Zn918   1.944   .     S
O867   Zn923   1.944   .     S
O867   Zn926   1.944   .     S
O867   Zn919   1.943   .     S
O867   Zn1294  1.944   1_455 S
O868   Zn924   1.944   .     S
O868   Zn920   1.943   .     S
O868   Zn929   1.944   .     S
O868   Zn1289  1.944   1_455 S
O869   Zn932   1.949   .     S
O869   C41     1.276   1_565 S
O870   Zn931   1.949   .     S
O871   Zn926   1.949   .     S
O872   Zn925   1.949   .     S
O872   C1136   1.274   .     S
O873   Zn928   1.949   .     S
O874   C42     1.273   1_565 A
O874   Zn927   1.949   .     S
O875   Zn930   1.949   .     S
O875   C1135   1.276   .     A
O876   Zn929   1.949   .     S
O877   Zn924   1.949   .     S
O877   C1137   1.273   1_455 S
O878   Zn923   1.949   .     S
O878   C1138   1.276   1_455 S
O879   Zn918   1.949   .     S
O880   Zn917   1.949   .     S
O881   Zn920   1.949   .     S
O881   C1137   1.273   1_455 S
O882   Zn919   1.949   .     S
O882   C1138   1.276   1_455 S
O883   Zn922   1.949   .     S
O884   Zn921   1.949   .     S
O885   Zn928   1.931   .     S
O886   Zn927   1.931   .     S
O887   Zn930   1.930   .     S
O888   Zn929   1.930   .     S
O889   Zn932   1.930   .     S
O890   Zn931   1.930   .     S
O891   Zn926   1.930   .     S
O892   Zn925   1.930   .     S
O893   Zn927   1.931   .     S
O894   Zn928   1.931   .     S
O895   Zn925   1.930   .     S
O896   Zn926   1.930   .     S
O897   Zn931   1.931   .     S
O898   Zn932   1.931   .     S
O899   Zn929   1.930   .     S
O900   Zn930   1.930   .     S
O901   Zn1284  1.931   .     S
O902   Zn919   1.931   .     S
O903   Zn194   1.930   1_565 S
O904   Zn921   1.930   .     S
O905   Zn924   1.930   .     S
O906   Zn1287  1.930   .     S
O907   Zn918   1.930   .     S
O908   Zn189   1.930   1_565 S
O909   Zn1283  1.931   .     S
O910   Zn920   1.931   .     S
O911   Zn917   1.930   .     S
O912   Zn190   1.930   1_565 S
O913   Zn923   1.931   .     S
O914   Zn1288  1.931   .     S
O915   Zn193   1.930   1_565 S
O916   Zn922   1.930   .     S
Zn919  O1273   1.931   1_455 S
Zn920  O1265   1.931   1_455 S
Zn923  O1270   1.930   1_455 S
Zn924  O1278   1.931   1_455 S
Zn925  O1232   1.944   .     S
Zn927  O138    1.943   1_565 S
Zn930  O1231   1.944   .     S
Zn932  O137    1.944   1_565 S
C949   H950    1.107   .     S
C949   H952    1.110   .     S
C949   H951    1.110   .     S
C953   H956    1.110   .     S
C953   H955    1.110   .     S
C953   H954    1.107   .     S
C957   H958    1.111   .     S
C957   H960    1.105   .     S
C957   H959    1.110   .     S
C961   H962    1.110   .     S
C961   H964    1.111   .     S
C961   H963    1.105   .     S
C965   H966    1.106   .     S
C965   H967    1.110   .     S
C965   H968    1.110   .     S
C969   H971    1.110   .     S
C969   H972    1.110   .     S
C969   H970    1.107   .     S
C973   H974    1.109   .     S
C973   H976    1.111   .     S
C973   H975    1.105   .     S
C977   H978    1.107   .     S
C977   H980    1.110   .     S
C977   H979    1.110   .     S
C981   H984    1.105   .     S
C981   H982    1.110   .     S
C981   H983    1.111   .     S
C985   H986    1.107   .     S
C985   H988    1.110   .     S
C985   H987    1.110   .     S
C989   H990    1.110   .     S
C989   H992    1.105   .     S
C989   H991    1.111   .     S
C993   H995    1.105   .     S
C993   H994    1.111   .     S
C993   H996    1.110   .     S
C997   H999    1.110   .     S
C997   H1000   1.110   .     S
C997   H998    1.107   .     S
C1001  H1004   1.110   .     S
C1001  H1002   1.106   .     S
C1001  H1003   1.110   .     S
C1005  H1008   1.110   .     S
C1005  H1007   1.105   .     S
C1005  H1006   1.111   .     S
C1009  H1012   1.105   .     S
C1009  H1011   1.111   .     S
C1009  H1010   1.109   .     S
C1013  H1015   1.110   .     S
C1013  H1014   1.107   .     S
C1013  H1016   1.110   .     S
C1017  H1018   1.107   .     S
C1017  H1020   1.110   .     S
C1017  H1019   1.110   .     S
C1021  H1024   1.105   .     S
C1021  H1022   1.110   .     S
C1021  H1023   1.111   .     S
C1025  H1027   1.105   .     S
C1025  H1026   1.111   .     S
C1025  H1028   1.110   .     S
C1029  H1032   1.110   .     S
C1029  H1030   1.107   .     S
C1029  H1031   1.110   .     S
C1033  H1035   1.110   .     S
C1033  H1034   1.106   .     S
C1033  H1036   1.110   .     S
C1037  H1039   1.110   .     S
C1037  H1038   1.107   .     S
C1037  H1040   1.110   .     S
C1041  H1043   1.110   .     S
C1041  H1042   1.109   .     S
C1041  H1044   1.105   .     S
C1045  H1048   1.110   .     S
C1045  H1047   1.110   .     S
C1045  H1046   1.107   .     S
C1049  H1050   1.110   .     S
C1049  H1052   1.111   .     S
C1049  H1051   1.105   .     S
C1053  H1055   1.110   .     S
C1053  H1054   1.111   .     S
C1053  H1056   1.105   .     S
C1057  H1058   1.110   .     S
C1057  H1059   1.105   .     S
C1057  H1060   1.111   .     S
C1061  H1062   1.106   .     S
C1061  H1064   1.110   .     S
C1061  H1063   1.110   .     S
C1065  H1066   1.107   .     S
C1065  H1068   1.110   .     S
C1065  H1067   1.110   .     S
C1069  H1071   1.105   .     S
C1069  H1072   1.111   .     S
C1069  H1070   1.109   .     S
C1073  H1076   1.105   .     S
C1073  H1075   1.110   .     S
C1073  H1074   1.111   .     S
Cl1078 C1094   1.778   1_455 S
Cl1080 C4      1.778   1_565 S
Cl1082 C1098   1.778   .     S
C1093  C1193   1.415   .     A
C1093  Cl1441  1.778   .     S
C1094  C1194   1.414   .     A
C1094  C746    1.396   1_655 S
C1094  Cl1078  1.778   1_655 S
C1095  C1195   1.415   .     A
C1095  C383    1.400   1_565 A
C1095  Cl1443  1.778   .     S
C1096  C1196   1.414   .     A
C1097  Cl1445  1.778   .     S
C1097  C1109   1.400   .     A
C1097  C1189   1.415   .     A
C1098  C1190   1.414   .     A
C1098  C1110   1.396   .     A
C1099  C1191   1.415   .     A
C1099  Cl1447  1.778   .     S
C1099  C1111   1.400   .     S
C1100  C1192   1.414   .     A
C1100  C1112   1.396   .     A
C1100  Cl720   1.778   1_565 S
C1101  C1113   1.396   .     A
C1101  Cl1449  1.778   .     S
C1101  C1201   1.414   .     A
C1102  C1202   1.415   .     A
C1102  Cl1450  1.778   .     S
C1102  C386    1.400   1_565 S
C1103  C1115   1.396   .     A
C1103  Cl1451  1.778   .     S
C1103  C1203   1.414   .     A
C1104  C1204   1.415   .     A
C1104  Cl1452  1.778   .     S
C1105  Cl1453  1.778   .     S
C1105  C1197   1.414   .     A
C1105  C385    1.396   1_565 S
C1106  Cl1454  1.778   .     S
C1106  C1198   1.415   .     A
C1106  C1114   1.401   .     A
C1107  Cl1455  1.778   .     S
C1107  C1199   1.414   .     A
C1108  Cl1456  1.778   .     S
C1108  C1116   1.400   .     A
C1108  C1200   1.415   .     A
C1109  C771    1.459   1_655 S
C1109  C729    1.400   1_655 S
C1110  C1136   1.452   .     S
C1111  C1133   1.459   .     S
C1112  C406    1.452   1_565 S
C1112  C368    1.396   1_565 S
C1113  C1139   1.452   .     S
C1114  C1140   1.460   .     S
C1115  C1137   1.452   .     S
C1115  C743    1.396   1_655 S
C1116  C1138   1.459   .     S
C1116  C740    1.400   1_655 S
C1117  C1189   1.417   .     A
C1117  Cl1297  1.775   .     S
C1117  C1122   1.397   .     A
C1118  Cl1298  1.775   .     S
C1118  C1190   1.415   .     A
C1118  C1121   1.397   .     A
C1119  C1191   1.417   .     A
C1119  C1124   1.397   .     A
C1119  Cl1299  1.775   .     S
C1120  Cl1300  1.775   .     S
C1120  C1123   1.397   .     A
C1120  C1192   1.415   .     A
C1121  Cl1301  1.775   .     S
C1121  C1193   1.417   .     A
C1122  C1194   1.415   .     A
C1122  Cl1302  1.775   .     S
C1123  C1195   1.417   .     A
C1123  Cl1303  1.775   .     S
C1124  C1196   1.415   .     A
C1124  Cl1304  1.775   .     S
C1125  Cl1305  1.775   .     S
C1125  C1197   1.415   .     A
C1125  C1130   1.397   1_556 S
C1126  C1198   1.417   .     A
C1126  Cl1306  1.775   .     S
C1126  C1129   1.397   1_554 S
C1127  C1199   1.415   .     A
C1127  Cl1307  1.775   .     S
C1127  C1132   1.397   1_556 S
C1128  C1200   1.417   .     A
C1128  Cl1308  1.775   .     S
C1128  C1131   1.397   1_554 S
C1129  C1201   1.415   .     A
C1129  Cl1309  1.775   .     S
C1129  C1126   1.397   1_556 S
C1130  Cl1310  1.775   .     S
C1130  C1202   1.417   .     A
C1130  C1125   1.397   1_554 S
C1131  C1203   1.415   .     A
C1131  Cl1311  1.775   .     S
C1131  C1128   1.397   1_556 S
C1132  Cl1312  1.775   .     S
C1132  C1204   1.417   .     A
C1132  C1127   1.397   1_554 S
C1133  O1237   1.276   .     A
C1134  O1234   1.273   .     S
C1135  O1235   1.276   .     S
C1136  O1240   1.274   .     A
C1137  O877    1.273   1_655 S
C1137  O881    1.273   1_655 S
C1138  O878    1.276   1_655 S
C1138  O882    1.276   1_655 S
C1139  O1243   1.274   .     A
C1139  O1247   1.274   .     A
C1140  O1248   1.276   .     A
C1140  O1244   1.276   .     A
C1141  C1207   1.452   .     S
C1141  O1249   1.278   .     A
C1141  O1275   1.275   .     A
C1142  O1276   1.277   .     A
C1142  O1250   1.276   .     A
C1142  C1208   1.452   .     S
C1143  O1273   1.277   .     A
C1143  O1251   1.275   .     A
C1143  C1209   1.453   .     S
C1144  O1274   1.276   .     A
C1144  O1252   1.277   .     A
C1144  C1210   1.453   .     S
C1145  C1211   1.453   .     S
C1145  O1279   1.276   .     A
C1145  O1253   1.277   .     A
C1146  O1280   1.276   .     A
C1146  C1212   1.452   .     S
C1146  O1254   1.277   .     A
C1147  O1255   1.277   .     A
C1147  C1205   1.453   .     S
C1147  O1277   1.276   .     A
C1148  O1256   1.276   .     A
C1148  O1278   1.277   .     A
C1148  C1206   1.453   .     S
C1149  C1215   1.453   .     S
C1149  O1267   1.277   .     A
C1149  O1257   1.276   .     A
C1150  O1258   1.277   .     A
C1150  O1268   1.276   .     A
C1150  C1216   1.453   .     S
C1151  O1259   1.277   .     A
C1151  C1217   1.452   .     S
C1151  O1265   1.276   .     A
C1152  O1266   1.277   .     A
C1152  O1260   1.276   .     A
C1152  C1218   1.453   .     S
C1153  C1219   1.453   .     S
C1153  O1271   1.276   .     A
C1153  O1261   1.277   .     A
C1154  O1262   1.276   .     A
C1154  O1272   1.278   .     A
C1154  C1220   1.453   .     S
C1155  O1263   1.276   .     A
C1155  C1213   1.452   .     S
C1155  O1269   1.277   .     A
C1156  O1264   1.277   .     A
C1156  O1270   1.276   .     A
C1156  C1214   1.452   .     S
C1157  C1313   1.521   .     S
C1157  C1220   1.414   .     A
C1157  C1172   1.410   .     A
C1158  C1171   1.410   .     A
C1158  C1317   1.521   .     S
C1158  C1219   1.415   .     A
C1159  C1321   1.523   .     S
C1159  C1218   1.413   .     A
C1159  C1170   1.410   .     A
C1160  C1169   1.410   .     A
C1160  C1325   1.523   .     S
C1160  C1217   1.413   .     A
C1161  C1168   1.410   .     A
C1161  C1216   1.415   .     A
C1161  C1329   1.521   .     S
C1162  C1167   1.410   .     A
C1162  C1333   1.521   .     S
C1162  C1215   1.414   .     A
C1163  C1214   1.413   .     A
C1163  C1337   1.522   .     S
C1163  C1166   1.410   .     A
C1164  C1165   1.410   .     A
C1164  C1341   1.521   .     S
C1164  C1213   1.415   .     A
C1165  C1212   1.413   .     A
C1165  C1345   1.523   .     S
C1166  C1349   1.521   .     S
C1166  C1211   1.414   .     A
C1167  C1353   1.523   .     S
C1167  C1210   1.413   .     A
C1168  C1209   1.413   .     A
C1168  C1357   1.523   .     S
C1169  C1361   1.521   .     S
C1169  C1208   1.415   .     A
C1170  C1207   1.414   .     A
C1170  C1365   1.521   .     S
C1171  C1369   1.523   .     S
C1171  C1206   1.413   .     A
C1172  C1373   1.522   .     S
C1172  C1205   1.413   .     A
C1173  C1206   1.414   .     A
C1173  C1377   1.521   .     S
C1173  C1188   1.410   .     A
C1174  C1381   1.521   .     S
C1174  C1187   1.410   .     A
C1174  C1205   1.414   .     A
C1175  C1186   1.410   .     A
C1175  C1208   1.413   .     A
C1175  C1385   1.523   .     S
C1176  C1185   1.410   .     A
C1176  C1389   1.523   .     S
C1176  C1207   1.413   .     A
C1177  C1393   1.521   .     S
C1177  C1184   1.410   .     A
C1177  C1210   1.415   .     A
C1178  C1209   1.415   .     A
C1178  C1183   1.410   .     A
C1178  C1397   1.521   .     S
C1179  C1401   1.521   .     S
C1179  C1182   1.410   .     A
C1179  C1212   1.414   .     A
C1180  C1211   1.413   .     A
C1180  C1405   1.521   .     S
C1180  C1181   1.410   .     A
C1181  C1214   1.414   .     A
C1181  C1409   1.521   .     S
C1182  C1213   1.413   .     A
C1182  C1413   1.523   .     S
C1183  C1417   1.523   .     S
C1183  C1216   1.413   .     A
C1184  C1215   1.413   .     A
C1184  C1421   1.523   .     S
C1185  C1218   1.415   .     A
C1185  C1425   1.521   .     S
C1186  C1429   1.521   .     S
C1186  C1217   1.414   .     A
C1187  C1220   1.413   .     A
C1187  C1433   1.522   .     S
C1188  C1219   1.413   .     A
C1188  C1437   1.523   .     S
C1189  C1221   1.425   .     A
C1192  C1224   1.426   .     A
C1194  C1222   1.426   .     A
C1195  C1223   1.425   .     A
C1197  C497    1.426   1_565 S
C1198  C1226   1.425   .     A
C1200  C1228   1.425   .     A
C1201  C1225   1.426   .     A
C1202  C498    1.425   1_565 S
C1203  C1227   1.426   .     A
C1221  C1222   1.418   .     A
C1221  C829    1.425   1_655 S
C1222  C826    1.426   1_655 S
C1223  C1224   1.418   .     A
C1223  C463    1.425   1_565 S
C1224  C468    1.426   1_565 S
C1225  C1226   1.417   1_556 S
C1226  C1225   1.417   1_554 S
C1227  C835    1.426   1_655 S
C1227  C1228   1.418   1_556 S
C1228  C840    1.425   1_655 S
C1228  C1227   1.418   1_554 S
O1229  Zn1285  1.944   .     S
O1229  Zn1292  1.943   .     S
O1229  Zn1281  1.944   .     S
O1230  Zn1286  1.944   .     S
O1230  Zn1295  1.944   .     S
O1230  Zn1282  1.944   .     S
O1231  Zn1287  1.944   .     S
O1231  Zn1290  1.944   .     S
O1231  Zn1283  1.943   .     S
O1232  Zn1288  1.944   .     S
O1232  Zn1284  1.943   .     S
O1232  Zn1293  1.944   .     S
O1233  Zn1296  1.949   .     S
O1233  C405    1.276   1_565 S
O1234  Zn1295  1.949   .     S
O1235  Zn1290  1.949   .     S
O1236  Zn1289  1.949   .     S
O1236  C772    1.274   1_655 S
O1237  Zn1292  1.949   .     S
O1238  C406    1.273   1_565 A
O1238  Zn1291  1.949   .     S
O1239  Zn1294  1.949   .     S
O1239  C771    1.276   1_655 A
O1240  Zn1293  1.949   .     S
O1241  Zn1288  1.949   .     S
O1242  Zn1287  1.949   .     S
O1243  Zn1282  1.949   .     S
O1244  Zn1281  1.949   .     S
O1245  Zn1284  1.949   .     S
O1246  Zn1283  1.949   .     S
O1247  Zn1286  1.949   .     S
O1248  Zn1285  1.949   .     S
O1249  Zn1292  1.931   .     S
O1250  Zn1291  1.931   .     S
O1251  Zn1294  1.930   .     S
O1252  Zn1293  1.930   .     S
O1253  Zn1296  1.930   .     S
O1254  Zn1295  1.930   .     S
O1255  Zn1290  1.930   .     S
O1256  Zn1289  1.930   .     S
O1257  Zn1291  1.931   .     S
O1258  Zn1292  1.931   .     S
O1259  Zn1289  1.930   .     S
O1260  Zn1290  1.930   .     S
O1261  Zn1295  1.931   .     S
O1262  Zn1296  1.931   .     S
O1263  Zn1293  1.930   .     S
O1264  Zn1294  1.930   .     S
O1265  Zn920   1.931   1_655 S
O1266  Zn1283  1.931   .     S
O1267  Zn558   1.930   1_565 S
O1268  Zn1285  1.930   .     S
O1269  Zn1288  1.930   .     S
O1270  Zn923   1.930   1_655 S
O1271  Zn1282  1.930   .     S
O1272  Zn553   1.930   1_565 S
O1273  Zn919   1.931   1_655 S
O1274  Zn1284  1.931   .     S
O1275  Zn1281  1.930   .     S
O1276  Zn554   1.930   1_565 S
O1277  Zn1287  1.931   .     S
O1278  Zn924   1.931   1_655 S
O1279  Zn557   1.930   1_565 S
O1280  Zn1286  1.930   .     S
Zn1289 O868    1.944   1_655 S
Zn1291 O502    1.943   1_565 S
Zn1294 O867    1.944   1_655 S
Zn1296 O501    1.944   1_565 S
C1313  H1314   1.107   .     S
C1313  H1316   1.110   .     S
C1313  H1315   1.110   .     S
C1317  H1320   1.110   .     S
C1317  H1319   1.110   .     S
C1317  H1318   1.107   .     S
C1321  H1322   1.111   .     S
C1321  H1324   1.105   .     S
C1321  H1323   1.110   .     S
C1325  H1326   1.110   .     S
C1325  H1328   1.111   .     S
C1325  H1327   1.105   .     S
C1329  H1330   1.106   .     S
C1329  H1331   1.110   .     S
C1329  H1332   1.110   .     S
C1333  H1335   1.110   .     S
C1333  H1336   1.110   .     S
C1333  H1334   1.107   .     S
C1337  H1338   1.109   .     S
C1337  H1340   1.111   .     S
C1337  H1339   1.105   .     S
C1341  H1342   1.107   .     S
C1341  H1344   1.110   .     S
C1341  H1343   1.110   .     S
C1345  H1348   1.105   .     S
C1345  H1346   1.110   .     S
C1345  H1347   1.111   .     S
C1349  H1350   1.107   .     S
C1349  H1352   1.110   .     S
C1349  H1351   1.110   .     S
C1353  H1354   1.110   .     S
C1353  H1356   1.105   .     S
C1353  H1355   1.111   .     S
C1357  H1359   1.105   .     S
C1357  H1358   1.111   .     S
C1357  H1360   1.110   .     S
C1361  H1363   1.110   .     S
C1361  H1364   1.110   .     S
C1361  H1362   1.107   .     S
C1365  H1368   1.110   .     S
C1365  H1366   1.106   .     S
C1365  H1367   1.110   .     S
C1369  H1372   1.110   .     S
C1369  H1371   1.105   .     S
C1369  H1370   1.111   .     S
C1373  H1376   1.105   .     S
C1373  H1375   1.111   .     S
C1373  H1374   1.109   .     S
C1377  H1379   1.110   .     S
C1377  H1378   1.107   .     S
C1377  H1380   1.110   .     S
C1381  H1382   1.107   .     S
C1381  H1384   1.110   .     S
C1381  H1383   1.110   .     S
C1385  H1388   1.105   .     S
C1385  H1386   1.110   .     S
C1385  H1387   1.111   .     S
C1389  H1391   1.105   .     S
C1389  H1390   1.111   .     S
C1389  H1392   1.110   .     S
C1393  H1396   1.110   .     S
C1393  H1394   1.107   .     S
C1393  H1395   1.110   .     S
C1397  H1399   1.110   .     S
C1397  H1398   1.106   .     S
C1397  H1400   1.110   .     S
C1401  H1403   1.110   .     S
C1401  H1402   1.107   .     S
C1401  H1404   1.110   .     S
C1405  H1407   1.110   .     S
C1405  H1406   1.109   .     S
C1405  H1408   1.105   .     S
C1409  H1412   1.110   .     S
C1409  H1411   1.110   .     S
C1409  H1410   1.107   .     S
C1413  H1414   1.110   .     S
C1413  H1416   1.111   .     S
C1413  H1415   1.105   .     S
C1417  H1419   1.110   .     S
C1417  H1418   1.111   .     S
C1417  H1420   1.105   .     S
C1421  H1422   1.110   .     S
C1421  H1423   1.105   .     S
C1421  H1424   1.111   .     S
C1425  H1426   1.106   .     S
C1425  H1428   1.110   .     S
C1425  H1427   1.110   .     S
C1429  H1430   1.107   .     S
C1429  H1432   1.110   .     S
C1429  H1431   1.110   .     S
C1433  H1435   1.105   .     S
C1433  H1436   1.111   .     S
C1433  H1434   1.109   .     S
C1437  H1440   1.105   .     S
C1437  H1439   1.110   .     S
C1437  H1438   1.111   .     S
Cl1444 C368    1.778   1_565 S
Cl1446 C734    1.778   1_655 S
