data_str_m1_o1_o17_pcu_sym.44
_audit_creation_date              2020-01-03
_audit_creation_method            'Materials Studio'
_symmetry_space_group_name_H-M    'P1'
_symmetry_Int_Tables_number       1
_symmetry_cell_setting            triclinic
loop_
_symmetry_equiv_pos_as_xyz
  x,y,z
_cell_length_a                    36.6529
_cell_length_b                    36.6531
_cell_length_c                    34.4914
_cell_angle_alpha                 89.9958
_cell_angle_beta                  89.9993
_cell_angle_gamma                 90.0008
loop_
_atom_site_label
_atom_site_type_symbol
_atom_site_fract_x
_atom_site_fract_y
_atom_site_fract_z
_atom_site_U_iso_or_equiv
_atom_site_adp_type
_atom_site_occupancy
Zn1    Zn    0.20660   0.00000   0.21735   0.00000  Uiso   1.00
Zn2    Zn    0.29341   0.00000   0.78265   0.00000  Uiso   1.00
Zn3    Zn    0.00000   0.20660   0.21735   0.00000  Uiso   1.00
Zn4    Zn    0.00000   0.29340   0.78265   0.00000  Uiso   1.00
Zn5    Zn    0.29341   0.00000   0.21735   0.00000  Uiso   1.00
Zn6    Zn    0.20660   0.00000   0.78265   0.00000  Uiso   1.00
Zn7    Zn    0.00000   0.29341   0.21735   0.00000  Uiso   1.00
Zn8    Zn    0.00000   0.20660   0.78265   0.00000  Uiso   1.00
Zn9    Zn    0.45660   0.25000   0.71735   0.00000  Uiso   1.00
Zn10   Zn    0.04341   0.25000   0.28265   0.00000  Uiso   1.00
Zn11   Zn    0.25000   0.45659   0.71735   0.00000  Uiso   1.00
Zn12   Zn    0.25000   0.04341   0.28265   0.00000  Uiso   1.00
Zn13   Zn    0.04341   0.25000   0.71735   0.00000  Uiso   1.00
Zn14   Zn    0.45660   0.25000   0.28265   0.00000  Uiso   1.00
Zn15   Zn    0.25000   0.04341   0.71735   0.00000  Uiso   1.00
Zn16   Zn    0.25000   0.45659   0.28265   0.00000  Uiso   1.00
C17    C     0.46709   0.25105   0.41863   0.00000  Uiso   1.00
C18    C     0.03286   0.24782   0.58138   0.00000  Uiso   1.00
C19    C     0.25005   0.46707   0.41863   0.00000  Uiso   1.00
C20    C     0.25111   0.03292   0.58137   0.00000  Uiso   1.00
C21    C     0.03292   0.24899   0.41863   0.00000  Uiso   1.00
C22    C     0.46714   0.25221   0.58138   0.00000  Uiso   1.00
C23    C     0.24995   0.03293   0.41863   0.00000  Uiso   1.00
C24    C     0.24888   0.46709   0.58138   0.00000  Uiso   1.00
C25    C     0.28279   0.00304   0.91862   0.00000  Uiso   1.00
C26    C     0.21712   0.49811   0.08137   0.00000  Uiso   1.00
C27    C     0.49810   0.21712   0.91862   0.00000  Uiso   1.00
C28    C     0.00190   0.28288   0.08137   0.00000  Uiso   1.00
C29    C     0.21721   0.49695   0.91862   0.00000  Uiso   1.00
C30    C     0.28288   0.00188   0.08137   0.00000  Uiso   1.00
C31    C     0.00398   0.28272   0.91862   0.00000  Uiso   1.00
C32    C     0.49603   0.21728   0.08138   0.00000  Uiso   1.00
C33    C     0.00000   0.25001   0.39843   0.00000  Uiso   1.00
C34    C     0.00000   0.25001   0.60157   0.00000  Uiso   1.00
C35    C     0.25000  -0.00000   0.39843   0.00000  Uiso   1.00
C36    C     0.25000   0.00000   0.60157   0.00000  Uiso   1.00
C37    C     0.25000  -0.00000   0.89842   0.00000  Uiso   1.00
C38    C     0.25000  -0.00000   0.10157   0.00000  Uiso   1.00
C39    C     0.00067   0.24995   0.89843   0.00000  Uiso   1.00
C40    C     0.49934   0.25005   0.10157   0.00000  Uiso   1.00
O41    O     0.25000   0.00000   0.25000   0.00000  Uiso   1.00
O42    O     0.25000   0.00000   0.75000   0.00000  Uiso   1.00
O43    O     0.00000   0.25000   0.25000   0.00000  Uiso   1.00
O44    O     0.00000   0.25000   0.75000   0.00000  Uiso   1.00
O45    O     0.25000   0.46963   0.33755   0.00000  Uiso   1.00
O46    O     0.25000   0.03037   0.66245   0.00000  Uiso   1.00
O47    O     0.03037   0.25000   0.33755   0.00000  Uiso   1.00
O48    O     0.46964   0.25000   0.66245   0.00000  Uiso   1.00
O49    O     0.25000   0.03037   0.33755   0.00000  Uiso   1.00
O50    O     0.25000   0.46963   0.66245   0.00000  Uiso   1.00
O51    O     0.46964   0.25000   0.33755   0.00000  Uiso   1.00
O52    O     0.03037   0.25000   0.66245   0.00000  Uiso   1.00
O53    O     0.00000   0.21964   0.83755   0.00000  Uiso   1.00
O54    O     0.00000   0.28037   0.16245   0.00000  Uiso   1.00
O55    O     0.28037   0.00000   0.83755   0.00000  Uiso   1.00
O56    O     0.21964   0.00000   0.16245   0.00000  Uiso   1.00
O57    O     0.00000   0.28037   0.83755   0.00000  Uiso   1.00
O58    O     0.00000   0.21963   0.16245   0.00000  Uiso   1.00
O59    O     0.21964   0.00000   0.83755   0.00000  Uiso   1.00
O60    O     0.28037   0.00000   0.16245   0.00000  Uiso   1.00
O61    O     0.20725   0.07308   0.27302   0.00000  Uiso   1.00
O62    O     0.29276   0.42692   0.72698   0.00000  Uiso   1.00
O63    O     0.42693   0.20725   0.27302   0.00000  Uiso   1.00
O64    O     0.07308   0.29275   0.72698   0.00000  Uiso   1.00
O65    O     0.29276   0.42692   0.27302   0.00000  Uiso   1.00
O66    O     0.20725   0.07308   0.72698   0.00000  Uiso   1.00
O67    O     0.07308   0.29275   0.27302   0.00000  Uiso   1.00
O68    O     0.42693   0.20725   0.72698   0.00000  Uiso   1.00
O69    O     0.20725   0.42692   0.72698   0.00000  Uiso   1.00
O70    O     0.29276   0.07308   0.27302   0.00000  Uiso   1.00
O71    O     0.42693   0.29276   0.72698   0.00000  Uiso   1.00
O72    O     0.07308   0.20724   0.27302   0.00000  Uiso   1.00
O73    O     0.29276   0.07308   0.72698   0.00000  Uiso   1.00
O74    O     0.20725   0.42692   0.27302   0.00000  Uiso   1.00
O75    O     0.07308   0.20724   0.72698   0.00000  Uiso   1.00
O76    O     0.42693   0.29276   0.27302   0.00000  Uiso   1.00
O77    O     0.45725   0.32307   0.77302   0.00000  Uiso   1.00
O78    O     0.04276   0.17692   0.22698   0.00000  Uiso   1.00
O79    O     0.17693   0.45724   0.77302   0.00000  Uiso   1.00
O80    O     0.32308   0.04276   0.22698   0.00000  Uiso   1.00
O81    O     0.04276   0.17692   0.77302   0.00000  Uiso   1.00
O82    O     0.45725   0.32307   0.22698   0.00000  Uiso   1.00
O83    O     0.32308   0.04276   0.77302   0.00000  Uiso   1.00
O84    O     0.17693   0.45724   0.22698   0.00000  Uiso   1.00
O85    O     0.45725   0.17693   0.22698   0.00000  Uiso   1.00
O86    O     0.04276   0.32307   0.77302   0.00000  Uiso   1.00
O87    O     0.17693   0.04276   0.22698   0.00000  Uiso   1.00
O88    O     0.32308   0.45724   0.77302   0.00000  Uiso   1.00
O89    O     0.04276   0.32307   0.22698   0.00000  Uiso   1.00
O90    O     0.45725   0.17693   0.77302   0.00000  Uiso   1.00
O91    O     0.32308   0.45724   0.22698   0.00000  Uiso   1.00
O92    O     0.17693   0.04276   0.77302   0.00000  Uiso   1.00
C93    C     0.06723   0.24902   0.47966   0.00000  Uiso   1.00
C94    C     0.43302   0.25582   0.52034   0.00000  Uiso   1.00
C95    C     0.24875   0.06722   0.47966   0.00000  Uiso   1.00
C96    C     0.24649   0.43286   0.52035   0.00000  Uiso   1.00
C97    C     0.43277   0.25107   0.47967   0.00000  Uiso   1.00
C98    C     0.06699   0.24427   0.52034   0.00000  Uiso   1.00
C99    C     0.25124   0.43277   0.47967   0.00000  Uiso   1.00
C100   C     0.25350   0.06714   0.52033   0.00000  Uiso   1.00
C101   C     0.18320   0.49243   0.97966   0.00000  Uiso   1.00
C102   C     0.31718   0.00282   0.02033   0.00000  Uiso   1.00
C103   C     0.00856   0.31671   0.97966   0.00000  Uiso   1.00
C104   C     0.49145   0.18329   0.02034   0.00000  Uiso   1.00
C105   C     0.31681   0.00755   0.97966   0.00000  Uiso   1.00
C106   C     0.18282   0.49716   0.02034   0.00000  Uiso   1.00
C107   C     0.49616   0.18285   0.97966   0.00000  Uiso   1.00
C108   C     0.00384   0.31715   0.02034   0.00000  Uiso   1.00
C109   C     0.25000  -0.00000   0.35597   0.00000  Uiso   1.00
C110   C     0.25000   0.00000   0.64403   0.00000  Uiso   1.00
C111   C     0.00000   0.25000   0.35597   0.00000  Uiso   1.00
C112   C     0.00000   0.25000   0.64403   0.00000  Uiso   1.00
C113   C     0.00006   0.24999   0.85597   0.00000  Uiso   1.00
C114   C     0.49994   0.25001   0.14403   0.00000  Uiso   1.00
C115   C     0.25000  -0.00000   0.85597   0.00000  Uiso   1.00
C116   C     0.25000  -0.00000   0.14403   0.00000  Uiso   1.00
C117   C     0.17994   0.07006   0.25000   0.00000  Uiso   1.00
C118   C     0.32006   0.42994   0.75000   0.00000  Uiso   1.00
C119   C     0.42994   0.17994   0.25000   0.00000  Uiso   1.00
C120   C     0.07006   0.32006   0.75000   0.00000  Uiso   1.00
C121   C     0.32006   0.42994   0.25000   0.00000  Uiso   1.00
C122   C     0.17994   0.07006   0.75000   0.00000  Uiso   1.00
C123   C     0.07006   0.32006   0.25000   0.00000  Uiso   1.00
C124   C     0.42994   0.17994   0.75000   0.00000  Uiso   1.00
C125   C     0.17994   0.42994   0.75000   0.00000  Uiso   1.00
C126   C     0.32006   0.07006   0.25000   0.00000  Uiso   1.00
C127   C     0.42994   0.32006   0.75000   0.00000  Uiso   1.00
C128   C     0.07006   0.17994   0.25000   0.00000  Uiso   1.00
C129   C     0.32006   0.07006   0.75000   0.00000  Uiso   1.00
C130   C     0.17994   0.42994   0.25000   0.00000  Uiso   1.00
C131   C     0.07006   0.17994   0.75000   0.00000  Uiso   1.00
C132   C     0.42994   0.32006   0.25000   0.00000  Uiso   1.00
C133   C     0.12199   0.40474   0.22482   0.00000  Uiso   1.00
C134   C     0.37799   0.09527   0.77520   0.00000  Uiso   1.00
C135   C     0.09524   0.12198   0.22484   0.00000  Uiso   1.00
C136   C     0.40477   0.37803   0.77514   0.00000  Uiso   1.00
C137   C     0.37799   0.09527   0.22480   0.00000  Uiso   1.00
C138   C     0.12202   0.40471   0.77522   0.00000  Uiso   1.00
C139   C     0.40475   0.37801   0.22482   0.00000  Uiso   1.00
C140   C     0.09524   0.12198   0.77516   0.00000  Uiso   1.00
C141   C     0.12198   0.09524   0.77516   0.00000  Uiso   1.00
C142   C     0.37801   0.40475   0.22482   0.00000  Uiso   1.00
C143   C     0.09529   0.37798   0.77522   0.00000  Uiso   1.00
C144   C     0.40473   0.12201   0.22480   0.00000  Uiso   1.00
C145   C     0.37803   0.40477   0.77514   0.00000  Uiso   1.00
C146   C     0.12198   0.09524   0.22484   0.00000  Uiso   1.00
C147   C     0.40473   0.12201   0.77520   0.00000  Uiso   1.00
C148   C     0.09526   0.37801   0.22482   0.00000  Uiso   1.00
C149   C     0.37200   0.15474   0.72481   0.00000  Uiso   1.00
C150   C     0.12801   0.34525   0.27518   0.00000  Uiso   1.00
C151   C     0.34524   0.37198   0.72484   0.00000  Uiso   1.00
C152   C     0.15475   0.12801   0.27517   0.00000  Uiso   1.00
C153   C     0.12799   0.34528   0.72479   0.00000  Uiso   1.00
C154   C     0.37200   0.15473   0.27519   0.00000  Uiso   1.00
C155   C     0.15475   0.12802   0.72483   0.00000  Uiso   1.00
C156   C     0.34526   0.37199   0.27518   0.00000  Uiso   1.00
C157   C     0.37199   0.34525   0.27518   0.00000  Uiso   1.00
C158   C     0.12801   0.15475   0.72483   0.00000  Uiso   1.00
C159   C     0.34526   0.12800   0.27519   0.00000  Uiso   1.00
C160   C     0.15472   0.37201   0.72479   0.00000  Uiso   1.00
C161   C     0.12802   0.15475   0.27517   0.00000  Uiso   1.00
C162   C     0.37198   0.34524   0.72484   0.00000  Uiso   1.00
C163   C     0.15475   0.37199   0.27518   0.00000  Uiso   1.00
C164   C     0.34527   0.12800   0.72481   0.00000  Uiso   1.00
H165   H     0.11924   0.42760   0.20512   0.00000  Uiso   1.00
H166   H     0.38074   0.07243   0.79491   0.00000  Uiso   1.00
H167   H     0.07238   0.11921   0.20516   0.00000  Uiso   1.00
H168   H     0.42763   0.38080   0.79482   0.00000  Uiso   1.00
H169   H     0.38074   0.07243   0.20509   0.00000  Uiso   1.00
H170   H     0.11929   0.42754   0.79495   0.00000  Uiso   1.00
H171   H     0.42760   0.38077   0.20513   0.00000  Uiso   1.00
H172   H     0.07239   0.11921   0.79485   0.00000  Uiso   1.00
H173   H     0.11922   0.07239   0.79485   0.00000  Uiso   1.00
H174   H     0.38077   0.42760   0.20513   0.00000  Uiso   1.00
H175   H     0.07246   0.38071   0.79495   0.00000  Uiso   1.00
H176   H     0.42757   0.11927   0.20508   0.00000  Uiso   1.00
H177   H     0.38080   0.42763   0.79482   0.00000  Uiso   1.00
H178   H     0.11921   0.07239   0.20516   0.00000  Uiso   1.00
H179   H     0.42757   0.11926   0.79491   0.00000  Uiso   1.00
H180   H     0.07241   0.38077   0.20512   0.00000  Uiso   1.00
H181   H     0.36926   0.17758   0.70510   0.00000  Uiso   1.00
H182   H     0.13076   0.32240   0.29487   0.00000  Uiso   1.00
H183   H     0.32238   0.36921   0.70517   0.00000  Uiso   1.00
H184   H     0.17761   0.13078   0.29485   0.00000  Uiso   1.00
H185   H     0.13072   0.32245   0.70506   0.00000  Uiso   1.00
H186   H     0.36925   0.17757   0.29490   0.00000  Uiso   1.00
H187   H     0.17761   0.13078   0.70514   0.00000  Uiso   1.00
H188   H     0.32241   0.36923   0.29488   0.00000  Uiso   1.00
H189   H     0.36924   0.32240   0.29488   0.00000  Uiso   1.00
H190   H     0.13078   0.17761   0.70514   0.00000  Uiso   1.00
H191   H     0.32242   0.13074   0.29490   0.00000  Uiso   1.00
H192   H     0.17755   0.36928   0.70506   0.00000  Uiso   1.00
H193   H     0.13078   0.17761   0.29485   0.00000  Uiso   1.00
H194   H     0.36921   0.32238   0.70516   0.00000  Uiso   1.00
H195   H     0.17760   0.36923   0.29487   0.00000  Uiso   1.00
H196   H     0.32243   0.13075   0.70509   0.00000  Uiso   1.00
C197   C     0.03363   0.24951   0.45927   0.00000  Uiso   1.00
C198   C     0.46649   0.25286   0.54074   0.00000  Uiso   1.00
C199   C     0.24940   0.03363   0.45926   0.00000  Uiso   1.00
C200   C     0.24828   0.46641   0.54074   0.00000  Uiso   1.00
C201   C     0.46637   0.25056   0.45927   0.00000  Uiso   1.00
C202   C     0.03352   0.24720   0.54074   0.00000  Uiso   1.00
C203   C     0.25059   0.46637   0.45927   0.00000  Uiso   1.00
C204   C     0.25171   0.03359   0.54073   0.00000  Uiso   1.00
C205   C     0.21658   0.49627   0.95926   0.00000  Uiso   1.00
C206   C     0.28360   0.00141   0.04073   0.00000  Uiso   1.00
C207   C     0.00447   0.28336   0.95927   0.00000  Uiso   1.00
C208   C     0.49554   0.21664   0.04073   0.00000  Uiso   1.00
C209   C     0.28343   0.00371   0.95926   0.00000  Uiso   1.00
C210   C     0.21640   0.49858   0.04073   0.00000  Uiso   1.00
C211   C     0.49834   0.21639   0.95927   0.00000  Uiso   1.00
C212   C     0.00166   0.28361   0.04073   0.00000  Uiso   1.00
H213   H     0.44205   0.25288   0.40217   0.00000  Uiso   1.00
H214   H     0.05795   0.24712   0.59783   0.00000  Uiso   1.00
H215   H     0.24906   0.44198   0.40218   0.00000  Uiso   1.00
H216   H     0.25095   0.05802   0.59782   0.00000  Uiso   1.00
H217   H     0.05795   0.24715   0.40217   0.00000  Uiso   1.00
H218   H     0.44205   0.25290   0.59782   0.00000  Uiso   1.00
H219   H     0.25094   0.05801   0.40217   0.00000  Uiso   1.00
H220   H     0.24904   0.44199   0.59783   0.00000  Uiso   1.00
H221   H     0.30785   0.00441   0.90217   0.00000  Uiso   1.00
H222   H     0.19215   0.49560   0.09783   0.00000  Uiso   1.00
H223   H     0.49487   0.19223   0.90217   0.00000  Uiso   1.00
H224   H     0.00513   0.30777   0.09783   0.00000  Uiso   1.00
H225   H     0.19215   0.49557   0.90217   0.00000  Uiso   1.00
H226   H     0.30785   0.00439   0.09783   0.00000  Uiso   1.00
H227   H     0.00537   0.30778   0.90217   0.00000  Uiso   1.00
H228   H     0.49464   0.19222   0.09783   0.00000  Uiso   1.00
C229   C     0.09813   0.34813   0.25000   0.00000  Uiso   1.00
C230   C     0.40187   0.15187   0.75000   0.00000  Uiso   1.00
C231   C     0.15187   0.09813   0.25000   0.00000  Uiso   1.00
C232   C     0.34813   0.40187   0.74999   0.00000  Uiso   1.00
C233   C     0.40187   0.15187   0.25000   0.00000  Uiso   1.00
C234   C     0.09813   0.34812   0.75001   0.00000  Uiso   1.00
C235   C     0.34813   0.40187   0.25000   0.00000  Uiso   1.00
C236   C     0.15187   0.09813   0.75000   0.00000  Uiso   1.00
C237   C     0.09813   0.15187   0.75000   0.00000  Uiso   1.00
C238   C     0.40187   0.34813   0.25000   0.00000  Uiso   1.00
C239   C     0.15187   0.40187   0.75001   0.00000  Uiso   1.00
C240   C     0.34813   0.09813   0.24999   0.00000  Uiso   1.00
C241   C     0.40187   0.34813   0.74999   0.00000  Uiso   1.00
C242   C     0.09813   0.15187   0.25000   0.00000  Uiso   1.00
C243   C     0.34813   0.09813   0.75000   0.00000  Uiso   1.00
C244   C     0.15187   0.40187   0.25000   0.00000  Uiso   1.00
C245   C     0.00000   0.25003   0.47967   0.00000  Uiso   1.00
C246   C     0.00000   0.25003   0.52033   0.00000  Uiso   1.00
C247   C     0.25000  -0.00000   0.47967   0.00000  Uiso   1.00
C248   C     0.25000   0.00000   0.52033   0.00000  Uiso   1.00
C249   C     0.25000   0.49999   0.97967   0.00000  Uiso   1.00
C250   C     0.25000   0.49999   0.02033   0.00000  Uiso   1.00
C251   C     0.00044   0.24996   0.97967   0.00000  Uiso   1.00
C252   C     0.49957   0.25004   0.02033   0.00000  Uiso   1.00
C253   C     0.10289   0.25531   0.45818   0.00000  Uiso   1.00
H254   H     0.09982   0.27804   0.43714   0.00000  Uiso   1.00
H255   H     0.12532   0.26436   0.47745   0.00000  Uiso   1.00
H256   H     0.11115   0.23008   0.44269   0.00000  Uiso   1.00
C257   C     0.39820   0.26577   0.54181   0.00000  Uiso   1.00
H258   H     0.40361   0.28797   0.56294   0.00000  Uiso   1.00
H259   H     0.37689   0.27721   0.52254   0.00000  Uiso   1.00
H260   H     0.38730   0.24149   0.55719   0.00000  Uiso   1.00
C261   C     0.24124   0.10265   0.45818   0.00000  Uiso   1.00
H262   H     0.21865   0.09881   0.43713   0.00000  Uiso   1.00
H263   H     0.23142   0.12475   0.47745   0.00000  Uiso   1.00
H264   H     0.26618   0.11177   0.44270   0.00000  Uiso   1.00
C265   C     0.23776   0.39771   0.54182   0.00000  Uiso   1.00
H266   H     0.22712   0.37599   0.52255   0.00000  Uiso   1.00
H267   H     0.26239   0.38769   0.55724   0.00000  Uiso   1.00
H268   H     0.21536   0.40234   0.56292   0.00000  Uiso   1.00
C269   C     0.39711   0.24481   0.45819   0.00000  Uiso   1.00
H270   H     0.40015   0.22206   0.43718   0.00000  Uiso   1.00
H271   H     0.37466   0.23583   0.47746   0.00000  Uiso   1.00
H272   H     0.38890   0.27004   0.44265   0.00000  Uiso   1.00
C273   C     0.10182   0.23435   0.54181   0.00000  Uiso   1.00
H274   H     0.09644   0.21212   0.56292   0.00000  Uiso   1.00
H275   H     0.12316   0.22297   0.52253   0.00000  Uiso   1.00
H276   H     0.11268   0.25863   0.55721   0.00000  Uiso   1.00
C277   C     0.25874   0.39735   0.45820   0.00000  Uiso   1.00
H278   H     0.28134   0.40118   0.43715   0.00000  Uiso   1.00
H279   H     0.26855   0.37524   0.47747   0.00000  Uiso   1.00
H280   H     0.23380   0.38823   0.44272   0.00000  Uiso   1.00
C281   C     0.26223   0.10229   0.54180   0.00000  Uiso   1.00
H282   H     0.28463   0.09767   0.56290   0.00000  Uiso   1.00
H283   H     0.27287   0.12401   0.52252   0.00000  Uiso   1.00
H284   H     0.23760   0.11231   0.55722   0.00000  Uiso   1.00
C285   C     0.14865   0.48154   0.95819   0.00000  Uiso   1.00
H286   H     0.15466   0.45950   0.93706   0.00000  Uiso   1.00
H287   H     0.12766   0.46953   0.97746   0.00000  Uiso   1.00
H288   H     0.13711   0.00552   0.94281   0.00000  Uiso   1.00
C289   C     0.35300   0.49751   0.04181   0.00000  Uiso   1.00
H290   H     0.35056   0.47470   0.06283   0.00000  Uiso   1.00
H291   H     0.37568   0.48912   0.02254   0.00000  Uiso   1.00
H292   H     0.36053   0.02296   0.05733   0.00000  Uiso   1.00
C293   C     0.01994   0.35111   0.95820   0.00000  Uiso   1.00
H294   H     0.03231   0.37189   0.97746   0.00000  Uiso   1.00
H295   H     0.04186   0.34480   0.93702   0.00000  Uiso   1.00
H296   H     0.49611   0.36303   0.94288   0.00000  Uiso   1.00
C297   C     0.48008   0.14889   0.04180   0.00000  Uiso   1.00
H298   H     0.46771   0.12810   0.02254   0.00000  Uiso   1.00
H299   H     0.00391   0.13698   0.05712   0.00000  Uiso   1.00
H300   H     0.45815   0.15519   0.06298   0.00000  Uiso   1.00
C301   C     0.35135   0.01842   0.95819   0.00000  Uiso   1.00
H302   H     0.34535   0.04047   0.93705   0.00000  Uiso   1.00
H303   H     0.37235   0.03043   0.97746   0.00000  Uiso   1.00
H304   H     0.36289   0.49445   0.94281   0.00000  Uiso   1.00
C305   C     0.14700   0.00246   0.04181   0.00000  Uiso   1.00
H306   H     0.14943   0.02528   0.06283   0.00000  Uiso   1.00
H307   H     0.12432   0.01084   0.02254   0.00000  Uiso   1.00
H308   H     0.13948   0.47702   0.05734   0.00000  Uiso   1.00
C309   C     0.00086   0.14695   0.95817   0.00000  Uiso   1.00
H310   H     0.02373   0.14898   0.93716   0.00000  Uiso   1.00
H311   H     0.00887   0.12412   0.97743   0.00000  Uiso   1.00
H312   H     0.47530   0.13985   0.94265   0.00000  Uiso   1.00
C313   C     0.49914   0.35305   0.04182   0.00000  Uiso   1.00
H314   H     0.47627   0.35102   0.06283   0.00000  Uiso   1.00
H315   H     0.02470   0.36014   0.05736   0.00000  Uiso   1.00
H316   H     0.49114   0.37588   0.02256   0.00000  Uiso   1.00
Zn317  Zn    0.70660   0.00000   0.21735   0.00000  Uiso   1.00
Zn318  Zn    0.79341   0.00000   0.78265   0.00000  Uiso   1.00
Zn319  Zn    0.50000   0.20660   0.21735   0.00000  Uiso   1.00
Zn320  Zn    0.50000   0.29340   0.78265   0.00000  Uiso   1.00
Zn321  Zn    0.79341   0.00000   0.21735   0.00000  Uiso   1.00
Zn322  Zn    0.70660   0.00000   0.78265   0.00000  Uiso   1.00
Zn323  Zn    0.50000   0.29341   0.21735   0.00000  Uiso   1.00
Zn324  Zn    0.50000   0.20660   0.78265   0.00000  Uiso   1.00
Zn325  Zn    0.95660   0.25000   0.71735   0.00000  Uiso   1.00
Zn326  Zn    0.54341   0.25000   0.28265   0.00000  Uiso   1.00
Zn327  Zn    0.75000   0.45659   0.71735   0.00000  Uiso   1.00
Zn328  Zn    0.75000   0.04341   0.28265   0.00000  Uiso   1.00
Zn329  Zn    0.54341   0.25000   0.71735   0.00000  Uiso   1.00
Zn330  Zn    0.95660   0.25000   0.28265   0.00000  Uiso   1.00
Zn331  Zn    0.75000   0.04341   0.71735   0.00000  Uiso   1.00
Zn332  Zn    0.75000   0.45659   0.28265   0.00000  Uiso   1.00
C333   C     0.96709   0.25105   0.41863   0.00000  Uiso   1.00
C334   C     0.53286   0.24782   0.58138   0.00000  Uiso   1.00
C335   C     0.75005   0.46707   0.41863   0.00000  Uiso   1.00
C336   C     0.75111   0.03292   0.58137   0.00000  Uiso   1.00
C337   C     0.53292   0.24899   0.41863   0.00000  Uiso   1.00
C338   C     0.96714   0.25221   0.58138   0.00000  Uiso   1.00
C339   C     0.74995   0.03293   0.41863   0.00000  Uiso   1.00
C340   C     0.74888   0.46709   0.58138   0.00000  Uiso   1.00
C341   C     0.78279   0.00304   0.91862   0.00000  Uiso   1.00
C342   C     0.71712   0.49811   0.08137   0.00000  Uiso   1.00
C343   C     0.99810   0.21712   0.91862   0.00000  Uiso   1.00
C344   C     0.50190   0.28288   0.08137   0.00000  Uiso   1.00
C345   C     0.71721   0.49695   0.91862   0.00000  Uiso   1.00
C346   C     0.78288   0.00188   0.08137   0.00000  Uiso   1.00
C347   C     0.50398   0.28272   0.91862   0.00000  Uiso   1.00
C348   C     0.99603   0.21728   0.08138   0.00000  Uiso   1.00
C349   C     0.50000   0.25001   0.39843   0.00000  Uiso   1.00
C350   C     0.50000   0.25001   0.60157   0.00000  Uiso   1.00
C351   C     0.75000  -0.00000   0.39843   0.00000  Uiso   1.00
C352   C     0.75000   0.00000   0.60157   0.00000  Uiso   1.00
C353   C     0.75000  -0.00000   0.89842   0.00000  Uiso   1.00
C354   C     0.75000  -0.00000   0.10157   0.00000  Uiso   1.00
C355   C     0.50067   0.24995   0.89843   0.00000  Uiso   1.00
C356   C     0.99934   0.25005   0.10157   0.00000  Uiso   1.00
O357   O     0.75000   0.00000   0.25000   0.00000  Uiso   1.00
O358   O     0.75000   0.00000   0.75000   0.00000  Uiso   1.00
O359   O     0.50000   0.25000   0.25000   0.00000  Uiso   1.00
O360   O     0.50000   0.25000   0.75000   0.00000  Uiso   1.00
O361   O     0.75000   0.46963   0.33755   0.00000  Uiso   1.00
O362   O     0.75000   0.03037   0.66245   0.00000  Uiso   1.00
O363   O     0.53037   0.25000   0.33755   0.00000  Uiso   1.00
O364   O     0.96964   0.25000   0.66245   0.00000  Uiso   1.00
O365   O     0.75000   0.03037   0.33755   0.00000  Uiso   1.00
O366   O     0.75000   0.46963   0.66245   0.00000  Uiso   1.00
O367   O     0.96964   0.25000   0.33755   0.00000  Uiso   1.00
O368   O     0.53037   0.25000   0.66245   0.00000  Uiso   1.00
O369   O     0.50000   0.21964   0.83755   0.00000  Uiso   1.00
O370   O     0.50000   0.28037   0.16245   0.00000  Uiso   1.00
O371   O     0.78037   0.00000   0.83755   0.00000  Uiso   1.00
O372   O     0.71964   0.00000   0.16245   0.00000  Uiso   1.00
O373   O     0.50000   0.28037   0.83755   0.00000  Uiso   1.00
O374   O     0.50000   0.21963   0.16245   0.00000  Uiso   1.00
O375   O     0.71964   0.00000   0.83755   0.00000  Uiso   1.00
O376   O     0.78037   0.00000   0.16245   0.00000  Uiso   1.00
O377   O     0.70725   0.07308   0.27302   0.00000  Uiso   1.00
O378   O     0.79276   0.42692   0.72698   0.00000  Uiso   1.00
O379   O     0.92693   0.20725   0.27302   0.00000  Uiso   1.00
O380   O     0.57308   0.29275   0.72698   0.00000  Uiso   1.00
O381   O     0.79276   0.42692   0.27302   0.00000  Uiso   1.00
O382   O     0.70725   0.07308   0.72698   0.00000  Uiso   1.00
O383   O     0.57308   0.29275   0.27302   0.00000  Uiso   1.00
O384   O     0.92693   0.20725   0.72698   0.00000  Uiso   1.00
O385   O     0.70725   0.42692   0.72698   0.00000  Uiso   1.00
O386   O     0.79276   0.07308   0.27302   0.00000  Uiso   1.00
O387   O     0.92693   0.29276   0.72698   0.00000  Uiso   1.00
O388   O     0.57308   0.20724   0.27302   0.00000  Uiso   1.00
O389   O     0.79276   0.07308   0.72698   0.00000  Uiso   1.00
O390   O     0.70725   0.42692   0.27302   0.00000  Uiso   1.00
O391   O     0.57308   0.20724   0.72698   0.00000  Uiso   1.00
O392   O     0.92693   0.29276   0.27302   0.00000  Uiso   1.00
O393   O     0.95725   0.32307   0.77302   0.00000  Uiso   1.00
O394   O     0.54276   0.17692   0.22698   0.00000  Uiso   1.00
O395   O     0.67693   0.45724   0.77302   0.00000  Uiso   1.00
O396   O     0.82308   0.04276   0.22698   0.00000  Uiso   1.00
O397   O     0.54276   0.17692   0.77302   0.00000  Uiso   1.00
O398   O     0.95725   0.32307   0.22698   0.00000  Uiso   1.00
O399   O     0.82308   0.04276   0.77302   0.00000  Uiso   1.00
O400   O     0.67693   0.45724   0.22698   0.00000  Uiso   1.00
O401   O     0.95725   0.17693   0.22698   0.00000  Uiso   1.00
O402   O     0.54276   0.32307   0.77302   0.00000  Uiso   1.00
O403   O     0.67693   0.04276   0.22698   0.00000  Uiso   1.00
O404   O     0.82308   0.45724   0.77302   0.00000  Uiso   1.00
O405   O     0.54276   0.32307   0.22698   0.00000  Uiso   1.00
O406   O     0.95725   0.17693   0.77302   0.00000  Uiso   1.00
O407   O     0.82308   0.45724   0.22698   0.00000  Uiso   1.00
O408   O     0.67693   0.04276   0.77302   0.00000  Uiso   1.00
C409   C     0.56723   0.24902   0.47966   0.00000  Uiso   1.00
C410   C     0.93302   0.25582   0.52034   0.00000  Uiso   1.00
C411   C     0.74875   0.06722   0.47966   0.00000  Uiso   1.00
C412   C     0.74649   0.43286   0.52035   0.00000  Uiso   1.00
C413   C     0.93277   0.25107   0.47967   0.00000  Uiso   1.00
C414   C     0.56699   0.24427   0.52034   0.00000  Uiso   1.00
C415   C     0.75124   0.43277   0.47967   0.00000  Uiso   1.00
C416   C     0.75350   0.06714   0.52033   0.00000  Uiso   1.00
C417   C     0.68320   0.49243   0.97966   0.00000  Uiso   1.00
C418   C     0.81718   0.00282   0.02033   0.00000  Uiso   1.00
C419   C     0.50856   0.31671   0.97966   0.00000  Uiso   1.00
C420   C     0.99145   0.18329   0.02034   0.00000  Uiso   1.00
C421   C     0.81681   0.00755   0.97966   0.00000  Uiso   1.00
C422   C     0.68282   0.49716   0.02034   0.00000  Uiso   1.00
C423   C     0.99616   0.18285   0.97966   0.00000  Uiso   1.00
C424   C     0.50384   0.31715   0.02034   0.00000  Uiso   1.00
C425   C     0.75000  -0.00000   0.35597   0.00000  Uiso   1.00
C426   C     0.75000   0.00000   0.64403   0.00000  Uiso   1.00
C427   C     0.50000   0.25000   0.35597   0.00000  Uiso   1.00
C428   C     0.50000   0.25000   0.64403   0.00000  Uiso   1.00
C429   C     0.50006   0.24999   0.85597   0.00000  Uiso   1.00
C430   C     0.99994   0.25001   0.14403   0.00000  Uiso   1.00
C431   C     0.75000  -0.00000   0.85597   0.00000  Uiso   1.00
C432   C     0.75000  -0.00000   0.14403   0.00000  Uiso   1.00
C433   C     0.67994   0.07006   0.25000   0.00000  Uiso   1.00
C434   C     0.82006   0.42994   0.75000   0.00000  Uiso   1.00
C435   C     0.92994   0.17994   0.25000   0.00000  Uiso   1.00
C436   C     0.57006   0.32006   0.75000   0.00000  Uiso   1.00
C437   C     0.82006   0.42994   0.25000   0.00000  Uiso   1.00
C438   C     0.67994   0.07006   0.75000   0.00000  Uiso   1.00
C439   C     0.57006   0.32006   0.25000   0.00000  Uiso   1.00
C440   C     0.92994   0.17994   0.75000   0.00000  Uiso   1.00
C441   C     0.67994   0.42994   0.75000   0.00000  Uiso   1.00
C442   C     0.82006   0.07006   0.25000   0.00000  Uiso   1.00
C443   C     0.92994   0.32006   0.75000   0.00000  Uiso   1.00
C444   C     0.57006   0.17994   0.25000   0.00000  Uiso   1.00
C445   C     0.82006   0.07006   0.75000   0.00000  Uiso   1.00
C446   C     0.67994   0.42994   0.25000   0.00000  Uiso   1.00
C447   C     0.57006   0.17994   0.75000   0.00000  Uiso   1.00
C448   C     0.92994   0.32006   0.25000   0.00000  Uiso   1.00
C449   C     0.62199   0.40474   0.22482   0.00000  Uiso   1.00
C450   C     0.87799   0.09527   0.77520   0.00000  Uiso   1.00
C451   C     0.59524   0.12198   0.22484   0.00000  Uiso   1.00
C452   C     0.90477   0.37803   0.77514   0.00000  Uiso   1.00
C453   C     0.87799   0.09527   0.22480   0.00000  Uiso   1.00
C454   C     0.62202   0.40471   0.77522   0.00000  Uiso   1.00
C455   C     0.90475   0.37801   0.22482   0.00000  Uiso   1.00
C456   C     0.59524   0.12198   0.77516   0.00000  Uiso   1.00
C457   C     0.62198   0.09524   0.77516   0.00000  Uiso   1.00
C458   C     0.87801   0.40475   0.22482   0.00000  Uiso   1.00
C459   C     0.59529   0.37798   0.77522   0.00000  Uiso   1.00
C460   C     0.90473   0.12201   0.22480   0.00000  Uiso   1.00
C461   C     0.87803   0.40477   0.77514   0.00000  Uiso   1.00
C462   C     0.62198   0.09524   0.22484   0.00000  Uiso   1.00
C463   C     0.90473   0.12201   0.77520   0.00000  Uiso   1.00
C464   C     0.59526   0.37801   0.22482   0.00000  Uiso   1.00
C465   C     0.87200   0.15474   0.72481   0.00000  Uiso   1.00
C466   C     0.62801   0.34525   0.27518   0.00000  Uiso   1.00
C467   C     0.84524   0.37198   0.72484   0.00000  Uiso   1.00
C468   C     0.65475   0.12801   0.27517   0.00000  Uiso   1.00
C469   C     0.62799   0.34528   0.72479   0.00000  Uiso   1.00
C470   C     0.87200   0.15473   0.27519   0.00000  Uiso   1.00
C471   C     0.65475   0.12802   0.72483   0.00000  Uiso   1.00
C472   C     0.84526   0.37199   0.27518   0.00000  Uiso   1.00
C473   C     0.87199   0.34525   0.27518   0.00000  Uiso   1.00
C474   C     0.62801   0.15475   0.72483   0.00000  Uiso   1.00
C475   C     0.84526   0.12800   0.27519   0.00000  Uiso   1.00
C476   C     0.65472   0.37201   0.72479   0.00000  Uiso   1.00
C477   C     0.62802   0.15475   0.27517   0.00000  Uiso   1.00
C478   C     0.87198   0.34524   0.72484   0.00000  Uiso   1.00
C479   C     0.65475   0.37199   0.27518   0.00000  Uiso   1.00
C480   C     0.84527   0.12800   0.72481   0.00000  Uiso   1.00
H481   H     0.61924   0.42760   0.20512   0.00000  Uiso   1.00
H482   H     0.88074   0.07243   0.79491   0.00000  Uiso   1.00
H483   H     0.57238   0.11921   0.20516   0.00000  Uiso   1.00
H484   H     0.92763   0.38080   0.79482   0.00000  Uiso   1.00
H485   H     0.88074   0.07243   0.20509   0.00000  Uiso   1.00
H486   H     0.61929   0.42754   0.79495   0.00000  Uiso   1.00
H487   H     0.92760   0.38077   0.20513   0.00000  Uiso   1.00
H488   H     0.57239   0.11921   0.79485   0.00000  Uiso   1.00
H489   H     0.61922   0.07239   0.79485   0.00000  Uiso   1.00
H490   H     0.88077   0.42760   0.20513   0.00000  Uiso   1.00
H491   H     0.57246   0.38071   0.79495   0.00000  Uiso   1.00
H492   H     0.92757   0.11927   0.20508   0.00000  Uiso   1.00
H493   H     0.88080   0.42763   0.79482   0.00000  Uiso   1.00
H494   H     0.61921   0.07239   0.20516   0.00000  Uiso   1.00
H495   H     0.92757   0.11926   0.79491   0.00000  Uiso   1.00
H496   H     0.57241   0.38077   0.20512   0.00000  Uiso   1.00
H497   H     0.86926   0.17758   0.70510   0.00000  Uiso   1.00
H498   H     0.63076   0.32240   0.29487   0.00000  Uiso   1.00
H499   H     0.82238   0.36921   0.70517   0.00000  Uiso   1.00
H500   H     0.67761   0.13078   0.29485   0.00000  Uiso   1.00
H501   H     0.63072   0.32245   0.70506   0.00000  Uiso   1.00
H502   H     0.86925   0.17757   0.29490   0.00000  Uiso   1.00
H503   H     0.67761   0.13078   0.70514   0.00000  Uiso   1.00
H504   H     0.82241   0.36923   0.29488   0.00000  Uiso   1.00
H505   H     0.86924   0.32240   0.29488   0.00000  Uiso   1.00
H506   H     0.63078   0.17761   0.70514   0.00000  Uiso   1.00
H507   H     0.82242   0.13074   0.29490   0.00000  Uiso   1.00
H508   H     0.67755   0.36928   0.70506   0.00000  Uiso   1.00
H509   H     0.63078   0.17761   0.29485   0.00000  Uiso   1.00
H510   H     0.86921   0.32238   0.70516   0.00000  Uiso   1.00
H511   H     0.67760   0.36923   0.29487   0.00000  Uiso   1.00
H512   H     0.82243   0.13075   0.70509   0.00000  Uiso   1.00
C513   C     0.53363   0.24951   0.45927   0.00000  Uiso   1.00
C514   C     0.96649   0.25286   0.54074   0.00000  Uiso   1.00
C515   C     0.74940   0.03363   0.45926   0.00000  Uiso   1.00
C516   C     0.74828   0.46641   0.54074   0.00000  Uiso   1.00
C517   C     0.96637   0.25056   0.45927   0.00000  Uiso   1.00
C518   C     0.53352   0.24720   0.54074   0.00000  Uiso   1.00
C519   C     0.75059   0.46637   0.45927   0.00000  Uiso   1.00
C520   C     0.75171   0.03359   0.54073   0.00000  Uiso   1.00
C521   C     0.71658   0.49627   0.95926   0.00000  Uiso   1.00
C522   C     0.78360   0.00141   0.04073   0.00000  Uiso   1.00
C523   C     0.50447   0.28336   0.95927   0.00000  Uiso   1.00
C524   C     0.99554   0.21664   0.04073   0.00000  Uiso   1.00
C525   C     0.78343   0.00371   0.95926   0.00000  Uiso   1.00
C526   C     0.71640   0.49858   0.04073   0.00000  Uiso   1.00
C527   C     0.99834   0.21639   0.95927   0.00000  Uiso   1.00
C528   C     0.50166   0.28361   0.04073   0.00000  Uiso   1.00
H529   H     0.94205   0.25288   0.40217   0.00000  Uiso   1.00
H530   H     0.55795   0.24712   0.59783   0.00000  Uiso   1.00
H531   H     0.74906   0.44198   0.40218   0.00000  Uiso   1.00
H532   H     0.75095   0.05802   0.59782   0.00000  Uiso   1.00
H533   H     0.55795   0.24715   0.40217   0.00000  Uiso   1.00
H534   H     0.94205   0.25290   0.59782   0.00000  Uiso   1.00
H535   H     0.75094   0.05801   0.40217   0.00000  Uiso   1.00
H536   H     0.74904   0.44199   0.59783   0.00000  Uiso   1.00
H537   H     0.80785   0.00441   0.90217   0.00000  Uiso   1.00
H538   H     0.69215   0.49560   0.09783   0.00000  Uiso   1.00
H539   H     0.99487   0.19223   0.90217   0.00000  Uiso   1.00
H540   H     0.50513   0.30777   0.09783   0.00000  Uiso   1.00
H541   H     0.69215   0.49557   0.90217   0.00000  Uiso   1.00
H542   H     0.80785   0.00439   0.09783   0.00000  Uiso   1.00
H543   H     0.50537   0.30778   0.90217   0.00000  Uiso   1.00
H544   H     0.99464   0.19222   0.09783   0.00000  Uiso   1.00
C545   C     0.59813   0.34813   0.25000   0.00000  Uiso   1.00
C546   C     0.90187   0.15187   0.75000   0.00000  Uiso   1.00
C547   C     0.65187   0.09813   0.25000   0.00000  Uiso   1.00
C548   C     0.84813   0.40187   0.74999   0.00000  Uiso   1.00
C549   C     0.90187   0.15187   0.25000   0.00000  Uiso   1.00
C550   C     0.59813   0.34812   0.75001   0.00000  Uiso   1.00
C551   C     0.84813   0.40187   0.25000   0.00000  Uiso   1.00
C552   C     0.65187   0.09813   0.75000   0.00000  Uiso   1.00
C553   C     0.59813   0.15187   0.75000   0.00000  Uiso   1.00
C554   C     0.90187   0.34813   0.25000   0.00000  Uiso   1.00
C555   C     0.65187   0.40187   0.75001   0.00000  Uiso   1.00
C556   C     0.84813   0.09813   0.24999   0.00000  Uiso   1.00
C557   C     0.90187   0.34813   0.74999   0.00000  Uiso   1.00
C558   C     0.59813   0.15187   0.25000   0.00000  Uiso   1.00
C559   C     0.84813   0.09813   0.75000   0.00000  Uiso   1.00
C560   C     0.65187   0.40187   0.25000   0.00000  Uiso   1.00
C561   C     0.50000   0.25003   0.47967   0.00000  Uiso   1.00
C562   C     0.50000   0.25003   0.52033   0.00000  Uiso   1.00
C563   C     0.75000  -0.00000   0.47967   0.00000  Uiso   1.00
C564   C     0.75000   0.00000   0.52033   0.00000  Uiso   1.00
C565   C     0.75000   0.49999   0.97967   0.00000  Uiso   1.00
C566   C     0.75000   0.49999   0.02033   0.00000  Uiso   1.00
C567   C     0.50044   0.24996   0.97967   0.00000  Uiso   1.00
C568   C     0.99957   0.25004   0.02033   0.00000  Uiso   1.00
C569   C     0.60289   0.25531   0.45818   0.00000  Uiso   1.00
H570   H     0.59982   0.27804   0.43714   0.00000  Uiso   1.00
H571   H     0.62532   0.26436   0.47745   0.00000  Uiso   1.00
H572   H     0.61115   0.23008   0.44269   0.00000  Uiso   1.00
C573   C     0.89820   0.26577   0.54181   0.00000  Uiso   1.00
H574   H     0.90361   0.28797   0.56294   0.00000  Uiso   1.00
H575   H     0.87689   0.27721   0.52254   0.00000  Uiso   1.00
H576   H     0.88730   0.24149   0.55719   0.00000  Uiso   1.00
C577   C     0.74124   0.10265   0.45818   0.00000  Uiso   1.00
H578   H     0.71865   0.09881   0.43713   0.00000  Uiso   1.00
H579   H     0.73142   0.12475   0.47745   0.00000  Uiso   1.00
H580   H     0.76618   0.11177   0.44270   0.00000  Uiso   1.00
C581   C     0.73776   0.39771   0.54182   0.00000  Uiso   1.00
H582   H     0.72712   0.37599   0.52255   0.00000  Uiso   1.00
H583   H     0.76239   0.38769   0.55724   0.00000  Uiso   1.00
H584   H     0.71536   0.40234   0.56292   0.00000  Uiso   1.00
C585   C     0.89711   0.24481   0.45819   0.00000  Uiso   1.00
H586   H     0.90015   0.22206   0.43718   0.00000  Uiso   1.00
H587   H     0.87466   0.23583   0.47746   0.00000  Uiso   1.00
H588   H     0.88890   0.27004   0.44265   0.00000  Uiso   1.00
C589   C     0.60182   0.23435   0.54181   0.00000  Uiso   1.00
H590   H     0.59644   0.21212   0.56292   0.00000  Uiso   1.00
H591   H     0.62316   0.22297   0.52253   0.00000  Uiso   1.00
H592   H     0.61268   0.25863   0.55721   0.00000  Uiso   1.00
C593   C     0.75874   0.39735   0.45820   0.00000  Uiso   1.00
H594   H     0.78134   0.40118   0.43715   0.00000  Uiso   1.00
H595   H     0.76855   0.37524   0.47747   0.00000  Uiso   1.00
H596   H     0.73380   0.38823   0.44272   0.00000  Uiso   1.00
C597   C     0.76223   0.10229   0.54180   0.00000  Uiso   1.00
H598   H     0.78463   0.09767   0.56290   0.00000  Uiso   1.00
H599   H     0.77287   0.12401   0.52252   0.00000  Uiso   1.00
H600   H     0.73760   0.11231   0.55722   0.00000  Uiso   1.00
C601   C     0.64865   0.48154   0.95819   0.00000  Uiso   1.00
H602   H     0.65466   0.45950   0.93706   0.00000  Uiso   1.00
H603   H     0.62766   0.46953   0.97746   0.00000  Uiso   1.00
H604   H     0.63711   0.00552   0.94281   0.00000  Uiso   1.00
C605   C     0.85300   0.49751   0.04181   0.00000  Uiso   1.00
H606   H     0.85056   0.47470   0.06283   0.00000  Uiso   1.00
H607   H     0.87568   0.48912   0.02254   0.00000  Uiso   1.00
H608   H     0.86053   0.02296   0.05733   0.00000  Uiso   1.00
C609   C     0.51994   0.35111   0.95820   0.00000  Uiso   1.00
H610   H     0.53231   0.37189   0.97746   0.00000  Uiso   1.00
H611   H     0.54186   0.34480   0.93702   0.00000  Uiso   1.00
H612   H     0.99611   0.36303   0.94288   0.00000  Uiso   1.00
C613   C     0.98008   0.14889   0.04180   0.00000  Uiso   1.00
H614   H     0.96771   0.12810   0.02254   0.00000  Uiso   1.00
H615   H     0.50391   0.13698   0.05712   0.00000  Uiso   1.00
H616   H     0.95815   0.15519   0.06298   0.00000  Uiso   1.00
C617   C     0.85135   0.01842   0.95819   0.00000  Uiso   1.00
H618   H     0.84535   0.04047   0.93705   0.00000  Uiso   1.00
H619   H     0.87235   0.03043   0.97746   0.00000  Uiso   1.00
H620   H     0.86289   0.49445   0.94281   0.00000  Uiso   1.00
C621   C     0.64700   0.00246   0.04181   0.00000  Uiso   1.00
H622   H     0.64943   0.02528   0.06283   0.00000  Uiso   1.00
H623   H     0.62432   0.01084   0.02254   0.00000  Uiso   1.00
H624   H     0.63948   0.47702   0.05734   0.00000  Uiso   1.00
C625   C     0.50086   0.14695   0.95817   0.00000  Uiso   1.00
H626   H     0.52373   0.14898   0.93716   0.00000  Uiso   1.00
H627   H     0.50887   0.12412   0.97743   0.00000  Uiso   1.00
H628   H     0.97530   0.13985   0.94265   0.00000  Uiso   1.00
C629   C     0.99914   0.35305   0.04182   0.00000  Uiso   1.00
H630   H     0.97627   0.35102   0.06283   0.00000  Uiso   1.00
H631   H     0.52470   0.36014   0.05736   0.00000  Uiso   1.00
H632   H     0.99114   0.37588   0.02256   0.00000  Uiso   1.00
Zn633  Zn    0.20660   0.50000   0.21735   0.00000  Uiso   1.00
Zn634  Zn    0.29341   0.50000   0.78265   0.00000  Uiso   1.00
Zn635  Zn    0.00000   0.70660   0.21735   0.00000  Uiso   1.00
Zn636  Zn    0.00000   0.79340   0.78265   0.00000  Uiso   1.00
Zn637  Zn    0.29341   0.50000   0.21735   0.00000  Uiso   1.00
Zn638  Zn    0.20660   0.50000   0.78265   0.00000  Uiso   1.00
Zn639  Zn    0.00000   0.79341   0.21735   0.00000  Uiso   1.00
Zn640  Zn    0.00000   0.70660   0.78265   0.00000  Uiso   1.00
Zn641  Zn    0.45660   0.75000   0.71735   0.00000  Uiso   1.00
Zn642  Zn    0.04341   0.75000   0.28265   0.00000  Uiso   1.00
Zn643  Zn    0.25000   0.95659   0.71735   0.00000  Uiso   1.00
Zn644  Zn    0.25000   0.54341   0.28265   0.00000  Uiso   1.00
Zn645  Zn    0.04341   0.75000   0.71735   0.00000  Uiso   1.00
Zn646  Zn    0.45660   0.75000   0.28265   0.00000  Uiso   1.00
Zn647  Zn    0.25000   0.54341   0.71735   0.00000  Uiso   1.00
Zn648  Zn    0.25000   0.95659   0.28265   0.00000  Uiso   1.00
C649   C     0.46709   0.75105   0.41863   0.00000  Uiso   1.00
C650   C     0.03286   0.74782   0.58138   0.00000  Uiso   1.00
C651   C     0.25005   0.96707   0.41863   0.00000  Uiso   1.00
C652   C     0.25111   0.53292   0.58137   0.00000  Uiso   1.00
C653   C     0.03292   0.74899   0.41863   0.00000  Uiso   1.00
C654   C     0.46714   0.75221   0.58138   0.00000  Uiso   1.00
C655   C     0.24995   0.53293   0.41863   0.00000  Uiso   1.00
C656   C     0.24888   0.96709   0.58138   0.00000  Uiso   1.00
C657   C     0.28279   0.50304   0.91862   0.00000  Uiso   1.00
C658   C     0.21712   0.99811   0.08137   0.00000  Uiso   1.00
C659   C     0.49810   0.71712   0.91862   0.00000  Uiso   1.00
C660   C     0.00190   0.78288   0.08137   0.00000  Uiso   1.00
C661   C     0.21721   0.99695   0.91862   0.00000  Uiso   1.00
C662   C     0.28288   0.50188   0.08137   0.00000  Uiso   1.00
C663   C     0.00398   0.78272   0.91862   0.00000  Uiso   1.00
C664   C     0.49603   0.71728   0.08138   0.00000  Uiso   1.00
C665   C     0.00000   0.75001   0.39843   0.00000  Uiso   1.00
C666   C     0.00000   0.75001   0.60157   0.00000  Uiso   1.00
C667   C     0.25000   0.50000   0.39843   0.00000  Uiso   1.00
C668   C     0.25000   0.50000   0.60157   0.00000  Uiso   1.00
C669   C     0.25000   0.50000   0.89842   0.00000  Uiso   1.00
C670   C     0.25000   0.50000   0.10157   0.00000  Uiso   1.00
C671   C     0.00067   0.74995   0.89843   0.00000  Uiso   1.00
C672   C     0.49934   0.75005   0.10157   0.00000  Uiso   1.00
O673   O     0.25000   0.50000   0.25000   0.00000  Uiso   1.00
O674   O     0.25000   0.50000   0.75000   0.00000  Uiso   1.00
O675   O     0.00000   0.75000   0.25000   0.00000  Uiso   1.00
O676   O     0.00000   0.75000   0.75000   0.00000  Uiso   1.00
O677   O     0.25000   0.96963   0.33755   0.00000  Uiso   1.00
O678   O     0.25000   0.53037   0.66245   0.00000  Uiso   1.00
O679   O     0.03037   0.75000   0.33755   0.00000  Uiso   1.00
O680   O     0.46964   0.75000   0.66245   0.00000  Uiso   1.00
O681   O     0.25000   0.53037   0.33755   0.00000  Uiso   1.00
O682   O     0.25000   0.96963   0.66245   0.00000  Uiso   1.00
O683   O     0.46964   0.75000   0.33755   0.00000  Uiso   1.00
O684   O     0.03037   0.75000   0.66245   0.00000  Uiso   1.00
O685   O     0.00000   0.71964   0.83755   0.00000  Uiso   1.00
O686   O     0.00000   0.78037   0.16245   0.00000  Uiso   1.00
O687   O     0.28037   0.50000   0.83755   0.00000  Uiso   1.00
O688   O     0.21964   0.50000   0.16245   0.00000  Uiso   1.00
O689   O     0.00000   0.78037   0.83755   0.00000  Uiso   1.00
O690   O     0.00000   0.71963   0.16245   0.00000  Uiso   1.00
O691   O     0.21964   0.50000   0.83755   0.00000  Uiso   1.00
O692   O     0.28037   0.50000   0.16245   0.00000  Uiso   1.00
O693   O     0.20725   0.57308   0.27302   0.00000  Uiso   1.00
O694   O     0.29276   0.92692   0.72698   0.00000  Uiso   1.00
O695   O     0.42693   0.70725   0.27302   0.00000  Uiso   1.00
O696   O     0.07308   0.79275   0.72698   0.00000  Uiso   1.00
O697   O     0.29276   0.92692   0.27302   0.00000  Uiso   1.00
O698   O     0.20725   0.57308   0.72698   0.00000  Uiso   1.00
O699   O     0.07308   0.79275   0.27302   0.00000  Uiso   1.00
O700   O     0.42693   0.70725   0.72698   0.00000  Uiso   1.00
O701   O     0.20725   0.92692   0.72698   0.00000  Uiso   1.00
O702   O     0.29276   0.57308   0.27302   0.00000  Uiso   1.00
O703   O     0.42693   0.79276   0.72698   0.00000  Uiso   1.00
O704   O     0.07308   0.70724   0.27302   0.00000  Uiso   1.00
O705   O     0.29276   0.57308   0.72698   0.00000  Uiso   1.00
O706   O     0.20725   0.92692   0.27302   0.00000  Uiso   1.00
O707   O     0.07308   0.70724   0.72698   0.00000  Uiso   1.00
O708   O     0.42693   0.79276   0.27302   0.00000  Uiso   1.00
O709   O     0.45725   0.82307   0.77302   0.00000  Uiso   1.00
O710   O     0.04276   0.67692   0.22698   0.00000  Uiso   1.00
O711   O     0.17693   0.95724   0.77302   0.00000  Uiso   1.00
O712   O     0.32308   0.54276   0.22698   0.00000  Uiso   1.00
O713   O     0.04276   0.67692   0.77302   0.00000  Uiso   1.00
O714   O     0.45725   0.82307   0.22698   0.00000  Uiso   1.00
O715   O     0.32308   0.54276   0.77302   0.00000  Uiso   1.00
O716   O     0.17693   0.95724   0.22698   0.00000  Uiso   1.00
O717   O     0.45725   0.67693   0.22698   0.00000  Uiso   1.00
O718   O     0.04276   0.82307   0.77302   0.00000  Uiso   1.00
O719   O     0.17693   0.54276   0.22698   0.00000  Uiso   1.00
O720   O     0.32308   0.95724   0.77302   0.00000  Uiso   1.00
O721   O     0.04276   0.82307   0.22698   0.00000  Uiso   1.00
O722   O     0.45725   0.67693   0.77302   0.00000  Uiso   1.00
O723   O     0.32308   0.95724   0.22698   0.00000  Uiso   1.00
O724   O     0.17693   0.54276   0.77302   0.00000  Uiso   1.00
C725   C     0.06723   0.74902   0.47966   0.00000  Uiso   1.00
C726   C     0.43302   0.75582   0.52034   0.00000  Uiso   1.00
C727   C     0.24875   0.56722   0.47966   0.00000  Uiso   1.00
C728   C     0.24649   0.93286   0.52035   0.00000  Uiso   1.00
C729   C     0.43277   0.75107   0.47967   0.00000  Uiso   1.00
C730   C     0.06699   0.74427   0.52034   0.00000  Uiso   1.00
C731   C     0.25124   0.93277   0.47967   0.00000  Uiso   1.00
C732   C     0.25350   0.56714   0.52033   0.00000  Uiso   1.00
C733   C     0.18320   0.99243   0.97966   0.00000  Uiso   1.00
C734   C     0.31718   0.50282   0.02033   0.00000  Uiso   1.00
C735   C     0.00856   0.81671   0.97966   0.00000  Uiso   1.00
C736   C     0.49145   0.68329   0.02034   0.00000  Uiso   1.00
C737   C     0.31681   0.50755   0.97966   0.00000  Uiso   1.00
C738   C     0.18282   0.99716   0.02034   0.00000  Uiso   1.00
C739   C     0.49616   0.68285   0.97966   0.00000  Uiso   1.00
C740   C     0.00384   0.81715   0.02034   0.00000  Uiso   1.00
C741   C     0.25000   0.50000   0.35597   0.00000  Uiso   1.00
C742   C     0.25000   0.50000   0.64403   0.00000  Uiso   1.00
C743   C     0.00000   0.75000   0.35597   0.00000  Uiso   1.00
C744   C     0.00000   0.75000   0.64403   0.00000  Uiso   1.00
C745   C     0.00006   0.74999   0.85597   0.00000  Uiso   1.00
C746   C     0.49994   0.75001   0.14403   0.00000  Uiso   1.00
C747   C     0.25000   0.50000   0.85597   0.00000  Uiso   1.00
C748   C     0.25000   0.50000   0.14403   0.00000  Uiso   1.00
C749   C     0.17994   0.57006   0.25000   0.00000  Uiso   1.00
C750   C     0.32006   0.92994   0.75000   0.00000  Uiso   1.00
C751   C     0.42994   0.67994   0.25000   0.00000  Uiso   1.00
C752   C     0.07006   0.82006   0.75000   0.00000  Uiso   1.00
C753   C     0.32006   0.92994   0.25000   0.00000  Uiso   1.00
C754   C     0.17994   0.57006   0.75000   0.00000  Uiso   1.00
C755   C     0.07006   0.82006   0.25000   0.00000  Uiso   1.00
C756   C     0.42994   0.67994   0.75000   0.00000  Uiso   1.00
C757   C     0.17994   0.92994   0.75000   0.00000  Uiso   1.00
C758   C     0.32006   0.57006   0.25000   0.00000  Uiso   1.00
C759   C     0.42994   0.82006   0.75000   0.00000  Uiso   1.00
C760   C     0.07006   0.67994   0.25000   0.00000  Uiso   1.00
C761   C     0.32006   0.57006   0.75000   0.00000  Uiso   1.00
C762   C     0.17994   0.92994   0.25000   0.00000  Uiso   1.00
C763   C     0.07006   0.67994   0.75000   0.00000  Uiso   1.00
C764   C     0.42994   0.82006   0.25000   0.00000  Uiso   1.00
C765   C     0.12199   0.90474   0.22482   0.00000  Uiso   1.00
C766   C     0.37799   0.59527   0.77520   0.00000  Uiso   1.00
C767   C     0.09524   0.62198   0.22484   0.00000  Uiso   1.00
C768   C     0.40477   0.87803   0.77514   0.00000  Uiso   1.00
C769   C     0.37799   0.59527   0.22480   0.00000  Uiso   1.00
C770   C     0.12202   0.90471   0.77522   0.00000  Uiso   1.00
C771   C     0.40475   0.87801   0.22482   0.00000  Uiso   1.00
C772   C     0.09524   0.62198   0.77516   0.00000  Uiso   1.00
C773   C     0.12198   0.59524   0.77516   0.00000  Uiso   1.00
C774   C     0.37801   0.90475   0.22482   0.00000  Uiso   1.00
C775   C     0.09529   0.87798   0.77522   0.00000  Uiso   1.00
C776   C     0.40473   0.62201   0.22480   0.00000  Uiso   1.00
C777   C     0.37803   0.90477   0.77514   0.00000  Uiso   1.00
C778   C     0.12198   0.59524   0.22484   0.00000  Uiso   1.00
C779   C     0.40473   0.62201   0.77520   0.00000  Uiso   1.00
C780   C     0.09526   0.87801   0.22482   0.00000  Uiso   1.00
C781   C     0.37200   0.65474   0.72481   0.00000  Uiso   1.00
C782   C     0.12801   0.84525   0.27518   0.00000  Uiso   1.00
C783   C     0.34524   0.87198   0.72484   0.00000  Uiso   1.00
C784   C     0.15475   0.62801   0.27517   0.00000  Uiso   1.00
C785   C     0.12799   0.84528   0.72479   0.00000  Uiso   1.00
C786   C     0.37200   0.65473   0.27519   0.00000  Uiso   1.00
C787   C     0.15475   0.62802   0.72483   0.00000  Uiso   1.00
C788   C     0.34526   0.87199   0.27518   0.00000  Uiso   1.00
C789   C     0.37199   0.84525   0.27518   0.00000  Uiso   1.00
C790   C     0.12801   0.65475   0.72483   0.00000  Uiso   1.00
C791   C     0.34526   0.62800   0.27519   0.00000  Uiso   1.00
C792   C     0.15472   0.87201   0.72479   0.00000  Uiso   1.00
C793   C     0.12802   0.65475   0.27517   0.00000  Uiso   1.00
C794   C     0.37198   0.84524   0.72484   0.00000  Uiso   1.00
C795   C     0.15475   0.87199   0.27518   0.00000  Uiso   1.00
C796   C     0.34527   0.62800   0.72481   0.00000  Uiso   1.00
H797   H     0.11924   0.92760   0.20512   0.00000  Uiso   1.00
H798   H     0.38074   0.57243   0.79491   0.00000  Uiso   1.00
H799   H     0.07238   0.61921   0.20516   0.00000  Uiso   1.00
H800   H     0.42763   0.88080   0.79482   0.00000  Uiso   1.00
H801   H     0.38074   0.57243   0.20509   0.00000  Uiso   1.00
H802   H     0.11929   0.92754   0.79495   0.00000  Uiso   1.00
H803   H     0.42760   0.88077   0.20513   0.00000  Uiso   1.00
H804   H     0.07239   0.61921   0.79485   0.00000  Uiso   1.00
H805   H     0.11922   0.57239   0.79485   0.00000  Uiso   1.00
H806   H     0.38077   0.92760   0.20513   0.00000  Uiso   1.00
H807   H     0.07246   0.88071   0.79495   0.00000  Uiso   1.00
H808   H     0.42757   0.61927   0.20508   0.00000  Uiso   1.00
H809   H     0.38080   0.92763   0.79482   0.00000  Uiso   1.00
H810   H     0.11921   0.57239   0.20516   0.00000  Uiso   1.00
H811   H     0.42757   0.61926   0.79491   0.00000  Uiso   1.00
H812   H     0.07241   0.88077   0.20512   0.00000  Uiso   1.00
H813   H     0.36926   0.67758   0.70510   0.00000  Uiso   1.00
H814   H     0.13076   0.82240   0.29487   0.00000  Uiso   1.00
H815   H     0.32238   0.86921   0.70517   0.00000  Uiso   1.00
H816   H     0.17761   0.63078   0.29485   0.00000  Uiso   1.00
H817   H     0.13072   0.82245   0.70506   0.00000  Uiso   1.00
H818   H     0.36925   0.67757   0.29490   0.00000  Uiso   1.00
H819   H     0.17761   0.63078   0.70514   0.00000  Uiso   1.00
H820   H     0.32241   0.86923   0.29488   0.00000  Uiso   1.00
H821   H     0.36924   0.82240   0.29488   0.00000  Uiso   1.00
H822   H     0.13078   0.67761   0.70514   0.00000  Uiso   1.00
H823   H     0.32242   0.63074   0.29490   0.00000  Uiso   1.00
H824   H     0.17755   0.86928   0.70506   0.00000  Uiso   1.00
H825   H     0.13078   0.67761   0.29485   0.00000  Uiso   1.00
H826   H     0.36921   0.82238   0.70516   0.00000  Uiso   1.00
H827   H     0.17760   0.86923   0.29487   0.00000  Uiso   1.00
H828   H     0.32243   0.63075   0.70509   0.00000  Uiso   1.00
C829   C     0.03363   0.74951   0.45927   0.00000  Uiso   1.00
C830   C     0.46649   0.75286   0.54074   0.00000  Uiso   1.00
C831   C     0.24940   0.53363   0.45926   0.00000  Uiso   1.00
C832   C     0.24828   0.96641   0.54074   0.00000  Uiso   1.00
C833   C     0.46637   0.75056   0.45927   0.00000  Uiso   1.00
C834   C     0.03352   0.74720   0.54074   0.00000  Uiso   1.00
C835   C     0.25059   0.96637   0.45927   0.00000  Uiso   1.00
C836   C     0.25171   0.53359   0.54073   0.00000  Uiso   1.00
C837   C     0.21658   0.99627   0.95926   0.00000  Uiso   1.00
C838   C     0.28360   0.50141   0.04073   0.00000  Uiso   1.00
C839   C     0.00447   0.78336   0.95927   0.00000  Uiso   1.00
C840   C     0.49554   0.71664   0.04073   0.00000  Uiso   1.00
C841   C     0.28343   0.50371   0.95926   0.00000  Uiso   1.00
C842   C     0.21640   0.99858   0.04073   0.00000  Uiso   1.00
C843   C     0.49834   0.71639   0.95927   0.00000  Uiso   1.00
C844   C     0.00166   0.78361   0.04073   0.00000  Uiso   1.00
H845   H     0.44205   0.75288   0.40217   0.00000  Uiso   1.00
H846   H     0.05795   0.74712   0.59783   0.00000  Uiso   1.00
H847   H     0.24906   0.94198   0.40218   0.00000  Uiso   1.00
H848   H     0.25095   0.55802   0.59782   0.00000  Uiso   1.00
H849   H     0.05795   0.74715   0.40217   0.00000  Uiso   1.00
H850   H     0.44205   0.75290   0.59782   0.00000  Uiso   1.00
H851   H     0.25094   0.55801   0.40217   0.00000  Uiso   1.00
H852   H     0.24904   0.94199   0.59783   0.00000  Uiso   1.00
H853   H     0.30785   0.50441   0.90217   0.00000  Uiso   1.00
H854   H     0.19215   0.99560   0.09783   0.00000  Uiso   1.00
H855   H     0.49487   0.69223   0.90217   0.00000  Uiso   1.00
H856   H     0.00513   0.80777   0.09783   0.00000  Uiso   1.00
H857   H     0.19215   0.99557   0.90217   0.00000  Uiso   1.00
H858   H     0.30785   0.50439   0.09783   0.00000  Uiso   1.00
H859   H     0.00537   0.80778   0.90217   0.00000  Uiso   1.00
H860   H     0.49464   0.69222   0.09783   0.00000  Uiso   1.00
C861   C     0.09813   0.84813   0.25000   0.00000  Uiso   1.00
C862   C     0.40187   0.65187   0.75000   0.00000  Uiso   1.00
C863   C     0.15187   0.59813   0.25000   0.00000  Uiso   1.00
C864   C     0.34813   0.90187   0.74999   0.00000  Uiso   1.00
C865   C     0.40187   0.65187   0.25000   0.00000  Uiso   1.00
C866   C     0.09813   0.84812   0.75001   0.00000  Uiso   1.00
C867   C     0.34813   0.90187   0.25000   0.00000  Uiso   1.00
C868   C     0.15187   0.59813   0.75000   0.00000  Uiso   1.00
C869   C     0.09813   0.65187   0.75000   0.00000  Uiso   1.00
C870   C     0.40187   0.84813   0.25000   0.00000  Uiso   1.00
C871   C     0.15187   0.90187   0.75001   0.00000  Uiso   1.00
C872   C     0.34813   0.59813   0.24999   0.00000  Uiso   1.00
C873   C     0.40187   0.84813   0.74999   0.00000  Uiso   1.00
C874   C     0.09813   0.65187   0.25000   0.00000  Uiso   1.00
C875   C     0.34813   0.59813   0.75000   0.00000  Uiso   1.00
C876   C     0.15187   0.90187   0.25000   0.00000  Uiso   1.00
C877   C     0.00000   0.75003   0.47967   0.00000  Uiso   1.00
C878   C     0.00000   0.75003   0.52033   0.00000  Uiso   1.00
C879   C     0.25000   0.50000   0.47967   0.00000  Uiso   1.00
C880   C     0.25000   0.50000   0.52033   0.00000  Uiso   1.00
C881   C     0.25000   0.99999   0.97967   0.00000  Uiso   1.00
C882   C     0.25000   0.99999   0.02033   0.00000  Uiso   1.00
C883   C     0.00044   0.74996   0.97967   0.00000  Uiso   1.00
C884   C     0.49957   0.75004   0.02033   0.00000  Uiso   1.00
C885   C     0.10289   0.75531   0.45818   0.00000  Uiso   1.00
H886   H     0.09982   0.77804   0.43714   0.00000  Uiso   1.00
H887   H     0.12532   0.76436   0.47745   0.00000  Uiso   1.00
H888   H     0.11115   0.73008   0.44269   0.00000  Uiso   1.00
C889   C     0.39820   0.76577   0.54181   0.00000  Uiso   1.00
H890   H     0.40361   0.78797   0.56294   0.00000  Uiso   1.00
H891   H     0.37689   0.77721   0.52254   0.00000  Uiso   1.00
H892   H     0.38730   0.74149   0.55719   0.00000  Uiso   1.00
C893   C     0.24124   0.60265   0.45818   0.00000  Uiso   1.00
H894   H     0.21865   0.59881   0.43713   0.00000  Uiso   1.00
H895   H     0.23142   0.62475   0.47745   0.00000  Uiso   1.00
H896   H     0.26618   0.61177   0.44270   0.00000  Uiso   1.00
C897   C     0.23776   0.89771   0.54182   0.00000  Uiso   1.00
H898   H     0.22712   0.87599   0.52255   0.00000  Uiso   1.00
H899   H     0.26239   0.88769   0.55724   0.00000  Uiso   1.00
H900   H     0.21536   0.90234   0.56292   0.00000  Uiso   1.00
C901   C     0.39711   0.74481   0.45819   0.00000  Uiso   1.00
H902   H     0.40015   0.72206   0.43718   0.00000  Uiso   1.00
H903   H     0.37466   0.73583   0.47746   0.00000  Uiso   1.00
H904   H     0.38890   0.77004   0.44265   0.00000  Uiso   1.00
C905   C     0.10182   0.73435   0.54181   0.00000  Uiso   1.00
H906   H     0.09644   0.71212   0.56292   0.00000  Uiso   1.00
H907   H     0.12316   0.72297   0.52253   0.00000  Uiso   1.00
H908   H     0.11268   0.75863   0.55721   0.00000  Uiso   1.00
C909   C     0.25874   0.89735   0.45820   0.00000  Uiso   1.00
H910   H     0.28134   0.90118   0.43715   0.00000  Uiso   1.00
H911   H     0.26855   0.87524   0.47747   0.00000  Uiso   1.00
H912   H     0.23380   0.88823   0.44272   0.00000  Uiso   1.00
C913   C     0.26223   0.60229   0.54180   0.00000  Uiso   1.00
H914   H     0.28463   0.59767   0.56290   0.00000  Uiso   1.00
H915   H     0.27287   0.62401   0.52252   0.00000  Uiso   1.00
H916   H     0.23760   0.61231   0.55722   0.00000  Uiso   1.00
C917   C     0.14865   0.98154   0.95819   0.00000  Uiso   1.00
H918   H     0.15466   0.95950   0.93706   0.00000  Uiso   1.00
H919   H     0.12766   0.96953   0.97746   0.00000  Uiso   1.00
H920   H     0.13711   0.50552   0.94281   0.00000  Uiso   1.00
C921   C     0.35300   0.99751   0.04181   0.00000  Uiso   1.00
H922   H     0.35056   0.97470   0.06283   0.00000  Uiso   1.00
H923   H     0.37568   0.98912   0.02254   0.00000  Uiso   1.00
H924   H     0.36053   0.52296   0.05733   0.00000  Uiso   1.00
C925   C     0.01994   0.85111   0.95820   0.00000  Uiso   1.00
H926   H     0.03231   0.87189   0.97746   0.00000  Uiso   1.00
H927   H     0.04186   0.84480   0.93702   0.00000  Uiso   1.00
H928   H     0.49611   0.86303   0.94288   0.00000  Uiso   1.00
C929   C     0.48008   0.64889   0.04180   0.00000  Uiso   1.00
H930   H     0.46771   0.62810   0.02254   0.00000  Uiso   1.00
H931   H     0.00391   0.63698   0.05712   0.00000  Uiso   1.00
H932   H     0.45815   0.65519   0.06298   0.00000  Uiso   1.00
C933   C     0.35135   0.51842   0.95819   0.00000  Uiso   1.00
H934   H     0.34535   0.54047   0.93705   0.00000  Uiso   1.00
H935   H     0.37235   0.53043   0.97746   0.00000  Uiso   1.00
H936   H     0.36289   0.99445   0.94281   0.00000  Uiso   1.00
C937   C     0.14700   0.50246   0.04181   0.00000  Uiso   1.00
H938   H     0.14943   0.52528   0.06283   0.00000  Uiso   1.00
H939   H     0.12432   0.51084   0.02254   0.00000  Uiso   1.00
H940   H     0.13948   0.97702   0.05734   0.00000  Uiso   1.00
C941   C     0.00086   0.64695   0.95817   0.00000  Uiso   1.00
H942   H     0.02373   0.64898   0.93716   0.00000  Uiso   1.00
H943   H     0.00887   0.62412   0.97743   0.00000  Uiso   1.00
H944   H     0.47530   0.63985   0.94265   0.00000  Uiso   1.00
C945   C     0.49914   0.85305   0.04182   0.00000  Uiso   1.00
H946   H     0.47627   0.85102   0.06283   0.00000  Uiso   1.00
H947   H     0.02470   0.86014   0.05736   0.00000  Uiso   1.00
H948   H     0.49114   0.87588   0.02256   0.00000  Uiso   1.00
Zn949  Zn    0.70660   0.50000   0.21735   0.00000  Uiso   1.00
Zn950  Zn    0.79341   0.50000   0.78265   0.00000  Uiso   1.00
Zn951  Zn    0.50000   0.70660   0.21735   0.00000  Uiso   1.00
Zn952  Zn    0.50000   0.79340   0.78265   0.00000  Uiso   1.00
Zn953  Zn    0.79341   0.50000   0.21735   0.00000  Uiso   1.00
Zn954  Zn    0.70660   0.50000   0.78265   0.00000  Uiso   1.00
Zn955  Zn    0.50000   0.79341   0.21735   0.00000  Uiso   1.00
Zn956  Zn    0.50000   0.70660   0.78265   0.00000  Uiso   1.00
Zn957  Zn    0.95660   0.75000   0.71735   0.00000  Uiso   1.00
Zn958  Zn    0.54341   0.75000   0.28265   0.00000  Uiso   1.00
Zn959  Zn    0.75000   0.95659   0.71735   0.00000  Uiso   1.00
Zn960  Zn    0.75000   0.54341   0.28265   0.00000  Uiso   1.00
Zn961  Zn    0.54341   0.75000   0.71735   0.00000  Uiso   1.00
Zn962  Zn    0.95660   0.75000   0.28265   0.00000  Uiso   1.00
Zn963  Zn    0.75000   0.54341   0.71735   0.00000  Uiso   1.00
Zn964  Zn    0.75000   0.95659   0.28265   0.00000  Uiso   1.00
C965   C     0.96709   0.75105   0.41863   0.00000  Uiso   1.00
C966   C     0.53286   0.74782   0.58138   0.00000  Uiso   1.00
C967   C     0.75005   0.96707   0.41863   0.00000  Uiso   1.00
C968   C     0.75111   0.53292   0.58137   0.00000  Uiso   1.00
C969   C     0.53292   0.74899   0.41863   0.00000  Uiso   1.00
C970   C     0.96714   0.75221   0.58138   0.00000  Uiso   1.00
C971   C     0.74995   0.53293   0.41863   0.00000  Uiso   1.00
C972   C     0.74888   0.96709   0.58138   0.00000  Uiso   1.00
C973   C     0.78279   0.50304   0.91862   0.00000  Uiso   1.00
C974   C     0.71712   0.99811   0.08137   0.00000  Uiso   1.00
C975   C     0.99810   0.71712   0.91862   0.00000  Uiso   1.00
C976   C     0.50190   0.78288   0.08137   0.00000  Uiso   1.00
C977   C     0.71721   0.99695   0.91862   0.00000  Uiso   1.00
C978   C     0.78288   0.50188   0.08137   0.00000  Uiso   1.00
C979   C     0.50398   0.78272   0.91862   0.00000  Uiso   1.00
C980   C     0.99603   0.71728   0.08138   0.00000  Uiso   1.00
C981   C     0.50000   0.75001   0.39843   0.00000  Uiso   1.00
C982   C     0.50000   0.75001   0.60157   0.00000  Uiso   1.00
C983   C     0.75000   0.50000   0.39843   0.00000  Uiso   1.00
C984   C     0.75000   0.50000   0.60157   0.00000  Uiso   1.00
C985   C     0.75000   0.50000   0.89842   0.00000  Uiso   1.00
C986   C     0.75000   0.50000   0.10157   0.00000  Uiso   1.00
C987   C     0.50067   0.74995   0.89843   0.00000  Uiso   1.00
C988   C     0.99934   0.75005   0.10157   0.00000  Uiso   1.00
O989   O     0.75000   0.50000   0.25000   0.00000  Uiso   1.00
O990   O     0.75000   0.50000   0.75000   0.00000  Uiso   1.00
O991   O     0.50000   0.75000   0.25000   0.00000  Uiso   1.00
O992   O     0.50000   0.75000   0.75000   0.00000  Uiso   1.00
O993   O     0.75000   0.96963   0.33755   0.00000  Uiso   1.00
O994   O     0.75000   0.53037   0.66245   0.00000  Uiso   1.00
O995   O     0.53037   0.75000   0.33755   0.00000  Uiso   1.00
O996   O     0.96964   0.75000   0.66245   0.00000  Uiso   1.00
O997   O     0.75000   0.53037   0.33755   0.00000  Uiso   1.00
O998   O     0.75000   0.96963   0.66245   0.00000  Uiso   1.00
O999   O     0.96964   0.75000   0.33755   0.00000  Uiso   1.00
O1000  O     0.53037   0.75000   0.66245   0.00000  Uiso   1.00
O1001  O     0.50000   0.71964   0.83755   0.00000  Uiso   1.00
O1002  O     0.50000   0.78037   0.16245   0.00000  Uiso   1.00
O1003  O     0.78037   0.50000   0.83755   0.00000  Uiso   1.00
O1004  O     0.71964   0.50000   0.16245   0.00000  Uiso   1.00
O1005  O     0.50000   0.78037   0.83755   0.00000  Uiso   1.00
O1006  O     0.50000   0.71963   0.16245   0.00000  Uiso   1.00
O1007  O     0.71964   0.50000   0.83755   0.00000  Uiso   1.00
O1008  O     0.78037   0.50000   0.16245   0.00000  Uiso   1.00
O1009  O     0.70725   0.57308   0.27302   0.00000  Uiso   1.00
O1010  O     0.79276   0.92692   0.72698   0.00000  Uiso   1.00
O1011  O     0.92693   0.70725   0.27302   0.00000  Uiso   1.00
O1012  O     0.57308   0.79275   0.72698   0.00000  Uiso   1.00
O1013  O     0.79276   0.92692   0.27302   0.00000  Uiso   1.00
O1014  O     0.70725   0.57308   0.72698   0.00000  Uiso   1.00
O1015  O     0.57308   0.79275   0.27302   0.00000  Uiso   1.00
O1016  O     0.92693   0.70725   0.72698   0.00000  Uiso   1.00
O1017  O     0.70725   0.92692   0.72698   0.00000  Uiso   1.00
O1018  O     0.79276   0.57308   0.27302   0.00000  Uiso   1.00
O1019  O     0.92693   0.79276   0.72698   0.00000  Uiso   1.00
O1020  O     0.57308   0.70724   0.27302   0.00000  Uiso   1.00
O1021  O     0.79276   0.57308   0.72698   0.00000  Uiso   1.00
O1022  O     0.70725   0.92692   0.27302   0.00000  Uiso   1.00
O1023  O     0.57308   0.70724   0.72698   0.00000  Uiso   1.00
O1024  O     0.92693   0.79276   0.27302   0.00000  Uiso   1.00
O1025  O     0.95725   0.82307   0.77302   0.00000  Uiso   1.00
O1026  O     0.54276   0.67692   0.22698   0.00000  Uiso   1.00
O1027  O     0.67693   0.95724   0.77302   0.00000  Uiso   1.00
O1028  O     0.82308   0.54276   0.22698   0.00000  Uiso   1.00
O1029  O     0.54276   0.67692   0.77302   0.00000  Uiso   1.00
O1030  O     0.95725   0.82307   0.22698   0.00000  Uiso   1.00
O1031  O     0.82308   0.54276   0.77302   0.00000  Uiso   1.00
O1032  O     0.67693   0.95724   0.22698   0.00000  Uiso   1.00
O1033  O     0.95725   0.67693   0.22698   0.00000  Uiso   1.00
O1034  O     0.54276   0.82307   0.77302   0.00000  Uiso   1.00
O1035  O     0.67693   0.54276   0.22698   0.00000  Uiso   1.00
O1036  O     0.82308   0.95724   0.77302   0.00000  Uiso   1.00
O1037  O     0.54276   0.82307   0.22698   0.00000  Uiso   1.00
O1038  O     0.95725   0.67693   0.77302   0.00000  Uiso   1.00
O1039  O     0.82308   0.95724   0.22698   0.00000  Uiso   1.00
O1040  O     0.67693   0.54276   0.77302   0.00000  Uiso   1.00
C1041  C     0.56723   0.74902   0.47966   0.00000  Uiso   1.00
C1042  C     0.93302   0.75582   0.52034   0.00000  Uiso   1.00
C1043  C     0.74875   0.56722   0.47966   0.00000  Uiso   1.00
C1044  C     0.74649   0.93286   0.52035   0.00000  Uiso   1.00
C1045  C     0.93277   0.75107   0.47967   0.00000  Uiso   1.00
C1046  C     0.56699   0.74427   0.52034   0.00000  Uiso   1.00
C1047  C     0.75124   0.93277   0.47967   0.00000  Uiso   1.00
C1048  C     0.75350   0.56714   0.52033   0.00000  Uiso   1.00
C1049  C     0.68320   0.99243   0.97966   0.00000  Uiso   1.00
C1050  C     0.81718   0.50282   0.02033   0.00000  Uiso   1.00
C1051  C     0.50856   0.81671   0.97966   0.00000  Uiso   1.00
C1052  C     0.99145   0.68329   0.02034   0.00000  Uiso   1.00
C1053  C     0.81681   0.50755   0.97966   0.00000  Uiso   1.00
C1054  C     0.68282   0.99716   0.02034   0.00000  Uiso   1.00
C1055  C     0.99616   0.68285   0.97966   0.00000  Uiso   1.00
C1056  C     0.50384   0.81715   0.02034   0.00000  Uiso   1.00
C1057  C     0.75000   0.50000   0.35597   0.00000  Uiso   1.00
C1058  C     0.75000   0.50000   0.64403   0.00000  Uiso   1.00
C1059  C     0.50000   0.75000   0.35597   0.00000  Uiso   1.00
C1060  C     0.50000   0.75000   0.64403   0.00000  Uiso   1.00
C1061  C     0.50006   0.74999   0.85597   0.00000  Uiso   1.00
C1062  C     0.99994   0.75001   0.14403   0.00000  Uiso   1.00
C1063  C     0.75000   0.50000   0.85597   0.00000  Uiso   1.00
C1064  C     0.75000   0.50000   0.14403   0.00000  Uiso   1.00
C1065  C     0.67994   0.57006   0.25000   0.00000  Uiso   1.00
C1066  C     0.82006   0.92994   0.75000   0.00000  Uiso   1.00
C1067  C     0.92994   0.67994   0.25000   0.00000  Uiso   1.00
C1068  C     0.57006   0.82006   0.75000   0.00000  Uiso   1.00
C1069  C     0.82006   0.92994   0.25000   0.00000  Uiso   1.00
C1070  C     0.67994   0.57006   0.75000   0.00000  Uiso   1.00
C1071  C     0.57006   0.82006   0.25000   0.00000  Uiso   1.00
C1072  C     0.92994   0.67994   0.75000   0.00000  Uiso   1.00
C1073  C     0.67994   0.92994   0.75000   0.00000  Uiso   1.00
C1074  C     0.82006   0.57006   0.25000   0.00000  Uiso   1.00
C1075  C     0.92994   0.82006   0.75000   0.00000  Uiso   1.00
C1076  C     0.57006   0.67994   0.25000   0.00000  Uiso   1.00
C1077  C     0.82006   0.57006   0.75000   0.00000  Uiso   1.00
C1078  C     0.67994   0.92994   0.25000   0.00000  Uiso   1.00
C1079  C     0.57006   0.67994   0.75000   0.00000  Uiso   1.00
C1080  C     0.92994   0.82006   0.25000   0.00000  Uiso   1.00
C1081  C     0.62199   0.90474   0.22482   0.00000  Uiso   1.00
C1082  C     0.87799   0.59527   0.77520   0.00000  Uiso   1.00
C1083  C     0.59524   0.62198   0.22484   0.00000  Uiso   1.00
C1084  C     0.90477   0.87803   0.77514   0.00000  Uiso   1.00
C1085  C     0.87799   0.59527   0.22480   0.00000  Uiso   1.00
C1086  C     0.62202   0.90471   0.77522   0.00000  Uiso   1.00
C1087  C     0.90475   0.87801   0.22482   0.00000  Uiso   1.00
C1088  C     0.59524   0.62198   0.77516   0.00000  Uiso   1.00
C1089  C     0.62198   0.59524   0.77516   0.00000  Uiso   1.00
C1090  C     0.87801   0.90475   0.22482   0.00000  Uiso   1.00
C1091  C     0.59529   0.87798   0.77522   0.00000  Uiso   1.00
C1092  C     0.90473   0.62201   0.22480   0.00000  Uiso   1.00
C1093  C     0.87803   0.90477   0.77514   0.00000  Uiso   1.00
C1094  C     0.62198   0.59524   0.22484   0.00000  Uiso   1.00
C1095  C     0.90473   0.62201   0.77520   0.00000  Uiso   1.00
C1096  C     0.59526   0.87801   0.22482   0.00000  Uiso   1.00
C1097  C     0.87200   0.65474   0.72481   0.00000  Uiso   1.00
C1098  C     0.62801   0.84525   0.27518   0.00000  Uiso   1.00
C1099  C     0.84524   0.87198   0.72484   0.00000  Uiso   1.00
C1100  C     0.65475   0.62801   0.27517   0.00000  Uiso   1.00
C1101  C     0.62799   0.84528   0.72479   0.00000  Uiso   1.00
C1102  C     0.87200   0.65473   0.27519   0.00000  Uiso   1.00
C1103  C     0.65475   0.62802   0.72483   0.00000  Uiso   1.00
C1104  C     0.84526   0.87199   0.27518   0.00000  Uiso   1.00
C1105  C     0.87199   0.84525   0.27518   0.00000  Uiso   1.00
C1106  C     0.62801   0.65475   0.72483   0.00000  Uiso   1.00
C1107  C     0.84526   0.62800   0.27519   0.00000  Uiso   1.00
C1108  C     0.65472   0.87201   0.72479   0.00000  Uiso   1.00
C1109  C     0.62802   0.65475   0.27517   0.00000  Uiso   1.00
C1110  C     0.87198   0.84524   0.72484   0.00000  Uiso   1.00
C1111  C     0.65475   0.87199   0.27518   0.00000  Uiso   1.00
C1112  C     0.84527   0.62800   0.72481   0.00000  Uiso   1.00
H1113  H     0.61924   0.92760   0.20512   0.00000  Uiso   1.00
H1114  H     0.88074   0.57243   0.79491   0.00000  Uiso   1.00
H1115  H     0.57238   0.61921   0.20516   0.00000  Uiso   1.00
H1116  H     0.92763   0.88080   0.79482   0.00000  Uiso   1.00
H1117  H     0.88074   0.57243   0.20509   0.00000  Uiso   1.00
H1118  H     0.61929   0.92754   0.79495   0.00000  Uiso   1.00
H1119  H     0.92760   0.88077   0.20513   0.00000  Uiso   1.00
H1120  H     0.57239   0.61921   0.79485   0.00000  Uiso   1.00
H1121  H     0.61922   0.57239   0.79485   0.00000  Uiso   1.00
H1122  H     0.88077   0.92760   0.20513   0.00000  Uiso   1.00
H1123  H     0.57246   0.88071   0.79495   0.00000  Uiso   1.00
H1124  H     0.92757   0.61927   0.20508   0.00000  Uiso   1.00
H1125  H     0.88080   0.92763   0.79482   0.00000  Uiso   1.00
H1126  H     0.61921   0.57239   0.20516   0.00000  Uiso   1.00
H1127  H     0.92757   0.61926   0.79491   0.00000  Uiso   1.00
H1128  H     0.57241   0.88077   0.20512   0.00000  Uiso   1.00
H1129  H     0.86926   0.67758   0.70510   0.00000  Uiso   1.00
H1130  H     0.63076   0.82240   0.29487   0.00000  Uiso   1.00
H1131  H     0.82238   0.86921   0.70517   0.00000  Uiso   1.00
H1132  H     0.67761   0.63078   0.29485   0.00000  Uiso   1.00
H1133  H     0.63072   0.82245   0.70506   0.00000  Uiso   1.00
H1134  H     0.86925   0.67757   0.29490   0.00000  Uiso   1.00
H1135  H     0.67761   0.63078   0.70514   0.00000  Uiso   1.00
H1136  H     0.82241   0.86923   0.29488   0.00000  Uiso   1.00
H1137  H     0.86924   0.82240   0.29488   0.00000  Uiso   1.00
H1138  H     0.63078   0.67761   0.70514   0.00000  Uiso   1.00
H1139  H     0.82242   0.63074   0.29490   0.00000  Uiso   1.00
H1140  H     0.67755   0.86928   0.70506   0.00000  Uiso   1.00
H1141  H     0.63078   0.67761   0.29485   0.00000  Uiso   1.00
H1142  H     0.86921   0.82238   0.70516   0.00000  Uiso   1.00
H1143  H     0.67760   0.86923   0.29487   0.00000  Uiso   1.00
H1144  H     0.82243   0.63075   0.70509   0.00000  Uiso   1.00
C1145  C     0.53363   0.74951   0.45927   0.00000  Uiso   1.00
C1146  C     0.96649   0.75286   0.54074   0.00000  Uiso   1.00
C1147  C     0.74940   0.53363   0.45926   0.00000  Uiso   1.00
C1148  C     0.74828   0.96641   0.54074   0.00000  Uiso   1.00
C1149  C     0.96637   0.75056   0.45927   0.00000  Uiso   1.00
C1150  C     0.53352   0.74720   0.54074   0.00000  Uiso   1.00
C1151  C     0.75059   0.96637   0.45927   0.00000  Uiso   1.00
C1152  C     0.75171   0.53359   0.54073   0.00000  Uiso   1.00
C1153  C     0.71658   0.99627   0.95926   0.00000  Uiso   1.00
C1154  C     0.78360   0.50141   0.04073   0.00000  Uiso   1.00
C1155  C     0.50447   0.78336   0.95927   0.00000  Uiso   1.00
C1156  C     0.99554   0.71664   0.04073   0.00000  Uiso   1.00
C1157  C     0.78343   0.50371   0.95926   0.00000  Uiso   1.00
C1158  C     0.71640   0.99858   0.04073   0.00000  Uiso   1.00
C1159  C     0.99834   0.71639   0.95927   0.00000  Uiso   1.00
C1160  C     0.50166   0.78361   0.04073   0.00000  Uiso   1.00
H1161  H     0.94205   0.75288   0.40217   0.00000  Uiso   1.00
H1162  H     0.55795   0.74712   0.59783   0.00000  Uiso   1.00
H1163  H     0.74906   0.94198   0.40218   0.00000  Uiso   1.00
H1164  H     0.75095   0.55802   0.59782   0.00000  Uiso   1.00
H1165  H     0.55795   0.74715   0.40217   0.00000  Uiso   1.00
H1166  H     0.94205   0.75290   0.59782   0.00000  Uiso   1.00
H1167  H     0.75094   0.55801   0.40217   0.00000  Uiso   1.00
H1168  H     0.74904   0.94199   0.59783   0.00000  Uiso   1.00
H1169  H     0.80785   0.50441   0.90217   0.00000  Uiso   1.00
H1170  H     0.69215   0.99560   0.09783   0.00000  Uiso   1.00
H1171  H     0.99487   0.69223   0.90217   0.00000  Uiso   1.00
H1172  H     0.50513   0.80777   0.09783   0.00000  Uiso   1.00
H1173  H     0.69215   0.99557   0.90217   0.00000  Uiso   1.00
H1174  H     0.80785   0.50439   0.09783   0.00000  Uiso   1.00
H1175  H     0.50537   0.80778   0.90217   0.00000  Uiso   1.00
H1176  H     0.99464   0.69222   0.09783   0.00000  Uiso   1.00
C1177  C     0.59813   0.84813   0.25000   0.00000  Uiso   1.00
C1178  C     0.90187   0.65187   0.75000   0.00000  Uiso   1.00
C1179  C     0.65187   0.59813   0.25000   0.00000  Uiso   1.00
C1180  C     0.84813   0.90187   0.74999   0.00000  Uiso   1.00
C1181  C     0.90187   0.65187   0.25000   0.00000  Uiso   1.00
C1182  C     0.59813   0.84812   0.75001   0.00000  Uiso   1.00
C1183  C     0.84813   0.90187   0.25000   0.00000  Uiso   1.00
C1184  C     0.65187   0.59813   0.75000   0.00000  Uiso   1.00
C1185  C     0.59813   0.65187   0.75000   0.00000  Uiso   1.00
C1186  C     0.90187   0.84813   0.25000   0.00000  Uiso   1.00
C1187  C     0.65187   0.90187   0.75001   0.00000  Uiso   1.00
C1188  C     0.84813   0.59813   0.24999   0.00000  Uiso   1.00
C1189  C     0.90187   0.84813   0.74999   0.00000  Uiso   1.00
C1190  C     0.59813   0.65187   0.25000   0.00000  Uiso   1.00
C1191  C     0.84813   0.59813   0.75000   0.00000  Uiso   1.00
C1192  C     0.65187   0.90187   0.25000   0.00000  Uiso   1.00
C1193  C     0.50000   0.75003   0.47967   0.00000  Uiso   1.00
C1194  C     0.50000   0.75003   0.52033   0.00000  Uiso   1.00
C1195  C     0.75000   0.50000   0.47967   0.00000  Uiso   1.00
C1196  C     0.75000   0.50000   0.52033   0.00000  Uiso   1.00
C1197  C     0.75000   0.99999   0.97967   0.00000  Uiso   1.00
C1198  C     0.75000   0.99999   0.02033   0.00000  Uiso   1.00
C1199  C     0.50044   0.74996   0.97967   0.00000  Uiso   1.00
C1200  C     0.99957   0.75004   0.02033   0.00000  Uiso   1.00
C1201  C     0.60289   0.75531   0.45818   0.00000  Uiso   1.00
H1202  H     0.59982   0.77804   0.43714   0.00000  Uiso   1.00
H1203  H     0.62532   0.76436   0.47745   0.00000  Uiso   1.00
H1204  H     0.61115   0.73008   0.44269   0.00000  Uiso   1.00
C1205  C     0.89820   0.76577   0.54181   0.00000  Uiso   1.00
H1206  H     0.90361   0.78797   0.56294   0.00000  Uiso   1.00
H1207  H     0.87689   0.77721   0.52254   0.00000  Uiso   1.00
H1208  H     0.88730   0.74149   0.55719   0.00000  Uiso   1.00
C1209  C     0.74124   0.60265   0.45818   0.00000  Uiso   1.00
H1210  H     0.71865   0.59881   0.43713   0.00000  Uiso   1.00
H1211  H     0.73142   0.62475   0.47745   0.00000  Uiso   1.00
H1212  H     0.76618   0.61177   0.44270   0.00000  Uiso   1.00
C1213  C     0.73776   0.89771   0.54182   0.00000  Uiso   1.00
H1214  H     0.72712   0.87599   0.52255   0.00000  Uiso   1.00
H1215  H     0.76239   0.88769   0.55724   0.00000  Uiso   1.00
H1216  H     0.71536   0.90234   0.56292   0.00000  Uiso   1.00
C1217  C     0.89711   0.74481   0.45819   0.00000  Uiso   1.00
H1218  H     0.90015   0.72206   0.43718   0.00000  Uiso   1.00
H1219  H     0.87466   0.73583   0.47746   0.00000  Uiso   1.00
H1220  H     0.88890   0.77004   0.44265   0.00000  Uiso   1.00
C1221  C     0.60182   0.73435   0.54181   0.00000  Uiso   1.00
H1222  H     0.59644   0.71212   0.56292   0.00000  Uiso   1.00
H1223  H     0.62316   0.72297   0.52253   0.00000  Uiso   1.00
H1224  H     0.61268   0.75863   0.55721   0.00000  Uiso   1.00
C1225  C     0.75874   0.89735   0.45820   0.00000  Uiso   1.00
H1226  H     0.78134   0.90118   0.43715   0.00000  Uiso   1.00
H1227  H     0.76855   0.87524   0.47747   0.00000  Uiso   1.00
H1228  H     0.73380   0.88823   0.44272   0.00000  Uiso   1.00
C1229  C     0.76223   0.60229   0.54180   0.00000  Uiso   1.00
H1230  H     0.78463   0.59767   0.56290   0.00000  Uiso   1.00
H1231  H     0.77287   0.62401   0.52252   0.00000  Uiso   1.00
H1232  H     0.73760   0.61231   0.55722   0.00000  Uiso   1.00
C1233  C     0.64865   0.98154   0.95819   0.00000  Uiso   1.00
H1234  H     0.65466   0.95950   0.93706   0.00000  Uiso   1.00
H1235  H     0.62766   0.96953   0.97746   0.00000  Uiso   1.00
H1236  H     0.63711   0.50552   0.94281   0.00000  Uiso   1.00
C1237  C     0.85300   0.99751   0.04181   0.00000  Uiso   1.00
H1238  H     0.85056   0.97470   0.06283   0.00000  Uiso   1.00
H1239  H     0.87568   0.98912   0.02254   0.00000  Uiso   1.00
H1240  H     0.86053   0.52296   0.05733   0.00000  Uiso   1.00
C1241  C     0.51994   0.85111   0.95820   0.00000  Uiso   1.00
H1242  H     0.53231   0.87189   0.97746   0.00000  Uiso   1.00
H1243  H     0.54186   0.84480   0.93702   0.00000  Uiso   1.00
H1244  H     0.99611   0.86303   0.94288   0.00000  Uiso   1.00
C1245  C     0.98008   0.64889   0.04180   0.00000  Uiso   1.00
H1246  H     0.96771   0.62810   0.02254   0.00000  Uiso   1.00
H1247  H     0.50391   0.63698   0.05712   0.00000  Uiso   1.00
H1248  H     0.95815   0.65519   0.06298   0.00000  Uiso   1.00
C1249  C     0.85135   0.51842   0.95819   0.00000  Uiso   1.00
H1250  H     0.84535   0.54047   0.93705   0.00000  Uiso   1.00
H1251  H     0.87235   0.53043   0.97746   0.00000  Uiso   1.00
H1252  H     0.86289   0.99445   0.94281   0.00000  Uiso   1.00
C1253  C     0.64700   0.50246   0.04181   0.00000  Uiso   1.00
H1254  H     0.64943   0.52528   0.06283   0.00000  Uiso   1.00
H1255  H     0.62432   0.51084   0.02254   0.00000  Uiso   1.00
H1256  H     0.63948   0.97702   0.05734   0.00000  Uiso   1.00
C1257  C     0.50086   0.64695   0.95817   0.00000  Uiso   1.00
H1258  H     0.52373   0.64898   0.93716   0.00000  Uiso   1.00
H1259  H     0.50887   0.62412   0.97743   0.00000  Uiso   1.00
H1260  H     0.97530   0.63985   0.94265   0.00000  Uiso   1.00
C1261  C     0.99914   0.85305   0.04182   0.00000  Uiso   1.00
H1262  H     0.97627   0.85102   0.06283   0.00000  Uiso   1.00
H1263  H     0.52470   0.86014   0.05736   0.00000  Uiso   1.00
H1264  H     0.99114   0.87588   0.02256   0.00000  Uiso   1.00
loop_
_geom_bond_atom_site_label_1
_geom_bond_atom_site_label_2
_geom_bond_distance
_geom_bond_site_symmetry_2
_ccdc_geom_bond_type
Zn1    O87     1.936   .     S
Zn1    O56     1.953   .     S
Zn1    O41     1.949   .     S
Zn1    O716    1.936   1_545 S
Zn2    O55     1.953   .     S
Zn2    O83     1.936   .     S
Zn2    O42     1.949   .     S
Zn2    O720    1.936   1_545 S
Zn3    O401    1.936   1_455 S
Zn3    O43     1.949   .     S
Zn3    O58     1.953   .     S
Zn3    O78     1.936   .     S
Zn4    O86     1.936   .     S
Zn4    O44     1.949   .     S
Zn4    O57     1.953   .     S
Zn4    O393    1.936   1_455 S
Zn5    O60     1.953   .     S
Zn5    O80     1.936   .     S
Zn5    O41     1.949   .     S
Zn5    O723    1.936   1_545 S
Zn6    O92     1.936   .     S
Zn6    O42     1.949   .     S
Zn6    O59     1.953   .     S
Zn6    O711    1.936   1_545 S
Zn7    O43     1.949   .     S
Zn7    O54     1.953   .     S
Zn7    O398    1.936   1_455 S
Zn7    O89     1.936   .     S
Zn8    O53     1.953   .     S
Zn8    O406    1.936   1_455 S
Zn8    O44     1.949   .     S
Zn8    O81     1.936   .     S
Zn9    O48     1.953   .     S
Zn9    O71     1.936   .     S
Zn9    O68     1.936   .     S
Zn9    O360    1.949   .     S
Zn10   O47     1.953   .     S
Zn10   O72     1.936   .     S
Zn10   O67     1.936   .     S
Zn10   O43     1.949   .     S
Zn11   O62     1.936   .     S
Zn11   O69     1.936   .     S
Zn11   O50     1.953   .     S
Zn11   O674    1.949   .     S
Zn12   O49     1.953   .     S
Zn12   O70     1.936   .     S
Zn12   O61     1.936   .     S
Zn12   O41     1.949   .     S
Zn13   O75     1.936   .     S
Zn13   O44     1.949   .     S
Zn13   O52     1.953   .     S
Zn13   O64     1.936   .     S
Zn14   O76     1.936   .     S
Zn14   O359    1.949   .     S
Zn14   O51     1.953   .     S
Zn14   O63     1.936   .     S
Zn15   O66     1.936   .     S
Zn15   O73     1.936   .     S
Zn15   O42     1.949   .     S
Zn15   O46     1.953   .     S
Zn16   O45     1.953   .     S
Zn16   O65     1.936   .     S
Zn16   O74     1.936   .     S
Zn16   O673    1.949   .     S
C17    C201    1.402   .     A
C17    H213    1.081   .     S
C17    C349    1.394   .     S
C18    H214    1.081   .     S
C18    C202    1.402   .     A
C18    C34     1.394   .     A
C19    C203    1.402   .     A
C19    H215    1.081   .     S
C19    C667    1.394   .     A
C20    H216    1.081   .     S
C20    C204    1.402   .     A
C20    C36     1.394   .     A
C21    C33     1.394   .     A
C21    C197    1.402   .     A
C21    H217    1.081   .     S
C22    C198    1.402   .     A
C22    H218    1.081   .     S
C22    C350    1.394   .     S
C23    H219    1.081   .     S
C23    C199    1.402   .     A
C23    C35     1.394   .     S
C24    H220    1.081   .     S
C24    C200    1.402   .     A
C24    C668    1.394   .     S
C25    H221    1.081   .     S
C25    C209    1.402   .     A
C25    C37     1.394   .     S
C26    C670    1.394   .     A
C26    H222    1.081   .     S
C26    C210    1.402   .     A
C27    H223    1.081   .     S
C27    C211    1.402   .     A
C27    C355    1.394   .     S
C28    H224    1.081   .     S
C28    C212    1.402   .     A
C28    C356    1.394   1_455 S
C29    C205    1.402   .     A
C29    C669    1.394   .     A
C29    H225    1.081   .     S
C30    H226    1.081   .     S
C30    C206    1.402   .     A
C30    C38     1.394   .     S
C31    C207    1.402   .     A
C31    H227    1.081   .     S
C31    C39     1.394   .     A
C32    C208    1.402   .     A
C32    H228    1.081   .     S
C32    C40     1.394   .     A
C33    C111    1.464   .     S
C33    C333    1.394   1_455 S
C34    C112    1.464   .     S
C34    C338    1.394   1_455 S
C35    C109    1.465   .     S
C35    C651    1.394   1_545 A
C36    C110    1.465   .     S
C36    C656    1.394   1_545 S
C37    C115    1.464   .     S
C37    C661    1.394   1_545 A
C38    C658    1.394   1_545 A
C38    C116    1.465   .     S
C39    C113    1.465   .     S
C39    C343    1.394   1_455 S
C40    C114    1.465   .     S
C40    C344    1.394   .     S
O41    Zn648   1.949   1_545 S
O42    Zn643   1.949   1_545 S
O43    Zn330   1.949   1_455 S
O44    Zn325   1.949   1_455 S
O45    C741    1.282   .     A
O46    C110    1.282   .     A
O47    C111    1.282   .     A
O48    C428    1.282   .     S
O49    C109    1.281   .     S
O50    C742    1.281   .     S
O51    C427    1.282   .     S
O52    C112    1.281   .     A
O53    C113    1.281   .     S
O54    C430    1.281   1_455 A
O55    C115    1.281   .     S
O56    C116    1.281   .     S
O57    C113    1.282   .     S
O58    C430    1.282   1_455 S
O59    C115    1.281   .     S
O60    C116    1.282   .     S
O61    C117    1.282   .     A
O62    C118    1.282   .     A
O63    C119    1.282   .     A
O64    C120    1.282   .     A
O65    C121    1.282   .     A
O66    C122    1.282   .     A
O67    C123    1.282   .     A
O68    C124    1.282   .     A
O69    C125    1.282   .     A
O70    C126    1.282   .     A
O71    C127    1.282   .     A
O72    C128    1.282   .     A
O73    C129    1.282   .     A
O74    C130    1.282   .     A
O75    C131    1.282   .     A
O76    C132    1.282   .     A
O77    C127    1.282   .     A
O77    Zn320   1.936   .     S
O78    C128    1.282   .     A
O79    C125    1.282   .     A
O79    Zn638   1.936   .     S
O80    C126    1.282   .     A
O81    C131    1.282   .     A
O82    C132    1.282   .     A
O82    Zn323   1.936   .     S
O83    C129    1.282   .     A
O84    C130    1.282   .     A
O84    Zn633   1.936   .     S
O85    Zn319   1.936   .     S
O85    C119    1.282   .     A
O86    C120    1.282   .     A
O87    C117    1.282   .     A
O88    C118    1.282   .     A
O88    Zn634   1.936   .     S
O89    C123    1.282   .     A
O90    C124    1.282   .     A
O90    Zn324   1.936   .     S
O91    C121    1.282   .     A
O91    Zn637   1.936   .     S
O92    C122    1.282   .     A
C93    C197    1.418   .     A
C93    C253    1.520   .     S
C93    C98     1.414   .     A
C94    C257    1.520   .     S
C94    C97     1.414   .     A
C94    C198    1.418   .     A
C95    C261    1.520   .     S
C95    C100    1.414   .     A
C95    C199    1.418   .     A
C96    C99     1.414   .     A
C96    C200    1.418   .     A
C96    C265    1.520   .     S
C97    C201    1.418   .     A
C97    C269    1.520   .     S
C98    C273    1.520   .     S
C98    C202    1.418   .     A
C99    C203    1.418   .     A
C99    C277    1.520   .     S
C100   C281    1.520   .     S
C100   C204    1.418   .     A
C101   C285    1.520   .     S
C101   C205    1.418   .     A
C101   C106    1.414   1_556 S
C102   C206    1.418   .     A
C102   C105    1.414   1_554 S
C102   C921    1.520   1_545 S
C103   C207    1.418   .     A
C103   C293    1.520   .     S
C103   C108    1.414   1_556 S
C104   C208    1.418   .     A
C104   C297    1.520   .     S
C104   C107    1.414   1_554 S
C105   C301    1.520   .     S
C105   C209    1.418   .     A
C105   C102    1.414   1_556 S
C106   C210    1.418   .     A
C106   C101    1.414   1_554 S
C106   C937    1.520   .     S
C107   C211    1.418   .     A
C107   C104    1.414   1_556 S
C107   C625    1.520   .     S
C108   C212    1.418   .     A
C108   C103    1.414   1_554 S
C108   C629    1.520   1_455 S
C109   O677    1.282   1_545 A
C110   O682    1.281   1_545 S
C111   O367    1.282   1_455 S
C112   O364    1.282   1_455 S
C114   O370    1.281   .     A
C114   O374    1.282   .     S
C117   C231    1.455   .     S
C118   C232    1.455   .     S
C119   C233    1.455   .     S
C120   C234    1.455   .     S
C121   C235    1.455   .     S
C122   C236    1.455   .     S
C123   C229    1.455   .     S
C124   C230    1.455   .     S
C125   C239    1.455   .     S
C126   C240    1.455   .     S
C127   C241    1.455   .     S
C128   C242    1.455   .     S
C129   C243    1.455   .     S
C130   C244    1.455   .     S
C131   C237    1.455   .     S
C132   C238    1.455   .     S
C133   C244    1.402   .     A
C133   H165    1.083   .     S
C133   C148    1.386   .     A
C134   C147    1.386   .     A
C134   H166    1.083   .     S
C134   C243    1.402   .     A
C135   C146    1.386   .     A
C135   H167    1.083   .     S
C135   C242    1.402   .     A
C136   C241    1.402   .     A
C136   C145    1.386   .     A
C136   H168    1.083   .     S
C137   C144    1.386   .     A
C137   H169    1.083   .     S
C137   C240    1.402   .     A
C138   C143    1.386   .     A
C138   C239    1.402   .     A
C138   H170    1.083   .     S
C139   C142    1.386   .     A
C139   H171    1.083   .     S
C139   C238    1.402   .     A
C140   C141    1.386   .     A
C140   C237    1.402   .     A
C140   H172    1.083   .     S
C141   H173    1.083   .     S
C141   C236    1.402   .     A
C142   C235    1.402   .     A
C142   H174    1.083   .     S
C143   H175    1.083   .     S
C143   C234    1.402   .     A
C144   C233    1.402   .     A
C144   H176    1.083   .     S
C145   C232    1.402   .     A
C145   H177    1.083   .     S
C146   H178    1.083   .     S
C146   C231    1.402   .     A
C147   H179    1.083   .     S
C147   C230    1.402   .     A
C148   H180    1.083   .     S
C148   C229    1.402   .     A
C149   C230    1.402   .     A
C149   C164    1.386   .     A
C149   H181    1.083   .     S
C150   C163    1.386   .     A
C150   H182    1.083   .     S
C150   C229    1.402   .     A
C151   H183    1.083   .     S
C151   C162    1.386   .     A
C151   C232    1.402   .     A
C152   C231    1.402   .     A
C152   C161    1.386   .     A
C152   H184    1.083   .     S
C153   C234    1.402   .     A
C153   C160    1.386   .     A
C153   H185    1.083   .     S
C154   H186    1.083   .     S
C154   C159    1.386   .     A
C154   C233    1.402   .     A
C155   C158    1.386   .     A
C155   H187    1.083   .     S
C155   C236    1.402   .     A
C156   C235    1.402   .     A
C156   H188    1.083   .     S
C156   C157    1.386   .     A
C157   C238    1.402   .     A
C157   H189    1.083   .     S
C158   H190    1.083   .     S
C158   C237    1.402   .     A
C159   C240    1.402   .     A
C159   H191    1.083   .     S
C160   C239    1.402   .     A
C160   H192    1.083   .     S
C161   H193    1.083   .     S
C161   C242    1.402   .     A
C162   C241    1.402   .     A
C162   H194    1.083   .     S
C163   H195    1.083   .     S
C163   C244    1.402   .     A
C164   C243    1.402   .     A
C164   H196    1.083   .     S
C197   C245    1.419   .     A
C198   C562    1.419   .     S
C199   C247    1.419   .     S
C200   C880    1.419   .     S
C201   C561    1.420   .     S
C202   C246    1.419   .     A
C203   C879    1.419   .     A
C204   C248    1.419   .     A
C205   C249    1.419   .     A
C206   C882    1.419   1_545 S
C207   C251    1.420   .     A
C208   C252    1.420   .     A
C209   C881    1.419   1_545 S
C210   C250    1.420   .     A
C211   C567    1.420   .     S
C212   C568    1.420   1_455 S
C245   C246    1.402   .     A
C245   C517    1.420   1_455 S
C246   C514    1.419   1_455 S
C247   C835    1.419   1_545 A
C247   C248    1.402   .     S
C248   C832    1.419   1_545 S
C249   C841    1.419   .     S
C249   C250    1.402   1_556 S
C250   C838    1.419   .     S
C250   C249    1.402   1_554 S
C251   C527    1.420   1_455 S
C251   C568    1.403   1_456 S
C252   C528    1.420   .     S
C252   C567    1.403   1_554 S
C253   H256    1.110   .     S
C253   H254    1.110   .     S
C253   H255    1.108   .     S
C257   H259    1.108   .     S
C257   H258    1.110   .     S
C257   H260    1.110   .     S
C261   H263    1.108   .     S
C261   H262    1.110   .     S
C261   H264    1.110   .     S
C265   H267    1.110   .     S
C265   H266    1.108   .     S
C265   H268    1.110   .     S
C269   H271    1.108   .     S
C269   H270    1.110   .     S
C269   H272    1.110   .     S
C273   H276    1.110   .     S
C273   H275    1.108   .     S
C273   H274    1.110   .     S
C277   H278    1.110   .     S
C277   H280    1.110   .     S
C277   H279    1.108   .     S
C281   H284    1.110   .     S
C281   H283    1.108   .     S
C281   H282    1.110   .     S
C285   H287    1.108   .     S
C285   H286    1.110   .     S
C285   H920    1.110   .     S
H288   C917    1.110   1_545 S
C289   H290    1.110   .     S
C289   H291    1.108   .     S
C289   C734    1.520   .     S
C289   H924    1.110   .     S
H292   C921    1.110   1_545 S
C293   H294    1.108   .     S
C293   H295    1.110   .     S
C293   H612    1.110   1_455 S
H296   C609    1.110   .     S
C297   H298    1.108   .     S
C297   H300    1.110   .     S
C297   H615    1.110   .     S
H299   C613    1.110   1_455 S
C301   H302    1.110   .     S
C301   H303    1.108   .     S
C301   H936    1.110   1_545 S
H304   C933    1.110   .     S
C305   H306    1.110   .     S
C305   H307    1.108   .     S
C305   C738    1.520   1_545 S
C305   H940    1.110   1_545 S
H308   C937    1.110   .     S
C309   H311    1.108   .     S
C309   H310    1.110   .     S
C309   C423    1.520   1_455 S
C309   H628    1.110   1_455 S
H312   C625    1.110   .     S
C313   H314    1.110   .     S
C313   H316    1.108   .     S
C313   C424    1.520   .     S
C313   H631    1.110   .     S
H315   C629    1.110   1_455 S
Zn317  O403    1.936   .     S
Zn317  O372    1.953   .     S
Zn317  O357    1.949   .     S
Zn317  O1032   1.936   1_545 S
Zn318  O371    1.953   .     S
Zn318  O399    1.936   .     S
Zn318  O358    1.949   .     S
Zn318  O1036   1.936   1_545 S
Zn319  O359    1.949   .     S
Zn319  O374    1.953   .     S
Zn319  O394    1.936   .     S
Zn320  O402    1.936   .     S
Zn320  O360    1.949   .     S
Zn320  O373    1.953   .     S
Zn321  O376    1.953   .     S
Zn321  O396    1.936   .     S
Zn321  O357    1.949   .     S
Zn321  O1039   1.936   1_545 S
Zn322  O408    1.936   .     S
Zn322  O358    1.949   .     S
Zn322  O375    1.953   .     S
Zn322  O1027   1.936   1_545 S
Zn323  O359    1.949   .     S
Zn323  O370    1.953   .     S
Zn323  O405    1.936   .     S
Zn324  O369    1.953   .     S
Zn324  O360    1.949   .     S
Zn324  O397    1.936   .     S
Zn325  O364    1.953   .     S
Zn325  O387    1.936   .     S
Zn325  O384    1.936   .     S
Zn325  O44     1.949   1_655 S
Zn326  O363    1.953   .     S
Zn326  O388    1.936   .     S
Zn326  O383    1.936   .     S
Zn326  O359    1.949   .     S
Zn327  O378    1.936   .     S
Zn327  O385    1.936   .     S
Zn327  O366    1.953   .     S
Zn327  O990    1.949   .     S
Zn328  O365    1.953   .     S
Zn328  O386    1.936   .     S
Zn328  O377    1.936   .     S
Zn328  O357    1.949   .     S
Zn329  O391    1.936   .     S
Zn329  O360    1.949   .     S
Zn329  O368    1.953   .     S
Zn329  O380    1.936   .     S
Zn330  O392    1.936   .     S
Zn330  O43     1.949   1_655 S
Zn330  O367    1.953   .     S
Zn330  O379    1.936   .     S
Zn331  O382    1.936   .     S
Zn331  O389    1.936   .     S
Zn331  O358    1.949   .     S
Zn331  O362    1.953   .     S
Zn332  O361    1.953   .     S
Zn332  O381    1.936   .     S
Zn332  O390    1.936   .     S
Zn332  O989    1.949   .     S
C333   C517    1.402   .     A
C333   H529    1.081   .     S
C333   C33     1.394   1_655 S
C334   H530    1.081   .     S
C334   C518    1.402   .     A
C334   C350    1.394   .     A
C335   C519    1.402   .     A
C335   H531    1.081   .     S
C335   C983    1.394   .     A
C336   H532    1.081   .     S
C336   C520    1.402   .     A
C336   C352    1.394   .     A
C337   C349    1.394   .     A
C337   C513    1.402   .     A
C337   H533    1.081   .     S
C338   C514    1.402   .     A
C338   H534    1.081   .     S
C338   C34     1.394   1_655 S
C339   H535    1.081   .     S
C339   C515    1.402   .     A
C339   C351    1.394   .     S
C340   H536    1.081   .     S
C340   C516    1.402   .     A
C340   C984    1.394   .     S
C341   H537    1.081   .     S
C341   C525    1.402   .     A
C341   C353    1.394   .     S
C342   C986    1.394   .     A
C342   H538    1.081   .     S
C342   C526    1.402   .     A
C343   H539    1.081   .     S
C343   C527    1.402   .     A
C343   C39     1.394   1_655 S
C344   H540    1.081   .     S
C344   C528    1.402   .     A
C345   C521    1.402   .     A
C345   C985    1.394   .     A
C345   H541    1.081   .     S
C346   H542    1.081   .     S
C346   C522    1.402   .     A
C346   C354    1.394   .     S
C347   C523    1.402   .     A
C347   H543    1.081   .     S
C347   C355    1.394   .     A
C348   C524    1.402   .     A
C348   H544    1.081   .     S
C348   C356    1.394   .     A
C349   C427    1.464   .     S
C350   C428    1.464   .     S
C351   C425    1.465   .     S
C351   C967    1.394   1_545 A
C352   C426    1.465   .     S
C352   C972    1.394   1_545 S
C353   C431    1.464   .     S
C353   C977    1.394   1_545 A
C354   C974    1.394   1_545 A
C354   C432    1.465   .     S
C355   C429    1.465   .     S
C356   C430    1.465   .     S
C356   C28     1.394   1_655 S
O357   Zn964   1.949   1_545 S
O358   Zn959   1.949   1_545 S
O361   C1057   1.282   .     A
O362   C426    1.282   .     A
O363   C427    1.282   .     A
O364   C112    1.282   1_655 S
O365   C425    1.281   .     S
O366   C1058   1.281   .     S
O367   C111    1.282   1_655 S
O368   C428    1.281   .     A
O369   C429    1.281   .     S
O371   C431    1.281   .     S
O372   C432    1.281   .     S
O373   C429    1.282   .     S
O375   C431    1.281   .     S
O376   C432    1.282   .     S
O377   C433    1.282   .     A
O378   C434    1.282   .     A
O379   C435    1.282   .     A
O380   C436    1.282   .     A
O381   C437    1.282   .     A
O382   C438    1.282   .     A
O383   C439    1.282   .     A
O384   C440    1.282   .     A
O385   C441    1.282   .     A
O386   C442    1.282   .     A
O387   C443    1.282   .     A
O388   C444    1.282   .     A
O389   C445    1.282   .     A
O390   C446    1.282   .     A
O391   C447    1.282   .     A
O392   C448    1.282   .     A
O393   C443    1.282   .     A
O393   Zn4     1.936   1_655 S
O394   C444    1.282   .     A
O395   C441    1.282   .     A
O395   Zn954   1.936   .     S
O396   C442    1.282   .     A
O397   C447    1.282   .     A
O398   C448    1.282   .     A
O398   Zn7     1.936   1_655 S
O399   C445    1.282   .     A
O400   C446    1.282   .     A
O400   Zn949   1.936   .     S
O401   Zn3     1.936   1_655 S
O401   C435    1.282   .     A
O402   C436    1.282   .     A
O403   C433    1.282   .     A
O404   C434    1.282   .     A
O404   Zn950   1.936   .     S
O405   C439    1.282   .     A
O406   C440    1.282   .     A
O406   Zn8     1.936   1_655 S
O407   C437    1.282   .     A
O407   Zn953   1.936   .     S
O408   C438    1.282   .     A
C409   C513    1.418   .     A
C409   C569    1.520   .     S
C409   C414    1.414   .     A
C410   C573    1.520   .     S
C410   C413    1.414   .     A
C410   C514    1.418   .     A
C411   C577    1.520   .     S
C411   C416    1.414   .     A
C411   C515    1.418   .     A
C412   C415    1.414   .     A
C412   C516    1.418   .     A
C412   C581    1.520   .     S
C413   C517    1.418   .     A
C413   C585    1.520   .     S
C414   C589    1.520   .     S
C414   C518    1.418   .     A
C415   C519    1.418   .     A
C415   C593    1.520   .     S
C416   C597    1.520   .     S
C416   C520    1.418   .     A
C417   C601    1.520   .     S
C417   C521    1.418   .     A
C417   C422    1.414   1_556 S
C418   C522    1.418   .     A
C418   C421    1.414   1_554 S
C418   C1237   1.520   1_545 S
C419   C523    1.418   .     A
C419   C609    1.520   .     S
C419   C424    1.414   1_556 S
C420   C524    1.418   .     A
C420   C613    1.520   .     S
C420   C423    1.414   1_554 S
C421   C617    1.520   .     S
C421   C525    1.418   .     A
C421   C418    1.414   1_556 S
C422   C526    1.418   .     A
C422   C417    1.414   1_554 S
C422   C1253   1.520   .     S
C423   C527    1.418   .     A
C423   C420    1.414   1_556 S
C423   C309    1.520   1_655 S
C424   C528    1.418   .     A
C424   C419    1.414   1_554 S
C425   O993    1.282   1_545 A
C426   O998    1.281   1_545 S
C430   O54     1.281   1_655 A
C430   O58     1.282   1_655 S
C433   C547    1.455   .     S
C434   C548    1.455   .     S
C435   C549    1.455   .     S
C436   C550    1.455   .     S
C437   C551    1.455   .     S
C438   C552    1.455   .     S
C439   C545    1.455   .     S
C440   C546    1.455   .     S
C441   C555    1.455   .     S
C442   C556    1.455   .     S
C443   C557    1.455   .     S
C444   C558    1.455   .     S
C445   C559    1.455   .     S
C446   C560    1.455   .     S
C447   C553    1.455   .     S
C448   C554    1.455   .     S
C449   C560    1.402   .     A
C449   H481    1.083   .     S
C449   C464    1.386   .     A
C450   C463    1.386   .     A
C450   H482    1.083   .     S
C450   C559    1.402   .     A
C451   C462    1.386   .     A
C451   H483    1.083   .     S
C451   C558    1.402   .     A
C452   C557    1.402   .     A
C452   C461    1.386   .     A
C452   H484    1.083   .     S
C453   C460    1.386   .     A
C453   H485    1.083   .     S
C453   C556    1.402   .     A
C454   C459    1.386   .     A
C454   C555    1.402   .     A
C454   H486    1.083   .     S
C455   C458    1.386   .     A
C455   H487    1.083   .     S
C455   C554    1.402   .     A
C456   C457    1.386   .     A
C456   C553    1.402   .     A
C456   H488    1.083   .     S
C457   H489    1.083   .     S
C457   C552    1.402   .     A
C458   C551    1.402   .     A
C458   H490    1.083   .     S
C459   H491    1.083   .     S
C459   C550    1.402   .     A
C460   C549    1.402   .     A
C460   H492    1.083   .     S
C461   C548    1.402   .     A
C461   H493    1.083   .     S
C462   H494    1.083   .     S
C462   C547    1.402   .     A
C463   H495    1.083   .     S
C463   C546    1.402   .     A
C464   H496    1.083   .     S
C464   C545    1.402   .     A
C465   C546    1.402   .     A
C465   C480    1.386   .     A
C465   H497    1.083   .     S
C466   C479    1.386   .     A
C466   H498    1.083   .     S
C466   C545    1.402   .     A
C467   H499    1.083   .     S
C467   C478    1.386   .     A
C467   C548    1.402   .     A
C468   C547    1.402   .     A
C468   C477    1.386   .     A
C468   H500    1.083   .     S
C469   C550    1.402   .     A
C469   C476    1.386   .     A
C469   H501    1.083   .     S
C470   H502    1.083   .     S
C470   C475    1.386   .     A
C470   C549    1.402   .     A
C471   C474    1.386   .     A
C471   H503    1.083   .     S
C471   C552    1.402   .     A
C472   C551    1.402   .     A
C472   H504    1.083   .     S
C472   C473    1.386   .     A
C473   C554    1.402   .     A
C473   H505    1.083   .     S
C474   H506    1.083   .     S
C474   C553    1.402   .     A
C475   C556    1.402   .     A
C475   H507    1.083   .     S
C476   C555    1.402   .     A
C476   H508    1.083   .     S
C477   H509    1.083   .     S
C477   C558    1.402   .     A
C478   C557    1.402   .     A
C478   H510    1.083   .     S
C479   H511    1.083   .     S
C479   C560    1.402   .     A
C480   C559    1.402   .     A
C480   H512    1.083   .     S
C513   C561    1.419   .     A
C514   C246    1.419   1_655 S
C515   C563    1.419   .     S
C516   C1196   1.419   .     S
C517   C245    1.420   1_655 S
C518   C562    1.419   .     A
C519   C1195   1.419   .     A
C520   C564    1.419   .     A
C521   C565    1.419   .     A
C522   C1198   1.419   1_545 S
C523   C567    1.420   .     A
C524   C568    1.420   .     A
C525   C1197   1.419   1_545 S
C526   C566    1.420   .     A
C527   C251    1.420   1_655 S
C561   C562    1.402   .     A
C563   C1151   1.419   1_545 A
C563   C564    1.402   .     S
C564   C1148   1.419   1_545 S
C565   C1157   1.419   .     S
C565   C566    1.402   1_556 S
C566   C1154   1.419   .     S
C566   C565    1.402   1_554 S
C567   C252    1.403   1_556 S
C568   C212    1.420   1_655 S
C568   C251    1.403   1_654 S
C569   H572    1.110   .     S
C569   H570    1.110   .     S
C569   H571    1.108   .     S
C573   H575    1.108   .     S
C573   H574    1.110   .     S
C573   H576    1.110   .     S
C577   H579    1.108   .     S
C577   H578    1.110   .     S
C577   H580    1.110   .     S
C581   H583    1.110   .     S
C581   H582    1.108   .     S
C581   H584    1.110   .     S
C585   H587    1.108   .     S
C585   H586    1.110   .     S
C585   H588    1.110   .     S
C589   H592    1.110   .     S
C589   H591    1.108   .     S
C589   H590    1.110   .     S
C593   H594    1.110   .     S
C593   H596    1.110   .     S
C593   H595    1.108   .     S
C597   H600    1.110   .     S
C597   H599    1.108   .     S
C597   H598    1.110   .     S
C601   H603    1.108   .     S
C601   H602    1.110   .     S
C601   H1236   1.110   .     S
H604   C1233   1.110   1_545 S
C605   H606    1.110   .     S
C605   H607    1.108   .     S
C605   C1050   1.520   .     S
C605   H1240   1.110   .     S
H608   C1237   1.110   1_545 S
C609   H610    1.108   .     S
C609   H611    1.110   .     S
H612   C293    1.110   1_655 S
C613   H614    1.108   .     S
C613   H616    1.110   .     S
C613   H299    1.110   1_655 S
C617   H618    1.110   .     S
C617   H619    1.108   .     S
C617   H1252   1.110   1_545 S
H620   C1249   1.110   .     S
C621   H622    1.110   .     S
C621   H623    1.108   .     S
C621   C1054   1.520   1_545 S
C621   H1256   1.110   1_545 S
H624   C1253   1.110   .     S
C625   H627    1.108   .     S
C625   H626    1.110   .     S
H628   C309    1.110   1_655 S
C629   H630    1.110   .     S
C629   H632    1.108   .     S
C629   C108    1.520   1_655 S
C629   H315    1.110   1_655 S
Zn633  O719    1.936   .     S
Zn633  O688    1.953   .     S
Zn633  O673    1.949   .     S
Zn634  O687    1.953   .     S
Zn634  O715    1.936   .     S
Zn634  O674    1.949   .     S
Zn635  O1033   1.936   1_455 S
Zn635  O675    1.949   .     S
Zn635  O690    1.953   .     S
Zn635  O710    1.936   .     S
Zn636  O718    1.936   .     S
Zn636  O676    1.949   .     S
Zn636  O689    1.953   .     S
Zn636  O1025   1.936   1_455 S
Zn637  O692    1.953   .     S
Zn637  O712    1.936   .     S
Zn637  O673    1.949   .     S
Zn638  O724    1.936   .     S
Zn638  O674    1.949   .     S
Zn638  O691    1.953   .     S
Zn639  O675    1.949   .     S
Zn639  O686    1.953   .     S
Zn639  O1030   1.936   1_455 S
Zn639  O721    1.936   .     S
Zn640  O685    1.953   .     S
Zn640  O1038   1.936   1_455 S
Zn640  O676    1.949   .     S
Zn640  O713    1.936   .     S
Zn641  O680    1.953   .     S
Zn641  O703    1.936   .     S
Zn641  O700    1.936   .     S
Zn641  O992    1.949   .     S
Zn642  O679    1.953   .     S
Zn642  O704    1.936   .     S
Zn642  O699    1.936   .     S
Zn642  O675    1.949   .     S
Zn643  O694    1.936   .     S
Zn643  O701    1.936   .     S
Zn643  O682    1.953   .     S
Zn643  O42     1.949   1_565 S
Zn644  O681    1.953   .     S
Zn644  O702    1.936   .     S
Zn644  O693    1.936   .     S
Zn644  O673    1.949   .     S
Zn645  O707    1.936   .     S
Zn645  O676    1.949   .     S
Zn645  O684    1.953   .     S
Zn645  O696    1.936   .     S
Zn646  O708    1.936   .     S
Zn646  O991    1.949   .     S
Zn646  O683    1.953   .     S
Zn646  O695    1.936   .     S
Zn647  O698    1.936   .     S
Zn647  O705    1.936   .     S
Zn647  O674    1.949   .     S
Zn647  O678    1.953   .     S
Zn648  O677    1.953   .     S
Zn648  O697    1.936   .     S
Zn648  O706    1.936   .     S
Zn648  O41     1.949   1_565 S
C649   C833    1.402   .     A
C649   H845    1.081   .     S
C649   C981    1.394   .     S
C650   H846    1.081   .     S
C650   C834    1.402   .     A
C650   C666    1.394   .     A
C651   C835    1.402   .     A
C651   H847    1.081   .     S
C651   C35     1.394   1_565 A
C652   H848    1.081   .     S
C652   C836    1.402   .     A
C652   C668    1.394   .     A
C653   C665    1.394   .     A
C653   C829    1.402   .     A
C653   H849    1.081   .     S
C654   C830    1.402   .     A
C654   H850    1.081   .     S
C654   C982    1.394   .     S
C655   H851    1.081   .     S
C655   C831    1.402   .     A
C655   C667    1.394   .     S
C656   H852    1.081   .     S
C656   C832    1.402   .     A
C656   C36     1.394   1_565 S
C657   H853    1.081   .     S
C657   C841    1.402   .     A
C657   C669    1.394   .     S
C658   C38     1.394   1_565 A
C658   H854    1.081   .     S
C658   C842    1.402   .     A
C659   H855    1.081   .     S
C659   C843    1.402   .     A
C659   C987    1.394   .     S
C660   H856    1.081   .     S
C660   C844    1.402   .     A
C660   C988    1.394   1_455 S
C661   C837    1.402   .     A
C661   C37     1.394   1_565 A
C661   H857    1.081   .     S
C662   H858    1.081   .     S
C662   C838    1.402   .     A
C662   C670    1.394   .     S
C663   C839    1.402   .     A
C663   H859    1.081   .     S
C663   C671    1.394   .     A
C664   C840    1.402   .     A
C664   H860    1.081   .     S
C664   C672    1.394   .     A
C665   C743    1.464   .     S
C665   C965    1.394   1_455 S
C666   C744    1.464   .     S
C666   C970    1.394   1_455 S
C667   C741    1.465   .     S
C668   C742    1.465   .     S
C669   C747    1.464   .     S
C670   C748    1.465   .     S
C671   C745    1.465   .     S
C671   C975    1.394   1_455 S
C672   C746    1.465   .     S
C672   C976    1.394   .     S
O675   Zn962   1.949   1_455 S
O676   Zn957   1.949   1_455 S
O677   C109    1.282   1_565 A
O678   C742    1.282   .     A
O679   C743    1.282   .     A
O680   C1060   1.282   .     S
O681   C741    1.281   .     S
O682   C110    1.281   1_565 S
O683   C1059   1.282   .     S
O684   C744    1.281   .     A
O685   C745    1.281   .     S
O686   C1062   1.281   1_455 A
O687   C747    1.281   .     S
O688   C748    1.281   .     S
O689   C745    1.282   .     S
O690   C1062   1.282   1_455 S
O691   C747    1.281   .     S
O692   C748    1.282   .     S
O693   C749    1.282   .     A
O694   C750    1.282   .     A
O695   C751    1.282   .     A
O696   C752    1.282   .     A
O697   C753    1.282   .     A
O698   C754    1.282   .     A
O699   C755    1.282   .     A
O700   C756    1.282   .     A
O701   C757    1.282   .     A
O702   C758    1.282   .     A
O703   C759    1.282   .     A
O704   C760    1.282   .     A
O705   C761    1.282   .     A
O706   C762    1.282   .     A
O707   C763    1.282   .     A
O708   C764    1.282   .     A
O709   C759    1.282   .     A
O709   Zn952   1.936   .     S
O710   C760    1.282   .     A
O711   C757    1.282   .     A
O711   Zn6     1.936   1_565 S
O712   C758    1.282   .     A
O713   C763    1.282   .     A
O714   C764    1.282   .     A
O714   Zn955   1.936   .     S
O715   C761    1.282   .     A
O716   C762    1.282   .     A
O716   Zn1     1.936   1_565 S
O717   Zn951   1.936   .     S
O717   C751    1.282   .     A
O718   C752    1.282   .     A
O719   C749    1.282   .     A
O720   C750    1.282   .     A
O720   Zn2     1.936   1_565 S
O721   C755    1.282   .     A
O722   C756    1.282   .     A
O722   Zn956   1.936   .     S
O723   C753    1.282   .     A
O723   Zn5     1.936   1_565 S
O724   C754    1.282   .     A
C725   C829    1.418   .     A
C725   C885    1.520   .     S
C725   C730    1.414   .     A
C726   C889    1.520   .     S
C726   C729    1.414   .     A
C726   C830    1.418   .     A
C727   C893    1.520   .     S
C727   C732    1.414   .     A
C727   C831    1.418   .     A
C728   C731    1.414   .     A
C728   C832    1.418   .     A
C728   C897    1.520   .     S
C729   C833    1.418   .     A
C729   C901    1.520   .     S
C730   C905    1.520   .     S
C730   C834    1.418   .     A
C731   C835    1.418   .     A
C731   C909    1.520   .     S
C732   C913    1.520   .     S
C732   C836    1.418   .     A
C733   C917    1.520   .     S
C733   C837    1.418   .     A
C733   C738    1.414   1_556 S
C734   C838    1.418   .     A
C734   C737    1.414   1_554 S
C735   C839    1.418   .     A
C735   C925    1.520   .     S
C735   C740    1.414   1_556 S
C736   C840    1.418   .     A
C736   C929    1.520   .     S
C736   C739    1.414   1_554 S
C737   C933    1.520   .     S
C737   C841    1.418   .     A
C737   C734    1.414   1_556 S
C738   C842    1.418   .     A
C738   C733    1.414   1_554 S
C738   C305    1.520   1_565 S
C739   C843    1.418   .     A
C739   C736    1.414   1_556 S
C739   C1257   1.520   .     S
C740   C844    1.418   .     A
C740   C735    1.414   1_554 S
C740   C1261   1.520   1_455 S
C743   O999    1.282   1_455 S
C744   O996    1.282   1_455 S
C746   O1002   1.281   .     A
C746   O1006   1.282   .     S
C749   C863    1.455   .     S
C750   C864    1.455   .     S
C751   C865    1.455   .     S
C752   C866    1.455   .     S
C753   C867    1.455   .     S
C754   C868    1.455   .     S
C755   C861    1.455   .     S
C756   C862    1.455   .     S
C757   C871    1.455   .     S
C758   C872    1.455   .     S
C759   C873    1.455   .     S
C760   C874    1.455   .     S
C761   C875    1.455   .     S
C762   C876    1.455   .     S
C763   C869    1.455   .     S
C764   C870    1.455   .     S
C765   C876    1.402   .     A
C765   H797    1.083   .     S
C765   C780    1.386   .     A
C766   C779    1.386   .     A
C766   H798    1.083   .     S
C766   C875    1.402   .     A
C767   C778    1.386   .     A
C767   H799    1.083   .     S
C767   C874    1.402   .     A
C768   C873    1.402   .     A
C768   C777    1.386   .     A
C768   H800    1.083   .     S
C769   C776    1.386   .     A
C769   H801    1.083   .     S
C769   C872    1.402   .     A
C770   C775    1.386   .     A
C770   C871    1.402   .     A
C770   H802    1.083   .     S
C771   C774    1.386   .     A
C771   H803    1.083   .     S
C771   C870    1.402   .     A
C772   C773    1.386   .     A
C772   C869    1.402   .     A
C772   H804    1.083   .     S
C773   H805    1.083   .     S
C773   C868    1.402   .     A
C774   C867    1.402   .     A
C774   H806    1.083   .     S
C775   H807    1.083   .     S
C775   C866    1.402   .     A
C776   C865    1.402   .     A
C776   H808    1.083   .     S
C777   C864    1.402   .     A
C777   H809    1.083   .     S
C778   H810    1.083   .     S
C778   C863    1.402   .     A
C779   H811    1.083   .     S
C779   C862    1.402   .     A
C780   H812    1.083   .     S
C780   C861    1.402   .     A
C781   C862    1.402   .     A
C781   C796    1.386   .     A
C781   H813    1.083   .     S
C782   C795    1.386   .     A
C782   H814    1.083   .     S
C782   C861    1.402   .     A
C783   H815    1.083   .     S
C783   C794    1.386   .     A
C783   C864    1.402   .     A
C784   C863    1.402   .     A
C784   C793    1.386   .     A
C784   H816    1.083   .     S
C785   C866    1.402   .     A
C785   C792    1.386   .     A
C785   H817    1.083   .     S
C786   H818    1.083   .     S
C786   C791    1.386   .     A
C786   C865    1.402   .     A
C787   C790    1.386   .     A
C787   H819    1.083   .     S
C787   C868    1.402   .     A
C788   C867    1.402   .     A
C788   H820    1.083   .     S
C788   C789    1.386   .     A
C789   C870    1.402   .     A
C789   H821    1.083   .     S
C790   H822    1.083   .     S
C790   C869    1.402   .     A
C791   C872    1.402   .     A
C791   H823    1.083   .     S
C792   C871    1.402   .     A
C792   H824    1.083   .     S
C793   H825    1.083   .     S
C793   C874    1.402   .     A
C794   C873    1.402   .     A
C794   H826    1.083   .     S
C795   H827    1.083   .     S
C795   C876    1.402   .     A
C796   C875    1.402   .     A
C796   H828    1.083   .     S
C829   C877    1.419   .     A
C830   C1194   1.419   .     S
C831   C879    1.419   .     S
C832   C248    1.419   1_565 S
C833   C1193   1.420   .     S
C834   C878    1.419   .     A
C835   C247    1.419   1_565 A
C836   C880    1.419   .     A
C837   C881    1.419   .     A
C839   C883    1.420   .     A
C840   C884    1.420   .     A
C842   C882    1.420   .     A
C843   C1199   1.420   .     S
C844   C1200   1.420   1_455 S
C877   C878    1.402   .     A
C877   C1149   1.420   1_455 S
C878   C1146   1.419   1_455 S
C879   C880    1.402   .     S
C881   C209    1.419   1_565 S
C881   C882    1.402   1_556 S
C882   C206    1.419   1_565 S
C882   C881    1.402   1_554 S
C883   C1159   1.420   1_455 S
C883   C1200   1.403   1_456 S
C884   C1160   1.420   .     S
C884   C1199   1.403   1_554 S
C885   H888    1.110   .     S
C885   H886    1.110   .     S
C885   H887    1.108   .     S
C889   H891    1.108   .     S
C889   H890    1.110   .     S
C889   H892    1.110   .     S
C893   H895    1.108   .     S
C893   H894    1.110   .     S
C893   H896    1.110   .     S
C897   H899    1.110   .     S
C897   H898    1.108   .     S
C897   H900    1.110   .     S
C901   H903    1.108   .     S
C901   H902    1.110   .     S
C901   H904    1.110   .     S
C905   H908    1.110   .     S
C905   H907    1.108   .     S
C905   H906    1.110   .     S
C909   H910    1.110   .     S
C909   H912    1.110   .     S
C909   H911    1.108   .     S
C913   H916    1.110   .     S
C913   H915    1.108   .     S
C913   H914    1.110   .     S
C917   H919    1.108   .     S
C917   H918    1.110   .     S
C917   H288    1.110   1_565 S
C921   H922    1.110   .     S
C921   H923    1.108   .     S
C921   C102    1.520   1_565 S
C921   H292    1.110   1_565 S
C925   H926    1.108   .     S
C925   H927    1.110   .     S
C925   H1244   1.110   1_455 S
H928   C1241   1.110   .     S
C929   H930    1.108   .     S
C929   H932    1.110   .     S
C929   H1247   1.110   .     S
H931   C1245   1.110   1_455 S
C933   H934    1.110   .     S
C933   H935    1.108   .     S
H936   C301    1.110   1_565 S
C937   H938    1.110   .     S
C937   H939    1.108   .     S
H940   C305    1.110   1_565 S
C941   H943    1.108   .     S
C941   H942    1.110   .     S
C941   C1055   1.520   1_455 S
C941   H1260   1.110   1_455 S
H944   C1257   1.110   .     S
C945   H946    1.110   .     S
C945   H948    1.108   .     S
C945   C1056   1.520   .     S
C945   H1263   1.110   .     S
H947   C1261   1.110   1_455 S
Zn949  O1035   1.936   .     S
Zn949  O1004   1.953   .     S
Zn949  O989    1.949   .     S
Zn950  O1003   1.953   .     S
Zn950  O1031   1.936   .     S
Zn950  O990    1.949   .     S
Zn951  O991    1.949   .     S
Zn951  O1006   1.953   .     S
Zn951  O1026   1.936   .     S
Zn952  O1034   1.936   .     S
Zn952  O992    1.949   .     S
Zn952  O1005   1.953   .     S
Zn953  O1008   1.953   .     S
Zn953  O1028   1.936   .     S
Zn953  O989    1.949   .     S
Zn954  O1040   1.936   .     S
Zn954  O990    1.949   .     S
Zn954  O1007   1.953   .     S
Zn955  O991    1.949   .     S
Zn955  O1002   1.953   .     S
Zn955  O1037   1.936   .     S
Zn956  O1001   1.953   .     S
Zn956  O992    1.949   .     S
Zn956  O1029   1.936   .     S
Zn957  O996    1.953   .     S
Zn957  O1019   1.936   .     S
Zn957  O1016   1.936   .     S
Zn957  O676    1.949   1_655 S
Zn958  O995    1.953   .     S
Zn958  O1020   1.936   .     S
Zn958  O1015   1.936   .     S
Zn958  O991    1.949   .     S
Zn959  O1010   1.936   .     S
Zn959  O1017   1.936   .     S
Zn959  O998    1.953   .     S
Zn959  O358    1.949   1_565 S
Zn960  O997    1.953   .     S
Zn960  O1018   1.936   .     S
Zn960  O1009   1.936   .     S
Zn960  O989    1.949   .     S
Zn961  O1023   1.936   .     S
Zn961  O992    1.949   .     S
Zn961  O1000   1.953   .     S
Zn961  O1012   1.936   .     S
Zn962  O1024   1.936   .     S
Zn962  O675    1.949   1_655 S
Zn962  O999    1.953   .     S
Zn962  O1011   1.936   .     S
Zn963  O1014   1.936   .     S
Zn963  O1021   1.936   .     S
Zn963  O990    1.949   .     S
Zn963  O994    1.953   .     S
Zn964  O993    1.953   .     S
Zn964  O1013   1.936   .     S
Zn964  O1022   1.936   .     S
Zn964  O357    1.949   1_565 S
C965   C1149   1.402   .     A
C965   H1161   1.081   .     S
C965   C665    1.394   1_655 S
C966   H1162   1.081   .     S
C966   C1150   1.402   .     A
C966   C982    1.394   .     A
C967   C1151   1.402   .     A
C967   H1163   1.081   .     S
C967   C351    1.394   1_565 A
C968   H1164   1.081   .     S
C968   C1152   1.402   .     A
C968   C984    1.394   .     A
C969   C981    1.394   .     A
C969   C1145   1.402   .     A
C969   H1165   1.081   .     S
C970   C1146   1.402   .     A
C970   H1166   1.081   .     S
C970   C666    1.394   1_655 S
C971   H1167   1.081   .     S
C971   C1147   1.402   .     A
C971   C983    1.394   .     S
C972   H1168   1.081   .     S
C972   C1148   1.402   .     A
C972   C352    1.394   1_565 S
C973   H1169   1.081   .     S
C973   C1157   1.402   .     A
C973   C985    1.394   .     S
C974   C354    1.394   1_565 A
C974   H1170   1.081   .     S
C974   C1158   1.402   .     A
C975   H1171   1.081   .     S
C975   C1159   1.402   .     A
C975   C671    1.394   1_655 S
C976   H1172   1.081   .     S
C976   C1160   1.402   .     A
C977   C1153   1.402   .     A
C977   C353    1.394   1_565 A
C977   H1173   1.081   .     S
C978   H1174   1.081   .     S
C978   C1154   1.402   .     A
C978   C986    1.394   .     S
C979   C1155   1.402   .     A
C979   H1175   1.081   .     S
C979   C987    1.394   .     A
C980   C1156   1.402   .     A
C980   H1176   1.081   .     S
C980   C988    1.394   .     A
C981   C1059   1.464   .     S
C982   C1060   1.464   .     S
C983   C1057   1.465   .     S
C984   C1058   1.465   .     S
C985   C1063   1.464   .     S
C986   C1064   1.465   .     S
C987   C1061   1.465   .     S
C988   C1062   1.465   .     S
C988   C660    1.394   1_655 S
O993   C425    1.282   1_565 A
O994   C1058   1.282   .     A
O995   C1059   1.282   .     A
O996   C744    1.282   1_655 S
O997   C1057   1.281   .     S
O998   C426    1.281   1_565 S
O999   C743    1.282   1_655 S
O1000  C1060   1.281   .     A
O1001  C1061   1.281   .     S
O1003  C1063   1.281   .     S
O1004  C1064   1.281   .     S
O1005  C1061   1.282   .     S
O1007  C1063   1.281   .     S
O1008  C1064   1.282   .     S
O1009  C1065   1.282   .     A
O1010  C1066   1.282   .     A
O1011  C1067   1.282   .     A
O1012  C1068   1.282   .     A
O1013  C1069   1.282   .     A
O1014  C1070   1.282   .     A
O1015  C1071   1.282   .     A
O1016  C1072   1.282   .     A
O1017  C1073   1.282   .     A
O1018  C1074   1.282   .     A
O1019  C1075   1.282   .     A
O1020  C1076   1.282   .     A
O1021  C1077   1.282   .     A
O1022  C1078   1.282   .     A
O1023  C1079   1.282   .     A
O1024  C1080   1.282   .     A
O1025  C1075   1.282   .     A
O1025  Zn636   1.936   1_655 S
O1026  C1076   1.282   .     A
O1027  C1073   1.282   .     A
O1027  Zn322   1.936   1_565 S
O1028  C1074   1.282   .     A
O1029  C1079   1.282   .     A
O1030  C1080   1.282   .     A
O1030  Zn639   1.936   1_655 S
O1031  C1077   1.282   .     A
O1032  C1078   1.282   .     A
O1032  Zn317   1.936   1_565 S
O1033  Zn635   1.936   1_655 S
O1033  C1067   1.282   .     A
O1034  C1068   1.282   .     A
O1035  C1065   1.282   .     A
O1036  C1066   1.282   .     A
O1036  Zn318   1.936   1_565 S
O1037  C1071   1.282   .     A
O1038  C1072   1.282   .     A
O1038  Zn640   1.936   1_655 S
O1039  C1069   1.282   .     A
O1039  Zn321   1.936   1_565 S
O1040  C1070   1.282   .     A
C1041  C1145   1.418   .     A
C1041  C1201   1.520   .     S
C1041  C1046   1.414   .     A
C1042  C1205   1.520   .     S
C1042  C1045   1.414   .     A
C1042  C1146   1.418   .     A
C1043  C1209   1.520   .     S
C1043  C1048   1.414   .     A
C1043  C1147   1.418   .     A
C1044  C1047   1.414   .     A
C1044  C1148   1.418   .     A
C1044  C1213   1.520   .     S
C1045  C1149   1.418   .     A
C1045  C1217   1.520   .     S
C1046  C1221   1.520   .     S
C1046  C1150   1.418   .     A
C1047  C1151   1.418   .     A
C1047  C1225   1.520   .     S
C1048  C1229   1.520   .     S
C1048  C1152   1.418   .     A
C1049  C1233   1.520   .     S
C1049  C1153   1.418   .     A
C1049  C1054   1.414   1_556 S
C1050  C1154   1.418   .     A
C1050  C1053   1.414   1_554 S
C1051  C1155   1.418   .     A
C1051  C1241   1.520   .     S
C1051  C1056   1.414   1_556 S
C1052  C1156   1.418   .     A
C1052  C1245   1.520   .     S
C1052  C1055   1.414   1_554 S
C1053  C1249   1.520   .     S
C1053  C1157   1.418   .     A
C1053  C1050   1.414   1_556 S
C1054  C1158   1.418   .     A
C1054  C1049   1.414   1_554 S
C1054  C621    1.520   1_565 S
C1055  C1159   1.418   .     A
C1055  C1052   1.414   1_556 S
C1055  C941    1.520   1_655 S
C1056  C1160   1.418   .     A
C1056  C1051   1.414   1_554 S
C1062  O686    1.281   1_655 A
C1062  O690    1.282   1_655 S
C1065  C1179   1.455   .     S
C1066  C1180   1.455   .     S
C1067  C1181   1.455   .     S
C1068  C1182   1.455   .     S
C1069  C1183   1.455   .     S
C1070  C1184   1.455   .     S
C1071  C1177   1.455   .     S
C1072  C1178   1.455   .     S
C1073  C1187   1.455   .     S
C1074  C1188   1.455   .     S
C1075  C1189   1.455   .     S
C1076  C1190   1.455   .     S
C1077  C1191   1.455   .     S
C1078  C1192   1.455   .     S
C1079  C1185   1.455   .     S
C1080  C1186   1.455   .     S
C1081  C1192   1.402   .     A
C1081  H1113   1.083   .     S
C1081  C1096   1.386   .     A
C1082  C1095   1.386   .     A
C1082  H1114   1.083   .     S
C1082  C1191   1.402   .     A
C1083  C1094   1.386   .     A
C1083  H1115   1.083   .     S
C1083  C1190   1.402   .     A
C1084  C1189   1.402   .     A
C1084  C1093   1.386   .     A
C1084  H1116   1.083   .     S
C1085  C1092   1.386   .     A
C1085  H1117   1.083   .     S
C1085  C1188   1.402   .     A
C1086  C1091   1.386   .     A
C1086  C1187   1.402   .     A
C1086  H1118   1.083   .     S
C1087  C1090   1.386   .     A
C1087  H1119   1.083   .     S
C1087  C1186   1.402   .     A
C1088  C1089   1.386   .     A
C1088  C1185   1.402   .     A
C1088  H1120   1.083   .     S
C1089  H1121   1.083   .     S
C1089  C1184   1.402   .     A
C1090  C1183   1.402   .     A
C1090  H1122   1.083   .     S
C1091  H1123   1.083   .     S
C1091  C1182   1.402   .     A
C1092  C1181   1.402   .     A
C1092  H1124   1.083   .     S
C1093  C1180   1.402   .     A
C1093  H1125   1.083   .     S
C1094  H1126   1.083   .     S
C1094  C1179   1.402   .     A
C1095  H1127   1.083   .     S
C1095  C1178   1.402   .     A
C1096  H1128   1.083   .     S
C1096  C1177   1.402   .     A
C1097  C1178   1.402   .     A
C1097  C1112   1.386   .     A
C1097  H1129   1.083   .     S
C1098  C1111   1.386   .     A
C1098  H1130   1.083   .     S
C1098  C1177   1.402   .     A
C1099  H1131   1.083   .     S
C1099  C1110   1.386   .     A
C1099  C1180   1.402   .     A
C1100  C1179   1.402   .     A
C1100  C1109   1.386   .     A
C1100  H1132   1.083   .     S
C1101  C1182   1.402   .     A
C1101  C1108   1.386   .     A
C1101  H1133   1.083   .     S
C1102  H1134   1.083   .     S
C1102  C1107   1.386   .     A
C1102  C1181   1.402   .     A
C1103  C1106   1.386   .     A
C1103  H1135   1.083   .     S
C1103  C1184   1.402   .     A
C1104  C1183   1.402   .     A
C1104  H1136   1.083   .     S
C1104  C1105   1.386   .     A
C1105  C1186   1.402   .     A
C1105  H1137   1.083   .     S
C1106  H1138   1.083   .     S
C1106  C1185   1.402   .     A
C1107  C1188   1.402   .     A
C1107  H1139   1.083   .     S
C1108  C1187   1.402   .     A
C1108  H1140   1.083   .     S
C1109  H1141   1.083   .     S
C1109  C1190   1.402   .     A
C1110  C1189   1.402   .     A
C1110  H1142   1.083   .     S
C1111  H1143   1.083   .     S
C1111  C1192   1.402   .     A
C1112  C1191   1.402   .     A
C1112  H1144   1.083   .     S
C1145  C1193   1.419   .     A
C1146  C878    1.419   1_655 S
C1147  C1195   1.419   .     S
C1148  C564    1.419   1_565 S
C1149  C877    1.420   1_655 S
C1150  C1194   1.419   .     A
C1151  C563    1.419   1_565 A
C1152  C1196   1.419   .     A
C1153  C1197   1.419   .     A
C1155  C1199   1.420   .     A
C1156  C1200   1.420   .     A
C1158  C1198   1.420   .     A
C1159  C883    1.420   1_655 S
C1193  C1194   1.402   .     A
C1195  C1196   1.402   .     S
C1197  C525    1.419   1_565 S
C1197  C1198   1.402   1_556 S
C1198  C522    1.419   1_565 S
C1198  C1197   1.402   1_554 S
C1199  C884    1.403   1_556 S
C1200  C844    1.420   1_655 S
C1200  C883    1.403   1_654 S
C1201  H1204   1.110   .     S
C1201  H1202   1.110   .     S
C1201  H1203   1.108   .     S
C1205  H1207   1.108   .     S
C1205  H1206   1.110   .     S
C1205  H1208   1.110   .     S
C1209  H1211   1.108   .     S
C1209  H1210   1.110   .     S
C1209  H1212   1.110   .     S
C1213  H1215   1.110   .     S
C1213  H1214   1.108   .     S
C1213  H1216   1.110   .     S
C1217  H1219   1.108   .     S
C1217  H1218   1.110   .     S
C1217  H1220   1.110   .     S
C1221  H1224   1.110   .     S
C1221  H1223   1.108   .     S
C1221  H1222   1.110   .     S
C1225  H1226   1.110   .     S
C1225  H1228   1.110   .     S
C1225  H1227   1.108   .     S
C1229  H1232   1.110   .     S
C1229  H1231   1.108   .     S
C1229  H1230   1.110   .     S
C1233  H1235   1.108   .     S
C1233  H1234   1.110   .     S
C1233  H604    1.110   1_565 S
C1237  H1238   1.110   .     S
C1237  H1239   1.108   .     S
C1237  C418    1.520   1_565 S
C1237  H608    1.110   1_565 S
C1241  H1242   1.108   .     S
C1241  H1243   1.110   .     S
H1244  C925    1.110   1_655 S
C1245  H1246   1.108   .     S
C1245  H1248   1.110   .     S
C1245  H931    1.110   1_655 S
C1249  H1250   1.110   .     S
C1249  H1251   1.108   .     S
H1252  C617    1.110   1_565 S
C1253  H1254   1.110   .     S
C1253  H1255   1.108   .     S
H1256  C621    1.110   1_565 S
C1257  H1259   1.108   .     S
C1257  H1258   1.110   .     S
H1260  C941    1.110   1_655 S
C1261  H1262   1.110   .     S
C1261  H1264   1.108   .     S
C1261  C740    1.520   1_655 S
C1261  H947    1.110   1_655 S
