data_str_m1_o10_o16_pcu_sym.117
_audit_creation_date              2020-01-03
_audit_creation_method            'Materials Studio'
_symmetry_space_group_name_H-M    'P1'
_symmetry_Int_Tables_number       1
_symmetry_cell_setting            triclinic
loop_
_symmetry_equiv_pos_as_xyz
  x,y,z
_cell_length_a                    32.5403
_cell_length_b                    32.4988
_cell_length_c                    31.2190
_cell_angle_alpha                 96.2624
_cell_angle_beta                  74.4581
_cell_angle_gamma                 98.4667
loop_
_atom_site_label
_atom_site_type_symbol
_atom_site_fract_x
_atom_site_fract_y
_atom_site_fract_z
_atom_site_U_iso_or_equiv
_atom_site_adp_type
_atom_site_occupancy
C1     C     0.05279   0.15982   0.25994   0.00000  Uiso   1.00
C2     C     0.16528   0.15980   0.06170   0.00000  Uiso   1.00
C3     C     0.23141   0.13035   0.05609   0.00000  Uiso   1.00
C4     C     0.28082   0.17383   0.23993   0.00000  Uiso   1.00
C5     C     0.13647   0.18767   0.41975   0.00000  Uiso   1.00
C6     C     0.32677   0.17638   0.23559   0.00000  Uiso   1.00
C7     C     0.00745   0.15762   0.26401   0.00000  Uiso   1.00
C8     C     0.18047   0.32252   0.23630   0.00000  Uiso   1.00
C9     C     0.15204   0.01179   0.26392   0.00000  Uiso   1.00
C10    C     0.15623   0.05592   0.26015   0.00000  Uiso   1.00
C11    C     0.17661   0.27793   0.24012   0.00000  Uiso   1.00
C12    C     0.07654   0.18180   0.48514   0.00000  Uiso   1.00
C13    C     0.18558   0.14825   0.12953   0.00000  Uiso   1.00
C14    C     0.14891   0.18499   0.37073   0.00000  Uiso   1.00
C15    C     0.24443   0.13537   0.01080   0.00000  Uiso   1.00
C16    C     0.19279   0.14356   0.08151   0.00000  Uiso   1.00
C17    C     0.09327   0.19137   0.44116   0.00000  Uiso   1.00
C18    C     0.10284   0.16959   0.00868   0.00000  Uiso   1.00
C19    C     0.14765   0.17057   0.49020   0.00000  Uiso   1.00
C20    C     0.16441   0.17896   0.44458   0.00000  Uiso   1.00
C21    C     0.17583   0.16027   0.01438   0.00000  Uiso   1.00
C22    C     0.21779   0.15154   0.49010   0.00000  Uiso   1.00
C23    C     0.23386   0.16111   0.44588   0.00000  Uiso   1.00
C24    C     0.20841   0.17716   0.42439   0.00000  Uiso   1.00
H25    H     0.25298   0.11907   0.07197   0.00000  Uiso   1.00
H26    H     0.22359   0.18713   0.39132   0.00000  Uiso   1.00
H27    H     0.01595   0.19352   0.20919   0.00000  Uiso   1.00
H28    H     0.10491   0.16387   0.10246   0.00000  Uiso   1.00
H29    H     0.12859   0.20891   0.07566   0.00000  Uiso   1.00
H30    H     0.31891   0.14074   0.29095   0.00000  Uiso   1.00
H31    H     0.20669   0.00375   0.21085   0.00000  Uiso   1.00
H32    H     0.12554   0.33136   0.28959   0.00000  Uiso   1.00
H33    H     0.26681   0.15739   0.42817   0.00000  Uiso   1.00
H34    H     0.27594   0.12773   0.49214   0.00000  Uiso   1.00
H35    H     0.07141   0.19802   0.42277   0.00000  Uiso   1.00
H36    H     0.08695   0.15770   0.04051   0.00000  Uiso   1.00
H37    H     0.04245   0.18165   0.00034   0.00000  Uiso   1.00
N38    N     0.13334   0.18347   0.09076   0.00000  Uiso   1.00
O39    O     0.16667   0.16667   0.25000   0.00000  Uiso   1.00
O40    O     0.15451   0.12637   0.15458   0.00000  Uiso   1.00
O41    O     0.12940   0.20391   0.34968   0.00000  Uiso   1.00
O42    O     0.20824   0.17759   0.14606   0.00000  Uiso   1.00
O43    O     0.17451   0.15880   0.34968   0.00000  Uiso   1.00
O44    O     0.17930   0.08019   0.28213   0.00000  Uiso   1.00
O45    O     0.14632   0.26085   0.27013   0.00000  Uiso   1.00
O46    O     0.07412   0.13291   0.23413   0.00000  Uiso   1.00
O47    O     0.26693   0.19272   0.21360   0.00000  Uiso   1.00
O48    O     0.07071   0.18878   0.28213   0.00000  Uiso   1.00
O49    O     0.25491   0.15226   0.27013   0.00000  Uiso   1.00
O50    O     0.13760   0.06944   0.23413   0.00000  Uiso   1.00
O51    O     0.20345   0.25620   0.21360   0.00000  Uiso   1.00
Zn52   Zn    0.19338   0.13994   0.28734   0.00000  Uiso   1.00
Zn53   Zn    0.13379   0.12458   0.21875   0.00000  Uiso   1.00
Zn54   Zn    0.21056   0.19775   0.20657   0.00000  Uiso   1.00
Zn55   Zn    0.12893   0.20439   0.28733   0.00000  Uiso   1.00
C56    C     0.38612   0.15982   0.25994   0.00000  Uiso   1.00
C57    C     0.49862   0.15980   0.06170   0.00000  Uiso   1.00
C58    C     0.56475   0.13035   0.05609   0.00000  Uiso   1.00
C59    C     0.61415   0.17383   0.23993   0.00000  Uiso   1.00
C60    C     0.46980   0.18767   0.41975   0.00000  Uiso   1.00
C61    C     0.66011   0.17638   0.23559   0.00000  Uiso   1.00
C62    C     0.34078   0.15762   0.26401   0.00000  Uiso   1.00
C63    C     0.51380   0.32252   0.23630   0.00000  Uiso   1.00
C64    C     0.48537   0.01179   0.26392   0.00000  Uiso   1.00
C65    C     0.48957   0.05592   0.26015   0.00000  Uiso   1.00
C66    C     0.50994   0.27793   0.24012   0.00000  Uiso   1.00
C67    C     0.40987   0.18180   0.48514   0.00000  Uiso   1.00
C68    C     0.51892   0.14825   0.12953   0.00000  Uiso   1.00
C69    C     0.48225   0.18499   0.37073   0.00000  Uiso   1.00
C70    C     0.57776   0.13537   0.01080   0.00000  Uiso   1.00
C71    C     0.52612   0.14356   0.08151   0.00000  Uiso   1.00
C72    C     0.42661   0.19137   0.44116   0.00000  Uiso   1.00
C73    C     0.43617   0.16959   0.00868   0.00000  Uiso   1.00
C74    C     0.48098   0.17057   0.49020   0.00000  Uiso   1.00
C75    C     0.49775   0.17896   0.44458   0.00000  Uiso   1.00
C76    C     0.50917   0.16027   0.01438   0.00000  Uiso   1.00
C77    C     0.55112   0.15154   0.49010   0.00000  Uiso   1.00
C78    C     0.56719   0.16111   0.44588   0.00000  Uiso   1.00
C79    C     0.54174   0.17716   0.42439   0.00000  Uiso   1.00
H80    H     0.58632   0.11907   0.07197   0.00000  Uiso   1.00
H81    H     0.55692   0.18713   0.39132   0.00000  Uiso   1.00
H82    H     0.34929   0.19352   0.20919   0.00000  Uiso   1.00
H83    H     0.43824   0.16387   0.10246   0.00000  Uiso   1.00
H84    H     0.46192   0.20891   0.07566   0.00000  Uiso   1.00
H85    H     0.65224   0.14074   0.29095   0.00000  Uiso   1.00
H86    H     0.54002   0.00375   0.21085   0.00000  Uiso   1.00
H87    H     0.45887   0.33136   0.28959   0.00000  Uiso   1.00
H88    H     0.60014   0.15739   0.42817   0.00000  Uiso   1.00
H89    H     0.60927   0.12773   0.49214   0.00000  Uiso   1.00
H90    H     0.40474   0.19802   0.42277   0.00000  Uiso   1.00
H91    H     0.42028   0.15770   0.04051   0.00000  Uiso   1.00
H92    H     0.37578   0.18165   0.00034   0.00000  Uiso   1.00
N93    N     0.46667   0.18347   0.09076   0.00000  Uiso   1.00
O94    O     0.50000   0.16667   0.25000   0.00000  Uiso   1.00
O95    O     0.48784   0.12637   0.15458   0.00000  Uiso   1.00
O96    O     0.46274   0.20391   0.34968   0.00000  Uiso   1.00
O97    O     0.54157   0.17759   0.14606   0.00000  Uiso   1.00
O98    O     0.50785   0.15880   0.34968   0.00000  Uiso   1.00
O99    O     0.51264   0.08019   0.28213   0.00000  Uiso   1.00
O100   O     0.47965   0.26085   0.27013   0.00000  Uiso   1.00
O101   O     0.40745   0.13291   0.23413   0.00000  Uiso   1.00
O102   O     0.60026   0.19272   0.21360   0.00000  Uiso   1.00
O103   O     0.40405   0.18878   0.28213   0.00000  Uiso   1.00
O104   O     0.58824   0.15226   0.27013   0.00000  Uiso   1.00
O105   O     0.47093   0.06944   0.23413   0.00000  Uiso   1.00
O106   O     0.53678   0.25620   0.21360   0.00000  Uiso   1.00
Zn107  Zn    0.52672   0.13994   0.28734   0.00000  Uiso   1.00
Zn108  Zn    0.46713   0.12458   0.21875   0.00000  Uiso   1.00
Zn109  Zn    0.54389   0.19775   0.20657   0.00000  Uiso   1.00
Zn110  Zn    0.46226   0.20439   0.28733   0.00000  Uiso   1.00
C111   C     0.71945   0.15982   0.25994   0.00000  Uiso   1.00
C112   C     0.83195   0.15980   0.06170   0.00000  Uiso   1.00
C113   C     0.89808   0.13035   0.05609   0.00000  Uiso   1.00
C114   C     0.94748   0.17383   0.23993   0.00000  Uiso   1.00
C115   C     0.80313   0.18767   0.41975   0.00000  Uiso   1.00
C116   C     0.99344   0.17638   0.23559   0.00000  Uiso   1.00
C117   C     0.67412   0.15762   0.26401   0.00000  Uiso   1.00
C118   C     0.84713   0.32252   0.23630   0.00000  Uiso   1.00
C119   C     0.81870   0.01179   0.26392   0.00000  Uiso   1.00
C120   C     0.82290   0.05592   0.26015   0.00000  Uiso   1.00
C121   C     0.84327   0.27793   0.24012   0.00000  Uiso   1.00
C122   C     0.74321   0.18180   0.48514   0.00000  Uiso   1.00
C123   C     0.85225   0.14825   0.12953   0.00000  Uiso   1.00
C124   C     0.81558   0.18499   0.37073   0.00000  Uiso   1.00
C125   C     0.91110   0.13537   0.01080   0.00000  Uiso   1.00
C126   C     0.85945   0.14356   0.08151   0.00000  Uiso   1.00
C127   C     0.75994   0.19137   0.44116   0.00000  Uiso   1.00
C128   C     0.76951   0.16959   0.00868   0.00000  Uiso   1.00
C129   C     0.81431   0.17057   0.49020   0.00000  Uiso   1.00
C130   C     0.83108   0.17896   0.44458   0.00000  Uiso   1.00
C131   C     0.84250   0.16027   0.01438   0.00000  Uiso   1.00
C132   C     0.88445   0.15154   0.49010   0.00000  Uiso   1.00
C133   C     0.90052   0.16111   0.44588   0.00000  Uiso   1.00
C134   C     0.87508   0.17716   0.42439   0.00000  Uiso   1.00
H135   H     0.91965   0.11907   0.07197   0.00000  Uiso   1.00
H136   H     0.89025   0.18713   0.39132   0.00000  Uiso   1.00
H137   H     0.68262   0.19352   0.20919   0.00000  Uiso   1.00
H138   H     0.77158   0.16387   0.10246   0.00000  Uiso   1.00
H139   H     0.79525   0.20891   0.07566   0.00000  Uiso   1.00
H140   H     0.98558   0.14074   0.29095   0.00000  Uiso   1.00
H141   H     0.87336   0.00375   0.21085   0.00000  Uiso   1.00
H142   H     0.79221   0.33136   0.28959   0.00000  Uiso   1.00
H143   H     0.93348   0.15739   0.42817   0.00000  Uiso   1.00
H144   H     0.94260   0.12773   0.49214   0.00000  Uiso   1.00
H145   H     0.73807   0.19802   0.42277   0.00000  Uiso   1.00
H146   H     0.75361   0.15770   0.04051   0.00000  Uiso   1.00
H147   H     0.70912   0.18165   0.00034   0.00000  Uiso   1.00
N148   N     0.80001   0.18347   0.09076   0.00000  Uiso   1.00
O149   O     0.83333   0.16667   0.25000   0.00000  Uiso   1.00
O150   O     0.82118   0.12637   0.15458   0.00000  Uiso   1.00
O151   O     0.79607   0.20391   0.34968   0.00000  Uiso   1.00
O152   O     0.87491   0.17759   0.14606   0.00000  Uiso   1.00
O153   O     0.84118   0.15880   0.34968   0.00000  Uiso   1.00
O154   O     0.84597   0.08019   0.28213   0.00000  Uiso   1.00
O155   O     0.81298   0.26085   0.27013   0.00000  Uiso   1.00
O156   O     0.74078   0.13291   0.23413   0.00000  Uiso   1.00
O157   O     0.93360   0.19272   0.21360   0.00000  Uiso   1.00
O158   O     0.73738   0.18878   0.28213   0.00000  Uiso   1.00
O159   O     0.92158   0.15226   0.27013   0.00000  Uiso   1.00
O160   O     0.80426   0.06944   0.23413   0.00000  Uiso   1.00
O161   O     0.87012   0.25620   0.21360   0.00000  Uiso   1.00
Zn162  Zn    0.86005   0.13994   0.28734   0.00000  Uiso   1.00
Zn163  Zn    0.80046   0.12458   0.21875   0.00000  Uiso   1.00
Zn164  Zn    0.87723   0.19775   0.20657   0.00000  Uiso   1.00
Zn165  Zn    0.79560   0.20439   0.28733   0.00000  Uiso   1.00
C166   C     0.05279   0.49315   0.25994   0.00000  Uiso   1.00
C167   C     0.16528   0.49313   0.06170   0.00000  Uiso   1.00
C168   C     0.23141   0.46368   0.05609   0.00000  Uiso   1.00
C169   C     0.28082   0.50716   0.23993   0.00000  Uiso   1.00
C170   C     0.13647   0.52100   0.41975   0.00000  Uiso   1.00
C171   C     0.32677   0.50971   0.23559   0.00000  Uiso   1.00
C172   C     0.00745   0.49095   0.26401   0.00000  Uiso   1.00
C173   C     0.18047   0.65586   0.23630   0.00000  Uiso   1.00
C174   C     0.15204   0.34512   0.26392   0.00000  Uiso   1.00
C175   C     0.15623   0.38925   0.26015   0.00000  Uiso   1.00
C176   C     0.17661   0.61127   0.24012   0.00000  Uiso   1.00
C177   C     0.07654   0.51514   0.48514   0.00000  Uiso   1.00
C178   C     0.18558   0.48158   0.12953   0.00000  Uiso   1.00
C179   C     0.14891   0.51832   0.37073   0.00000  Uiso   1.00
C180   C     0.24443   0.46871   0.01080   0.00000  Uiso   1.00
C181   C     0.19279   0.47689   0.08151   0.00000  Uiso   1.00
C182   C     0.09327   0.52470   0.44116   0.00000  Uiso   1.00
C183   C     0.10284   0.50292   0.00868   0.00000  Uiso   1.00
C184   C     0.14765   0.50390   0.49020   0.00000  Uiso   1.00
C185   C     0.16441   0.51230   0.44458   0.00000  Uiso   1.00
C186   C     0.17583   0.49361   0.01438   0.00000  Uiso   1.00
C187   C     0.21779   0.48487   0.49010   0.00000  Uiso   1.00
C188   C     0.23386   0.49444   0.44588   0.00000  Uiso   1.00
C189   C     0.20841   0.51050   0.42439   0.00000  Uiso   1.00
H190   H     0.25298   0.45240   0.07197   0.00000  Uiso   1.00
H191   H     0.22359   0.52046   0.39132   0.00000  Uiso   1.00
H192   H     0.01595   0.52685   0.20919   0.00000  Uiso   1.00
H193   H     0.10491   0.49720   0.10246   0.00000  Uiso   1.00
H194   H     0.12859   0.54224   0.07566   0.00000  Uiso   1.00
H195   H     0.31891   0.47407   0.29095   0.00000  Uiso   1.00
H196   H     0.20669   0.33708   0.21085   0.00000  Uiso   1.00
H197   H     0.12554   0.66469   0.28959   0.00000  Uiso   1.00
H198   H     0.26681   0.49072   0.42817   0.00000  Uiso   1.00
H199   H     0.27594   0.46107   0.49214   0.00000  Uiso   1.00
H200   H     0.07141   0.53135   0.42277   0.00000  Uiso   1.00
H201   H     0.08695   0.49103   0.04051   0.00000  Uiso   1.00
H202   H     0.04245   0.51498   0.00034   0.00000  Uiso   1.00
N203   N     0.13334   0.51680   0.09076   0.00000  Uiso   1.00
O204   O     0.16667   0.50000   0.25000   0.00000  Uiso   1.00
O205   O     0.15451   0.45970   0.15458   0.00000  Uiso   1.00
O206   O     0.12940   0.53724   0.34968   0.00000  Uiso   1.00
O207   O     0.20824   0.51092   0.14606   0.00000  Uiso   1.00
O208   O     0.17451   0.49213   0.34968   0.00000  Uiso   1.00
O209   O     0.17930   0.41352   0.28213   0.00000  Uiso   1.00
O210   O     0.14632   0.59418   0.27013   0.00000  Uiso   1.00
O211   O     0.07412   0.46625   0.23413   0.00000  Uiso   1.00
O212   O     0.26693   0.52605   0.21360   0.00000  Uiso   1.00
O213   O     0.07071   0.52211   0.28213   0.00000  Uiso   1.00
O214   O     0.25491   0.48559   0.27013   0.00000  Uiso   1.00
O215   O     0.13760   0.40277   0.23413   0.00000  Uiso   1.00
O216   O     0.20345   0.58953   0.21360   0.00000  Uiso   1.00
Zn217  Zn    0.19338   0.47327   0.28734   0.00000  Uiso   1.00
Zn218  Zn    0.13379   0.45791   0.21875   0.00000  Uiso   1.00
Zn219  Zn    0.21056   0.53109   0.20657   0.00000  Uiso   1.00
Zn220  Zn    0.12893   0.53773   0.28733   0.00000  Uiso   1.00
C221   C     0.38612   0.49315   0.25994   0.00000  Uiso   1.00
C222   C     0.49862   0.49313   0.06170   0.00000  Uiso   1.00
C223   C     0.56475   0.46368   0.05609   0.00000  Uiso   1.00
C224   C     0.61415   0.50716   0.23993   0.00000  Uiso   1.00
C225   C     0.46980   0.52100   0.41975   0.00000  Uiso   1.00
C226   C     0.66011   0.50971   0.23559   0.00000  Uiso   1.00
C227   C     0.34078   0.49095   0.26401   0.00000  Uiso   1.00
C228   C     0.51380   0.65586   0.23630   0.00000  Uiso   1.00
C229   C     0.48537   0.34512   0.26392   0.00000  Uiso   1.00
C230   C     0.48957   0.38925   0.26015   0.00000  Uiso   1.00
C231   C     0.50994   0.61127   0.24012   0.00000  Uiso   1.00
C232   C     0.40987   0.51514   0.48514   0.00000  Uiso   1.00
C233   C     0.51892   0.48158   0.12953   0.00000  Uiso   1.00
C234   C     0.48225   0.51832   0.37073   0.00000  Uiso   1.00
C235   C     0.57776   0.46871   0.01080   0.00000  Uiso   1.00
C236   C     0.52612   0.47689   0.08151   0.00000  Uiso   1.00
C237   C     0.42661   0.52470   0.44116   0.00000  Uiso   1.00
C238   C     0.43617   0.50292   0.00868   0.00000  Uiso   1.00
C239   C     0.48098   0.50390   0.49020   0.00000  Uiso   1.00
C240   C     0.49775   0.51230   0.44458   0.00000  Uiso   1.00
C241   C     0.50917   0.49361   0.01438   0.00000  Uiso   1.00
C242   C     0.55112   0.48487   0.49010   0.00000  Uiso   1.00
C243   C     0.56719   0.49444   0.44588   0.00000  Uiso   1.00
C244   C     0.54174   0.51050   0.42439   0.00000  Uiso   1.00
H245   H     0.58632   0.45240   0.07197   0.00000  Uiso   1.00
H246   H     0.55692   0.52046   0.39132   0.00000  Uiso   1.00
H247   H     0.34929   0.52685   0.20919   0.00000  Uiso   1.00
H248   H     0.43824   0.49720   0.10246   0.00000  Uiso   1.00
H249   H     0.46192   0.54224   0.07566   0.00000  Uiso   1.00
H250   H     0.65224   0.47407   0.29095   0.00000  Uiso   1.00
H251   H     0.54002   0.33708   0.21085   0.00000  Uiso   1.00
H252   H     0.45887   0.66469   0.28959   0.00000  Uiso   1.00
H253   H     0.60014   0.49072   0.42817   0.00000  Uiso   1.00
H254   H     0.60927   0.46107   0.49214   0.00000  Uiso   1.00
H255   H     0.40474   0.53135   0.42277   0.00000  Uiso   1.00
H256   H     0.42028   0.49103   0.04051   0.00000  Uiso   1.00
H257   H     0.37578   0.51498   0.00034   0.00000  Uiso   1.00
N258   N     0.46667   0.51680   0.09076   0.00000  Uiso   1.00
O259   O     0.50000   0.50000   0.25000   0.00000  Uiso   1.00
O260   O     0.48784   0.45970   0.15458   0.00000  Uiso   1.00
O261   O     0.46274   0.53724   0.34968   0.00000  Uiso   1.00
O262   O     0.54157   0.51092   0.14606   0.00000  Uiso   1.00
O263   O     0.50785   0.49213   0.34968   0.00000  Uiso   1.00
O264   O     0.51264   0.41352   0.28213   0.00000  Uiso   1.00
O265   O     0.47965   0.59418   0.27013   0.00000  Uiso   1.00
O266   O     0.40745   0.46625   0.23413   0.00000  Uiso   1.00
O267   O     0.60026   0.52605   0.21360   0.00000  Uiso   1.00
O268   O     0.40405   0.52211   0.28213   0.00000  Uiso   1.00
O269   O     0.58824   0.48559   0.27013   0.00000  Uiso   1.00
O270   O     0.47093   0.40277   0.23413   0.00000  Uiso   1.00
O271   O     0.53678   0.58953   0.21360   0.00000  Uiso   1.00
Zn272  Zn    0.52672   0.47327   0.28734   0.00000  Uiso   1.00
Zn273  Zn    0.46713   0.45791   0.21875   0.00000  Uiso   1.00
Zn274  Zn    0.54389   0.53109   0.20657   0.00000  Uiso   1.00
Zn275  Zn    0.46226   0.53773   0.28733   0.00000  Uiso   1.00
C276   C     0.71945   0.49315   0.25994   0.00000  Uiso   1.00
C277   C     0.83195   0.49313   0.06170   0.00000  Uiso   1.00
C278   C     0.89808   0.46368   0.05609   0.00000  Uiso   1.00
C279   C     0.94748   0.50716   0.23993   0.00000  Uiso   1.00
C280   C     0.80313   0.52100   0.41975   0.00000  Uiso   1.00
C281   C     0.99344   0.50971   0.23559   0.00000  Uiso   1.00
C282   C     0.67412   0.49095   0.26401   0.00000  Uiso   1.00
C283   C     0.84713   0.65586   0.23630   0.00000  Uiso   1.00
C284   C     0.81870   0.34512   0.26392   0.00000  Uiso   1.00
C285   C     0.82290   0.38925   0.26015   0.00000  Uiso   1.00
C286   C     0.84327   0.61127   0.24012   0.00000  Uiso   1.00
C287   C     0.74321   0.51514   0.48514   0.00000  Uiso   1.00
C288   C     0.85225   0.48158   0.12953   0.00000  Uiso   1.00
C289   C     0.81558   0.51832   0.37073   0.00000  Uiso   1.00
C290   C     0.91110   0.46871   0.01080   0.00000  Uiso   1.00
C291   C     0.85945   0.47689   0.08151   0.00000  Uiso   1.00
C292   C     0.75994   0.52470   0.44116   0.00000  Uiso   1.00
C293   C     0.76951   0.50292   0.00868   0.00000  Uiso   1.00
C294   C     0.81431   0.50390   0.49020   0.00000  Uiso   1.00
C295   C     0.83108   0.51230   0.44458   0.00000  Uiso   1.00
C296   C     0.84250   0.49361   0.01438   0.00000  Uiso   1.00
C297   C     0.88445   0.48487   0.49010   0.00000  Uiso   1.00
C298   C     0.90052   0.49444   0.44588   0.00000  Uiso   1.00
C299   C     0.87508   0.51050   0.42439   0.00000  Uiso   1.00
H300   H     0.91965   0.45240   0.07197   0.00000  Uiso   1.00
H301   H     0.89025   0.52046   0.39132   0.00000  Uiso   1.00
H302   H     0.68262   0.52685   0.20919   0.00000  Uiso   1.00
H303   H     0.77158   0.49720   0.10246   0.00000  Uiso   1.00
H304   H     0.79525   0.54224   0.07566   0.00000  Uiso   1.00
H305   H     0.98558   0.47407   0.29095   0.00000  Uiso   1.00
H306   H     0.87336   0.33708   0.21085   0.00000  Uiso   1.00
H307   H     0.79221   0.66469   0.28959   0.00000  Uiso   1.00
H308   H     0.93348   0.49072   0.42817   0.00000  Uiso   1.00
H309   H     0.94260   0.46107   0.49214   0.00000  Uiso   1.00
H310   H     0.73807   0.53135   0.42277   0.00000  Uiso   1.00
H311   H     0.75361   0.49103   0.04051   0.00000  Uiso   1.00
H312   H     0.70912   0.51498   0.00034   0.00000  Uiso   1.00
N313   N     0.80001   0.51680   0.09076   0.00000  Uiso   1.00
O314   O     0.83333   0.50000   0.25000   0.00000  Uiso   1.00
O315   O     0.82118   0.45970   0.15458   0.00000  Uiso   1.00
O316   O     0.79607   0.53724   0.34968   0.00000  Uiso   1.00
O317   O     0.87491   0.51092   0.14606   0.00000  Uiso   1.00
O318   O     0.84118   0.49213   0.34968   0.00000  Uiso   1.00
O319   O     0.84597   0.41352   0.28213   0.00000  Uiso   1.00
O320   O     0.81298   0.59418   0.27013   0.00000  Uiso   1.00
O321   O     0.74078   0.46625   0.23413   0.00000  Uiso   1.00
O322   O     0.93360   0.52605   0.21360   0.00000  Uiso   1.00
O323   O     0.73738   0.52211   0.28213   0.00000  Uiso   1.00
O324   O     0.92158   0.48559   0.27013   0.00000  Uiso   1.00
O325   O     0.80426   0.40277   0.23413   0.00000  Uiso   1.00
O326   O     0.87012   0.58953   0.21360   0.00000  Uiso   1.00
Zn327  Zn    0.86005   0.47327   0.28734   0.00000  Uiso   1.00
Zn328  Zn    0.80046   0.45791   0.21875   0.00000  Uiso   1.00
Zn329  Zn    0.87723   0.53109   0.20657   0.00000  Uiso   1.00
Zn330  Zn    0.79560   0.53773   0.28733   0.00000  Uiso   1.00
C331   C     0.05279   0.82648   0.25994   0.00000  Uiso   1.00
C332   C     0.16528   0.82647   0.06170   0.00000  Uiso   1.00
C333   C     0.23141   0.79702   0.05609   0.00000  Uiso   1.00
C334   C     0.28082   0.84050   0.23993   0.00000  Uiso   1.00
C335   C     0.13647   0.85434   0.41975   0.00000  Uiso   1.00
C336   C     0.32677   0.84305   0.23559   0.00000  Uiso   1.00
C337   C     0.00745   0.82429   0.26401   0.00000  Uiso   1.00
C338   C     0.18047   0.98919   0.23630   0.00000  Uiso   1.00
C339   C     0.15204   0.67846   0.26392   0.00000  Uiso   1.00
C340   C     0.15623   0.72259   0.26015   0.00000  Uiso   1.00
C341   C     0.17661   0.94460   0.24012   0.00000  Uiso   1.00
C342   C     0.07654   0.84847   0.48514   0.00000  Uiso   1.00
C343   C     0.18558   0.81491   0.12953   0.00000  Uiso   1.00
C344   C     0.14891   0.85166   0.37073   0.00000  Uiso   1.00
C345   C     0.24443   0.80204   0.01080   0.00000  Uiso   1.00
C346   C     0.19279   0.81022   0.08151   0.00000  Uiso   1.00
C347   C     0.09327   0.85803   0.44116   0.00000  Uiso   1.00
C348   C     0.10284   0.83626   0.00868   0.00000  Uiso   1.00
C349   C     0.14765   0.83723   0.49020   0.00000  Uiso   1.00
C350   C     0.16441   0.84563   0.44458   0.00000  Uiso   1.00
C351   C     0.17583   0.82694   0.01438   0.00000  Uiso   1.00
C352   C     0.21779   0.81820   0.49010   0.00000  Uiso   1.00
C353   C     0.23386   0.82777   0.44588   0.00000  Uiso   1.00
C354   C     0.20841   0.84383   0.42439   0.00000  Uiso   1.00
H355   H     0.25298   0.78573   0.07197   0.00000  Uiso   1.00
H356   H     0.22359   0.85379   0.39132   0.00000  Uiso   1.00
H357   H     0.01595   0.86019   0.20919   0.00000  Uiso   1.00
H358   H     0.10491   0.83053   0.10246   0.00000  Uiso   1.00
H359   H     0.12859   0.87558   0.07566   0.00000  Uiso   1.00
H360   H     0.31891   0.80740   0.29095   0.00000  Uiso   1.00
H361   H     0.20669   0.67041   0.21085   0.00000  Uiso   1.00
H362   H     0.12554   0.99802   0.28959   0.00000  Uiso   1.00
H363   H     0.26681   0.82405   0.42817   0.00000  Uiso   1.00
H364   H     0.27594   0.79440   0.49214   0.00000  Uiso   1.00
H365   H     0.07141   0.86469   0.42277   0.00000  Uiso   1.00
H366   H     0.08695   0.82437   0.04051   0.00000  Uiso   1.00
H367   H     0.04245   0.84831   0.00034   0.00000  Uiso   1.00
N368   N     0.13334   0.85014   0.09076   0.00000  Uiso   1.00
O369   O     0.16667   0.83333   0.25000   0.00000  Uiso   1.00
O370   O     0.15451   0.79304   0.15458   0.00000  Uiso   1.00
O371   O     0.12940   0.87058   0.34968   0.00000  Uiso   1.00
O372   O     0.20824   0.84425   0.14606   0.00000  Uiso   1.00
O373   O     0.17451   0.82546   0.34968   0.00000  Uiso   1.00
O374   O     0.17930   0.74686   0.28213   0.00000  Uiso   1.00
O375   O     0.14632   0.92751   0.27013   0.00000  Uiso   1.00
O376   O     0.07412   0.79958   0.23413   0.00000  Uiso   1.00
O377   O     0.26693   0.85939   0.21360   0.00000  Uiso   1.00
O378   O     0.07071   0.85544   0.28213   0.00000  Uiso   1.00
O379   O     0.25491   0.81892   0.27013   0.00000  Uiso   1.00
O380   O     0.13760   0.73610   0.23413   0.00000  Uiso   1.00
O381   O     0.20345   0.92286   0.21360   0.00000  Uiso   1.00
Zn382  Zn    0.19338   0.80661   0.28734   0.00000  Uiso   1.00
Zn383  Zn    0.13379   0.79124   0.21875   0.00000  Uiso   1.00
Zn384  Zn    0.21056   0.86442   0.20657   0.00000  Uiso   1.00
Zn385  Zn    0.12893   0.87106   0.28733   0.00000  Uiso   1.00
C386   C     0.38612   0.82648   0.25994   0.00000  Uiso   1.00
C387   C     0.49862   0.82647   0.06170   0.00000  Uiso   1.00
C388   C     0.56475   0.79702   0.05609   0.00000  Uiso   1.00
C389   C     0.61415   0.84050   0.23993   0.00000  Uiso   1.00
C390   C     0.46980   0.85434   0.41975   0.00000  Uiso   1.00
C391   C     0.66011   0.84305   0.23559   0.00000  Uiso   1.00
C392   C     0.34078   0.82429   0.26401   0.00000  Uiso   1.00
C393   C     0.51380   0.98919   0.23630   0.00000  Uiso   1.00
C394   C     0.48537   0.67846   0.26392   0.00000  Uiso   1.00
C395   C     0.48957   0.72259   0.26015   0.00000  Uiso   1.00
C396   C     0.50994   0.94460   0.24012   0.00000  Uiso   1.00
C397   C     0.40987   0.84847   0.48514   0.00000  Uiso   1.00
C398   C     0.51892   0.81491   0.12953   0.00000  Uiso   1.00
C399   C     0.48225   0.85166   0.37073   0.00000  Uiso   1.00
C400   C     0.57776   0.80204   0.01080   0.00000  Uiso   1.00
C401   C     0.52612   0.81022   0.08151   0.00000  Uiso   1.00
C402   C     0.42661   0.85803   0.44116   0.00000  Uiso   1.00
C403   C     0.43617   0.83626   0.00868   0.00000  Uiso   1.00
C404   C     0.48098   0.83723   0.49020   0.00000  Uiso   1.00
C405   C     0.49775   0.84563   0.44458   0.00000  Uiso   1.00
C406   C     0.50917   0.82694   0.01438   0.00000  Uiso   1.00
C407   C     0.55112   0.81820   0.49010   0.00000  Uiso   1.00
C408   C     0.56719   0.82777   0.44588   0.00000  Uiso   1.00
C409   C     0.54174   0.84383   0.42439   0.00000  Uiso   1.00
H410   H     0.58632   0.78573   0.07197   0.00000  Uiso   1.00
H411   H     0.55692   0.85379   0.39132   0.00000  Uiso   1.00
H412   H     0.34929   0.86019   0.20919   0.00000  Uiso   1.00
H413   H     0.43824   0.83053   0.10246   0.00000  Uiso   1.00
H414   H     0.46192   0.87558   0.07566   0.00000  Uiso   1.00
H415   H     0.65224   0.80740   0.29095   0.00000  Uiso   1.00
H416   H     0.54002   0.67041   0.21085   0.00000  Uiso   1.00
H417   H     0.45887   0.99802   0.28959   0.00000  Uiso   1.00
H418   H     0.60014   0.82405   0.42817   0.00000  Uiso   1.00
H419   H     0.60927   0.79440   0.49214   0.00000  Uiso   1.00
H420   H     0.40474   0.86469   0.42277   0.00000  Uiso   1.00
H421   H     0.42028   0.82437   0.04051   0.00000  Uiso   1.00
H422   H     0.37578   0.84831   0.00034   0.00000  Uiso   1.00
N423   N     0.46667   0.85014   0.09076   0.00000  Uiso   1.00
O424   O     0.50000   0.83333   0.25000   0.00000  Uiso   1.00
O425   O     0.48784   0.79304   0.15458   0.00000  Uiso   1.00
O426   O     0.46274   0.87058   0.34968   0.00000  Uiso   1.00
O427   O     0.54157   0.84425   0.14606   0.00000  Uiso   1.00
O428   O     0.50785   0.82546   0.34968   0.00000  Uiso   1.00
O429   O     0.51264   0.74686   0.28213   0.00000  Uiso   1.00
O430   O     0.47965   0.92751   0.27013   0.00000  Uiso   1.00
O431   O     0.40745   0.79958   0.23413   0.00000  Uiso   1.00
O432   O     0.60026   0.85939   0.21360   0.00000  Uiso   1.00
O433   O     0.40405   0.85544   0.28213   0.00000  Uiso   1.00
O434   O     0.58824   0.81892   0.27013   0.00000  Uiso   1.00
O435   O     0.47093   0.73610   0.23413   0.00000  Uiso   1.00
O436   O     0.53678   0.92286   0.21360   0.00000  Uiso   1.00
Zn437  Zn    0.52672   0.80661   0.28734   0.00000  Uiso   1.00
Zn438  Zn    0.46713   0.79124   0.21875   0.00000  Uiso   1.00
Zn439  Zn    0.54389   0.86442   0.20657   0.00000  Uiso   1.00
Zn440  Zn    0.46226   0.87106   0.28733   0.00000  Uiso   1.00
C441   C     0.71945   0.82648   0.25994   0.00000  Uiso   1.00
C442   C     0.83195   0.82647   0.06170   0.00000  Uiso   1.00
C443   C     0.89808   0.79702   0.05609   0.00000  Uiso   1.00
C444   C     0.94748   0.84050   0.23993   0.00000  Uiso   1.00
C445   C     0.80313   0.85434   0.41975   0.00000  Uiso   1.00
C446   C     0.99344   0.84305   0.23559   0.00000  Uiso   1.00
C447   C     0.67412   0.82429   0.26401   0.00000  Uiso   1.00
C448   C     0.84713   0.98919   0.23630   0.00000  Uiso   1.00
C449   C     0.81870   0.67846   0.26392   0.00000  Uiso   1.00
C450   C     0.82290   0.72259   0.26015   0.00000  Uiso   1.00
C451   C     0.84327   0.94460   0.24012   0.00000  Uiso   1.00
C452   C     0.74321   0.84847   0.48514   0.00000  Uiso   1.00
C453   C     0.85225   0.81491   0.12953   0.00000  Uiso   1.00
C454   C     0.81558   0.85166   0.37073   0.00000  Uiso   1.00
C455   C     0.91110   0.80204   0.01080   0.00000  Uiso   1.00
C456   C     0.85945   0.81022   0.08151   0.00000  Uiso   1.00
C457   C     0.75994   0.85803   0.44116   0.00000  Uiso   1.00
C458   C     0.76951   0.83626   0.00868   0.00000  Uiso   1.00
C459   C     0.81431   0.83723   0.49020   0.00000  Uiso   1.00
C460   C     0.83108   0.84563   0.44458   0.00000  Uiso   1.00
C461   C     0.84250   0.82694   0.01438   0.00000  Uiso   1.00
C462   C     0.88445   0.81820   0.49010   0.00000  Uiso   1.00
C463   C     0.90052   0.82777   0.44588   0.00000  Uiso   1.00
C464   C     0.87508   0.84383   0.42439   0.00000  Uiso   1.00
H465   H     0.91965   0.78573   0.07197   0.00000  Uiso   1.00
H466   H     0.89025   0.85379   0.39132   0.00000  Uiso   1.00
H467   H     0.68262   0.86019   0.20919   0.00000  Uiso   1.00
H468   H     0.77158   0.83053   0.10246   0.00000  Uiso   1.00
H469   H     0.79525   0.87558   0.07566   0.00000  Uiso   1.00
H470   H     0.98558   0.80740   0.29095   0.00000  Uiso   1.00
H471   H     0.87336   0.67041   0.21085   0.00000  Uiso   1.00
H472   H     0.79221   0.99802   0.28959   0.00000  Uiso   1.00
H473   H     0.93348   0.82405   0.42817   0.00000  Uiso   1.00
H474   H     0.94260   0.79440   0.49214   0.00000  Uiso   1.00
H475   H     0.73807   0.86469   0.42277   0.00000  Uiso   1.00
H476   H     0.75361   0.82437   0.04051   0.00000  Uiso   1.00
H477   H     0.70912   0.84831   0.00034   0.00000  Uiso   1.00
N478   N     0.80001   0.85014   0.09076   0.00000  Uiso   1.00
O479   O     0.83333   0.83333   0.25000   0.00000  Uiso   1.00
O480   O     0.82118   0.79304   0.15458   0.00000  Uiso   1.00
O481   O     0.79607   0.87058   0.34968   0.00000  Uiso   1.00
O482   O     0.87491   0.84425   0.14606   0.00000  Uiso   1.00
O483   O     0.84118   0.82546   0.34968   0.00000  Uiso   1.00
O484   O     0.84597   0.74686   0.28213   0.00000  Uiso   1.00
O485   O     0.81298   0.92751   0.27013   0.00000  Uiso   1.00
O486   O     0.74078   0.79958   0.23413   0.00000  Uiso   1.00
O487   O     0.93360   0.85939   0.21360   0.00000  Uiso   1.00
O488   O     0.73738   0.85544   0.28213   0.00000  Uiso   1.00
O489   O     0.92158   0.81892   0.27013   0.00000  Uiso   1.00
O490   O     0.80426   0.73610   0.23413   0.00000  Uiso   1.00
O491   O     0.87012   0.92286   0.21360   0.00000  Uiso   1.00
Zn492  Zn    0.86005   0.80661   0.28734   0.00000  Uiso   1.00
Zn493  Zn    0.80046   0.79124   0.21875   0.00000  Uiso   1.00
Zn494  Zn    0.87723   0.86442   0.20657   0.00000  Uiso   1.00
Zn495  Zn    0.79560   0.87106   0.28733   0.00000  Uiso   1.00
C496   C     0.05279   0.15982   0.75994   0.00000  Uiso   1.00
C497   C     0.16528   0.15980   0.56170   0.00000  Uiso   1.00
C498   C     0.23141   0.13035   0.55609   0.00000  Uiso   1.00
C499   C     0.28082   0.17383   0.73993   0.00000  Uiso   1.00
C500   C     0.13647   0.18767   0.91975   0.00000  Uiso   1.00
C501   C     0.32677   0.17638   0.73559   0.00000  Uiso   1.00
C502   C     0.00745   0.15762   0.76401   0.00000  Uiso   1.00
C503   C     0.18047   0.32252   0.73630   0.00000  Uiso   1.00
C504   C     0.15204   0.01179   0.76392   0.00000  Uiso   1.00
C505   C     0.15623   0.05592   0.76015   0.00000  Uiso   1.00
C506   C     0.17661   0.27793   0.74012   0.00000  Uiso   1.00
C507   C     0.07654   0.18180   0.98514   0.00000  Uiso   1.00
C508   C     0.18558   0.14825   0.62953   0.00000  Uiso   1.00
C509   C     0.14891   0.18499   0.87073   0.00000  Uiso   1.00
C510   C     0.24443   0.13537   0.51080   0.00000  Uiso   1.00
C511   C     0.19279   0.14356   0.58151   0.00000  Uiso   1.00
C512   C     0.09327   0.19137   0.94116   0.00000  Uiso   1.00
C513   C     0.10284   0.16959   0.50868   0.00000  Uiso   1.00
C514   C     0.14765   0.17057   0.99020   0.00000  Uiso   1.00
C515   C     0.16441   0.17896   0.94458   0.00000  Uiso   1.00
C516   C     0.17583   0.16027   0.51438   0.00000  Uiso   1.00
C517   C     0.21779   0.15154   0.99010   0.00000  Uiso   1.00
C518   C     0.23386   0.16111   0.94588   0.00000  Uiso   1.00
C519   C     0.20841   0.17716   0.92439   0.00000  Uiso   1.00
H520   H     0.25298   0.11907   0.57197   0.00000  Uiso   1.00
H521   H     0.22359   0.18713   0.89132   0.00000  Uiso   1.00
H522   H     0.01595   0.19352   0.70919   0.00000  Uiso   1.00
H523   H     0.10491   0.16387   0.60246   0.00000  Uiso   1.00
H524   H     0.12859   0.20891   0.57566   0.00000  Uiso   1.00
H525   H     0.31891   0.14074   0.79095   0.00000  Uiso   1.00
H526   H     0.20669   0.00375   0.71085   0.00000  Uiso   1.00
H527   H     0.12554   0.33136   0.78959   0.00000  Uiso   1.00
H528   H     0.26681   0.15739   0.92817   0.00000  Uiso   1.00
H529   H     0.27594   0.12773   0.99214   0.00000  Uiso   1.00
H530   H     0.07141   0.19802   0.92277   0.00000  Uiso   1.00
H531   H     0.08695   0.15770   0.54051   0.00000  Uiso   1.00
H532   H     0.04245   0.18165   0.50034   0.00000  Uiso   1.00
N533   N     0.13334   0.18347   0.59076   0.00000  Uiso   1.00
O534   O     0.16667   0.16667   0.75000   0.00000  Uiso   1.00
O535   O     0.15451   0.12637   0.65458   0.00000  Uiso   1.00
O536   O     0.12940   0.20391   0.84968   0.00000  Uiso   1.00
O537   O     0.20824   0.17759   0.64606   0.00000  Uiso   1.00
O538   O     0.17451   0.15880   0.84968   0.00000  Uiso   1.00
O539   O     0.17930   0.08019   0.78213   0.00000  Uiso   1.00
O540   O     0.14632   0.26085   0.77013   0.00000  Uiso   1.00
O541   O     0.07412   0.13291   0.73413   0.00000  Uiso   1.00
O542   O     0.26693   0.19272   0.71360   0.00000  Uiso   1.00
O543   O     0.07071   0.18878   0.78213   0.00000  Uiso   1.00
O544   O     0.25491   0.15226   0.77013   0.00000  Uiso   1.00
O545   O     0.13760   0.06944   0.73413   0.00000  Uiso   1.00
O546   O     0.20345   0.25620   0.71360   0.00000  Uiso   1.00
Zn547  Zn    0.19338   0.13994   0.78734   0.00000  Uiso   1.00
Zn548  Zn    0.13379   0.12458   0.71875   0.00000  Uiso   1.00
Zn549  Zn    0.21056   0.19775   0.70657   0.00000  Uiso   1.00
Zn550  Zn    0.12893   0.20439   0.78733   0.00000  Uiso   1.00
C551   C     0.38612   0.15982   0.75994   0.00000  Uiso   1.00
C552   C     0.49862   0.15980   0.56170   0.00000  Uiso   1.00
C553   C     0.56475   0.13035   0.55609   0.00000  Uiso   1.00
C554   C     0.61415   0.17383   0.73993   0.00000  Uiso   1.00
C555   C     0.46980   0.18767   0.91975   0.00000  Uiso   1.00
C556   C     0.66011   0.17638   0.73559   0.00000  Uiso   1.00
C557   C     0.34078   0.15762   0.76401   0.00000  Uiso   1.00
C558   C     0.51380   0.32252   0.73630   0.00000  Uiso   1.00
C559   C     0.48537   0.01179   0.76392   0.00000  Uiso   1.00
C560   C     0.48957   0.05592   0.76015   0.00000  Uiso   1.00
C561   C     0.50994   0.27793   0.74012   0.00000  Uiso   1.00
C562   C     0.40987   0.18180   0.98514   0.00000  Uiso   1.00
C563   C     0.51892   0.14825   0.62953   0.00000  Uiso   1.00
C564   C     0.48225   0.18499   0.87073   0.00000  Uiso   1.00
C565   C     0.57776   0.13537   0.51080   0.00000  Uiso   1.00
C566   C     0.52612   0.14356   0.58151   0.00000  Uiso   1.00
C567   C     0.42661   0.19137   0.94116   0.00000  Uiso   1.00
C568   C     0.43617   0.16959   0.50868   0.00000  Uiso   1.00
C569   C     0.48098   0.17057   0.99020   0.00000  Uiso   1.00
C570   C     0.49775   0.17896   0.94458   0.00000  Uiso   1.00
C571   C     0.50917   0.16027   0.51438   0.00000  Uiso   1.00
C572   C     0.55112   0.15154   0.99010   0.00000  Uiso   1.00
C573   C     0.56719   0.16111   0.94588   0.00000  Uiso   1.00
C574   C     0.54174   0.17716   0.92439   0.00000  Uiso   1.00
H575   H     0.58632   0.11907   0.57197   0.00000  Uiso   1.00
H576   H     0.55692   0.18713   0.89132   0.00000  Uiso   1.00
H577   H     0.34929   0.19352   0.70919   0.00000  Uiso   1.00
H578   H     0.43824   0.16387   0.60246   0.00000  Uiso   1.00
H579   H     0.46192   0.20891   0.57566   0.00000  Uiso   1.00
H580   H     0.65224   0.14074   0.79095   0.00000  Uiso   1.00
H581   H     0.54002   0.00375   0.71085   0.00000  Uiso   1.00
H582   H     0.45887   0.33136   0.78959   0.00000  Uiso   1.00
H583   H     0.60014   0.15739   0.92817   0.00000  Uiso   1.00
H584   H     0.60927   0.12773   0.99214   0.00000  Uiso   1.00
H585   H     0.40474   0.19802   0.92277   0.00000  Uiso   1.00
H586   H     0.42028   0.15770   0.54051   0.00000  Uiso   1.00
H587   H     0.37578   0.18165   0.50034   0.00000  Uiso   1.00
N588   N     0.46667   0.18347   0.59076   0.00000  Uiso   1.00
O589   O     0.50000   0.16667   0.75000   0.00000  Uiso   1.00
O590   O     0.48784   0.12637   0.65458   0.00000  Uiso   1.00
O591   O     0.46274   0.20391   0.84968   0.00000  Uiso   1.00
O592   O     0.54157   0.17759   0.64606   0.00000  Uiso   1.00
O593   O     0.50785   0.15880   0.84968   0.00000  Uiso   1.00
O594   O     0.51264   0.08019   0.78213   0.00000  Uiso   1.00
O595   O     0.47965   0.26085   0.77013   0.00000  Uiso   1.00
O596   O     0.40745   0.13291   0.73413   0.00000  Uiso   1.00
O597   O     0.60026   0.19272   0.71360   0.00000  Uiso   1.00
O598   O     0.40405   0.18878   0.78213   0.00000  Uiso   1.00
O599   O     0.58824   0.15226   0.77013   0.00000  Uiso   1.00
O600   O     0.47093   0.06944   0.73413   0.00000  Uiso   1.00
O601   O     0.53678   0.25620   0.71360   0.00000  Uiso   1.00
Zn602  Zn    0.52672   0.13994   0.78734   0.00000  Uiso   1.00
Zn603  Zn    0.46713   0.12458   0.71875   0.00000  Uiso   1.00
Zn604  Zn    0.54389   0.19775   0.70657   0.00000  Uiso   1.00
Zn605  Zn    0.46226   0.20439   0.78733   0.00000  Uiso   1.00
C606   C     0.71945   0.15982   0.75994   0.00000  Uiso   1.00
C607   C     0.83195   0.15980   0.56170   0.00000  Uiso   1.00
C608   C     0.89808   0.13035   0.55609   0.00000  Uiso   1.00
C609   C     0.94748   0.17383   0.73993   0.00000  Uiso   1.00
C610   C     0.80313   0.18767   0.91975   0.00000  Uiso   1.00
C611   C     0.99344   0.17638   0.73559   0.00000  Uiso   1.00
C612   C     0.67412   0.15762   0.76401   0.00000  Uiso   1.00
C613   C     0.84713   0.32252   0.73630   0.00000  Uiso   1.00
C614   C     0.81870   0.01179   0.76392   0.00000  Uiso   1.00
C615   C     0.82290   0.05592   0.76015   0.00000  Uiso   1.00
C616   C     0.84327   0.27793   0.74012   0.00000  Uiso   1.00
C617   C     0.74321   0.18180   0.98514   0.00000  Uiso   1.00
C618   C     0.85225   0.14825   0.62953   0.00000  Uiso   1.00
C619   C     0.81558   0.18499   0.87073   0.00000  Uiso   1.00
C620   C     0.91110   0.13537   0.51080   0.00000  Uiso   1.00
C621   C     0.85945   0.14356   0.58151   0.00000  Uiso   1.00
C622   C     0.75994   0.19137   0.94116   0.00000  Uiso   1.00
C623   C     0.76951   0.16959   0.50868   0.00000  Uiso   1.00
C624   C     0.81431   0.17057   0.99020   0.00000  Uiso   1.00
C625   C     0.83108   0.17896   0.94458   0.00000  Uiso   1.00
C626   C     0.84250   0.16027   0.51438   0.00000  Uiso   1.00
C627   C     0.88445   0.15154   0.99010   0.00000  Uiso   1.00
C628   C     0.90052   0.16111   0.94588   0.00000  Uiso   1.00
C629   C     0.87508   0.17716   0.92439   0.00000  Uiso   1.00
H630   H     0.91965   0.11907   0.57197   0.00000  Uiso   1.00
H631   H     0.89025   0.18713   0.89132   0.00000  Uiso   1.00
H632   H     0.68262   0.19352   0.70919   0.00000  Uiso   1.00
H633   H     0.77158   0.16387   0.60246   0.00000  Uiso   1.00
H634   H     0.79525   0.20891   0.57566   0.00000  Uiso   1.00
H635   H     0.98558   0.14074   0.79095   0.00000  Uiso   1.00
H636   H     0.87336   0.00375   0.71085   0.00000  Uiso   1.00
H637   H     0.79221   0.33136   0.78959   0.00000  Uiso   1.00
H638   H     0.93348   0.15739   0.92817   0.00000  Uiso   1.00
H639   H     0.94260   0.12773   0.99214   0.00000  Uiso   1.00
H640   H     0.73807   0.19802   0.92277   0.00000  Uiso   1.00
H641   H     0.75361   0.15770   0.54051   0.00000  Uiso   1.00
H642   H     0.70912   0.18165   0.50034   0.00000  Uiso   1.00
N643   N     0.80001   0.18347   0.59076   0.00000  Uiso   1.00
O644   O     0.83333   0.16667   0.75000   0.00000  Uiso   1.00
O645   O     0.82118   0.12637   0.65458   0.00000  Uiso   1.00
O646   O     0.79607   0.20391   0.84968   0.00000  Uiso   1.00
O647   O     0.87491   0.17759   0.64606   0.00000  Uiso   1.00
O648   O     0.84118   0.15880   0.84968   0.00000  Uiso   1.00
O649   O     0.84597   0.08019   0.78213   0.00000  Uiso   1.00
O650   O     0.81298   0.26085   0.77013   0.00000  Uiso   1.00
O651   O     0.74078   0.13291   0.73413   0.00000  Uiso   1.00
O652   O     0.93360   0.19272   0.71360   0.00000  Uiso   1.00
O653   O     0.73738   0.18878   0.78213   0.00000  Uiso   1.00
O654   O     0.92158   0.15226   0.77013   0.00000  Uiso   1.00
O655   O     0.80426   0.06944   0.73413   0.00000  Uiso   1.00
O656   O     0.87012   0.25620   0.71360   0.00000  Uiso   1.00
Zn657  Zn    0.86005   0.13994   0.78734   0.00000  Uiso   1.00
Zn658  Zn    0.80046   0.12458   0.71875   0.00000  Uiso   1.00
Zn659  Zn    0.87723   0.19775   0.70657   0.00000  Uiso   1.00
Zn660  Zn    0.79560   0.20439   0.78733   0.00000  Uiso   1.00
C661   C     0.05279   0.49315   0.75994   0.00000  Uiso   1.00
C662   C     0.16528   0.49313   0.56170   0.00000  Uiso   1.00
C663   C     0.23141   0.46368   0.55609   0.00000  Uiso   1.00
C664   C     0.28082   0.50716   0.73993   0.00000  Uiso   1.00
C665   C     0.13647   0.52100   0.91975   0.00000  Uiso   1.00
C666   C     0.32677   0.50971   0.73559   0.00000  Uiso   1.00
C667   C     0.00745   0.49095   0.76401   0.00000  Uiso   1.00
C668   C     0.18047   0.65586   0.73630   0.00000  Uiso   1.00
C669   C     0.15204   0.34512   0.76392   0.00000  Uiso   1.00
C670   C     0.15623   0.38925   0.76015   0.00000  Uiso   1.00
C671   C     0.17661   0.61127   0.74012   0.00000  Uiso   1.00
C672   C     0.07654   0.51514   0.98514   0.00000  Uiso   1.00
C673   C     0.18558   0.48158   0.62953   0.00000  Uiso   1.00
C674   C     0.14891   0.51832   0.87073   0.00000  Uiso   1.00
C675   C     0.24443   0.46871   0.51080   0.00000  Uiso   1.00
C676   C     0.19279   0.47689   0.58151   0.00000  Uiso   1.00
C677   C     0.09327   0.52470   0.94116   0.00000  Uiso   1.00
C678   C     0.10284   0.50292   0.50868   0.00000  Uiso   1.00
C679   C     0.14765   0.50390   0.99020   0.00000  Uiso   1.00
C680   C     0.16441   0.51230   0.94458   0.00000  Uiso   1.00
C681   C     0.17583   0.49361   0.51438   0.00000  Uiso   1.00
C682   C     0.21779   0.48487   0.99010   0.00000  Uiso   1.00
C683   C     0.23386   0.49444   0.94588   0.00000  Uiso   1.00
C684   C     0.20841   0.51050   0.92439   0.00000  Uiso   1.00
H685   H     0.25298   0.45240   0.57197   0.00000  Uiso   1.00
H686   H     0.22359   0.52046   0.89132   0.00000  Uiso   1.00
H687   H     0.01595   0.52685   0.70919   0.00000  Uiso   1.00
H688   H     0.10491   0.49720   0.60246   0.00000  Uiso   1.00
H689   H     0.12859   0.54224   0.57566   0.00000  Uiso   1.00
H690   H     0.31891   0.47407   0.79095   0.00000  Uiso   1.00
H691   H     0.20669   0.33708   0.71085   0.00000  Uiso   1.00
H692   H     0.12554   0.66469   0.78959   0.00000  Uiso   1.00
H693   H     0.26681   0.49072   0.92817   0.00000  Uiso   1.00
H694   H     0.27594   0.46107   0.99214   0.00000  Uiso   1.00
H695   H     0.07141   0.53135   0.92277   0.00000  Uiso   1.00
H696   H     0.08695   0.49103   0.54051   0.00000  Uiso   1.00
H697   H     0.04245   0.51498   0.50034   0.00000  Uiso   1.00
N698   N     0.13334   0.51680   0.59076   0.00000  Uiso   1.00
O699   O     0.16667   0.50000   0.75000   0.00000  Uiso   1.00
O700   O     0.15451   0.45970   0.65458   0.00000  Uiso   1.00
O701   O     0.12940   0.53724   0.84968   0.00000  Uiso   1.00
O702   O     0.20824   0.51092   0.64606   0.00000  Uiso   1.00
O703   O     0.17451   0.49213   0.84968   0.00000  Uiso   1.00
O704   O     0.17930   0.41352   0.78213   0.00000  Uiso   1.00
O705   O     0.14632   0.59418   0.77013   0.00000  Uiso   1.00
O706   O     0.07412   0.46625   0.73413   0.00000  Uiso   1.00
O707   O     0.26693   0.52605   0.71360   0.00000  Uiso   1.00
O708   O     0.07071   0.52211   0.78213   0.00000  Uiso   1.00
O709   O     0.25491   0.48559   0.77013   0.00000  Uiso   1.00
O710   O     0.13760   0.40277   0.73413   0.00000  Uiso   1.00
O711   O     0.20345   0.58953   0.71360   0.00000  Uiso   1.00
Zn712  Zn    0.19338   0.47327   0.78734   0.00000  Uiso   1.00
Zn713  Zn    0.13379   0.45791   0.71875   0.00000  Uiso   1.00
Zn714  Zn    0.21056   0.53109   0.70657   0.00000  Uiso   1.00
Zn715  Zn    0.12893   0.53773   0.78733   0.00000  Uiso   1.00
C716   C     0.38612   0.49315   0.75994   0.00000  Uiso   1.00
C717   C     0.49862   0.49313   0.56170   0.00000  Uiso   1.00
C718   C     0.56475   0.46368   0.55609   0.00000  Uiso   1.00
C719   C     0.61415   0.50716   0.73993   0.00000  Uiso   1.00
C720   C     0.46980   0.52100   0.91975   0.00000  Uiso   1.00
C721   C     0.66011   0.50971   0.73559   0.00000  Uiso   1.00
C722   C     0.34078   0.49095   0.76401   0.00000  Uiso   1.00
C723   C     0.51380   0.65586   0.73630   0.00000  Uiso   1.00
C724   C     0.48537   0.34512   0.76392   0.00000  Uiso   1.00
C725   C     0.48957   0.38925   0.76015   0.00000  Uiso   1.00
C726   C     0.50994   0.61127   0.74012   0.00000  Uiso   1.00
C727   C     0.40987   0.51514   0.98514   0.00000  Uiso   1.00
C728   C     0.51892   0.48158   0.62953   0.00000  Uiso   1.00
C729   C     0.48225   0.51832   0.87073   0.00000  Uiso   1.00
C730   C     0.57776   0.46871   0.51080   0.00000  Uiso   1.00
C731   C     0.52612   0.47689   0.58151   0.00000  Uiso   1.00
C732   C     0.42661   0.52470   0.94116   0.00000  Uiso   1.00
C733   C     0.43617   0.50292   0.50868   0.00000  Uiso   1.00
C734   C     0.48098   0.50390   0.99020   0.00000  Uiso   1.00
C735   C     0.49775   0.51230   0.94458   0.00000  Uiso   1.00
C736   C     0.50917   0.49361   0.51438   0.00000  Uiso   1.00
C737   C     0.55112   0.48487   0.99010   0.00000  Uiso   1.00
C738   C     0.56719   0.49444   0.94588   0.00000  Uiso   1.00
C739   C     0.54174   0.51050   0.92439   0.00000  Uiso   1.00
H740   H     0.58632   0.45240   0.57197   0.00000  Uiso   1.00
H741   H     0.55692   0.52046   0.89132   0.00000  Uiso   1.00
H742   H     0.34929   0.52685   0.70919   0.00000  Uiso   1.00
H743   H     0.43824   0.49720   0.60246   0.00000  Uiso   1.00
H744   H     0.46192   0.54224   0.57566   0.00000  Uiso   1.00
H745   H     0.65224   0.47407   0.79095   0.00000  Uiso   1.00
H746   H     0.54002   0.33708   0.71085   0.00000  Uiso   1.00
H747   H     0.45887   0.66469   0.78959   0.00000  Uiso   1.00
H748   H     0.60014   0.49072   0.92817   0.00000  Uiso   1.00
H749   H     0.60927   0.46107   0.99214   0.00000  Uiso   1.00
H750   H     0.40474   0.53135   0.92277   0.00000  Uiso   1.00
H751   H     0.42028   0.49103   0.54051   0.00000  Uiso   1.00
H752   H     0.37578   0.51498   0.50034   0.00000  Uiso   1.00
N753   N     0.46667   0.51680   0.59076   0.00000  Uiso   1.00
O754   O     0.50000   0.50000   0.75000   0.00000  Uiso   1.00
O755   O     0.48784   0.45970   0.65458   0.00000  Uiso   1.00
O756   O     0.46274   0.53724   0.84968   0.00000  Uiso   1.00
O757   O     0.54157   0.51092   0.64606   0.00000  Uiso   1.00
O758   O     0.50785   0.49213   0.84968   0.00000  Uiso   1.00
O759   O     0.51264   0.41352   0.78213   0.00000  Uiso   1.00
O760   O     0.47965   0.59418   0.77013   0.00000  Uiso   1.00
O761   O     0.40745   0.46625   0.73413   0.00000  Uiso   1.00
O762   O     0.60026   0.52605   0.71360   0.00000  Uiso   1.00
O763   O     0.40405   0.52211   0.78213   0.00000  Uiso   1.00
O764   O     0.58824   0.48559   0.77013   0.00000  Uiso   1.00
O765   O     0.47093   0.40277   0.73413   0.00000  Uiso   1.00
O766   O     0.53678   0.58953   0.71360   0.00000  Uiso   1.00
Zn767  Zn    0.52672   0.47327   0.78734   0.00000  Uiso   1.00
Zn768  Zn    0.46713   0.45791   0.71875   0.00000  Uiso   1.00
Zn769  Zn    0.54389   0.53109   0.70657   0.00000  Uiso   1.00
Zn770  Zn    0.46226   0.53773   0.78733   0.00000  Uiso   1.00
C771   C     0.71945   0.49315   0.75994   0.00000  Uiso   1.00
C772   C     0.83195   0.49313   0.56170   0.00000  Uiso   1.00
C773   C     0.89808   0.46368   0.55609   0.00000  Uiso   1.00
C774   C     0.94748   0.50716   0.73993   0.00000  Uiso   1.00
C775   C     0.80313   0.52100   0.91975   0.00000  Uiso   1.00
C776   C     0.99344   0.50971   0.73559   0.00000  Uiso   1.00
C777   C     0.67412   0.49095   0.76401   0.00000  Uiso   1.00
C778   C     0.84713   0.65586   0.73630   0.00000  Uiso   1.00
C779   C     0.81870   0.34512   0.76392   0.00000  Uiso   1.00
C780   C     0.82290   0.38925   0.76015   0.00000  Uiso   1.00
C781   C     0.84327   0.61127   0.74012   0.00000  Uiso   1.00
C782   C     0.74321   0.51514   0.98514   0.00000  Uiso   1.00
C783   C     0.85225   0.48158   0.62953   0.00000  Uiso   1.00
C784   C     0.81558   0.51832   0.87073   0.00000  Uiso   1.00
C785   C     0.91110   0.46871   0.51080   0.00000  Uiso   1.00
C786   C     0.85945   0.47689   0.58151   0.00000  Uiso   1.00
C787   C     0.75994   0.52470   0.94116   0.00000  Uiso   1.00
C788   C     0.76951   0.50292   0.50868   0.00000  Uiso   1.00
C789   C     0.81431   0.50390   0.99020   0.00000  Uiso   1.00
C790   C     0.83108   0.51230   0.94458   0.00000  Uiso   1.00
C791   C     0.84250   0.49361   0.51438   0.00000  Uiso   1.00
C792   C     0.88445   0.48487   0.99010   0.00000  Uiso   1.00
C793   C     0.90052   0.49444   0.94588   0.00000  Uiso   1.00
C794   C     0.87508   0.51050   0.92439   0.00000  Uiso   1.00
H795   H     0.91965   0.45240   0.57197   0.00000  Uiso   1.00
H796   H     0.89025   0.52046   0.89132   0.00000  Uiso   1.00
H797   H     0.68262   0.52685   0.70919   0.00000  Uiso   1.00
H798   H     0.77158   0.49720   0.60246   0.00000  Uiso   1.00
H799   H     0.79525   0.54224   0.57566   0.00000  Uiso   1.00
H800   H     0.98558   0.47407   0.79095   0.00000  Uiso   1.00
H801   H     0.87336   0.33708   0.71085   0.00000  Uiso   1.00
H802   H     0.79221   0.66469   0.78959   0.00000  Uiso   1.00
H803   H     0.93348   0.49072   0.92817   0.00000  Uiso   1.00
H804   H     0.94260   0.46107   0.99214   0.00000  Uiso   1.00
H805   H     0.73807   0.53135   0.92277   0.00000  Uiso   1.00
H806   H     0.75361   0.49103   0.54051   0.00000  Uiso   1.00
H807   H     0.70912   0.51498   0.50034   0.00000  Uiso   1.00
N808   N     0.80001   0.51680   0.59076   0.00000  Uiso   1.00
O809   O     0.83333   0.50000   0.75000   0.00000  Uiso   1.00
O810   O     0.82118   0.45970   0.65458   0.00000  Uiso   1.00
O811   O     0.79607   0.53724   0.84968   0.00000  Uiso   1.00
O812   O     0.87491   0.51092   0.64606   0.00000  Uiso   1.00
O813   O     0.84118   0.49213   0.84968   0.00000  Uiso   1.00
O814   O     0.84597   0.41352   0.78213   0.00000  Uiso   1.00
O815   O     0.81298   0.59418   0.77013   0.00000  Uiso   1.00
O816   O     0.74078   0.46625   0.73413   0.00000  Uiso   1.00
O817   O     0.93360   0.52605   0.71360   0.00000  Uiso   1.00
O818   O     0.73738   0.52211   0.78213   0.00000  Uiso   1.00
O819   O     0.92158   0.48559   0.77013   0.00000  Uiso   1.00
O820   O     0.80426   0.40277   0.73413   0.00000  Uiso   1.00
O821   O     0.87012   0.58953   0.71360   0.00000  Uiso   1.00
Zn822  Zn    0.86005   0.47327   0.78734   0.00000  Uiso   1.00
Zn823  Zn    0.80046   0.45791   0.71875   0.00000  Uiso   1.00
Zn824  Zn    0.87723   0.53109   0.70657   0.00000  Uiso   1.00
Zn825  Zn    0.79560   0.53773   0.78733   0.00000  Uiso   1.00
C826   C     0.05279   0.82648   0.75994   0.00000  Uiso   1.00
C827   C     0.16528   0.82647   0.56170   0.00000  Uiso   1.00
C828   C     0.23141   0.79702   0.55609   0.00000  Uiso   1.00
C829   C     0.28082   0.84050   0.73993   0.00000  Uiso   1.00
C830   C     0.13647   0.85434   0.91975   0.00000  Uiso   1.00
C831   C     0.32677   0.84305   0.73559   0.00000  Uiso   1.00
C832   C     0.00745   0.82429   0.76401   0.00000  Uiso   1.00
C833   C     0.18047   0.98919   0.73630   0.00000  Uiso   1.00
C834   C     0.15204   0.67846   0.76392   0.00000  Uiso   1.00
C835   C     0.15623   0.72259   0.76015   0.00000  Uiso   1.00
C836   C     0.17661   0.94460   0.74012   0.00000  Uiso   1.00
C837   C     0.07654   0.84847   0.98514   0.00000  Uiso   1.00
C838   C     0.18558   0.81491   0.62953   0.00000  Uiso   1.00
C839   C     0.14891   0.85166   0.87073   0.00000  Uiso   1.00
C840   C     0.24443   0.80204   0.51080   0.00000  Uiso   1.00
C841   C     0.19279   0.81022   0.58151   0.00000  Uiso   1.00
C842   C     0.09327   0.85803   0.94116   0.00000  Uiso   1.00
C843   C     0.10284   0.83626   0.50868   0.00000  Uiso   1.00
C844   C     0.14765   0.83723   0.99020   0.00000  Uiso   1.00
C845   C     0.16441   0.84563   0.94458   0.00000  Uiso   1.00
C846   C     0.17583   0.82694   0.51438   0.00000  Uiso   1.00
C847   C     0.21779   0.81820   0.99010   0.00000  Uiso   1.00
C848   C     0.23386   0.82777   0.94588   0.00000  Uiso   1.00
C849   C     0.20841   0.84383   0.92439   0.00000  Uiso   1.00
H850   H     0.25298   0.78573   0.57197   0.00000  Uiso   1.00
H851   H     0.22359   0.85379   0.89132   0.00000  Uiso   1.00
H852   H     0.01595   0.86019   0.70919   0.00000  Uiso   1.00
H853   H     0.10491   0.83053   0.60246   0.00000  Uiso   1.00
H854   H     0.12859   0.87558   0.57566   0.00000  Uiso   1.00
H855   H     0.31891   0.80740   0.79095   0.00000  Uiso   1.00
H856   H     0.20669   0.67041   0.71085   0.00000  Uiso   1.00
H857   H     0.12554   0.99802   0.78959   0.00000  Uiso   1.00
H858   H     0.26681   0.82405   0.92817   0.00000  Uiso   1.00
H859   H     0.27594   0.79440   0.99214   0.00000  Uiso   1.00
H860   H     0.07141   0.86469   0.92277   0.00000  Uiso   1.00
H861   H     0.08695   0.82437   0.54051   0.00000  Uiso   1.00
H862   H     0.04245   0.84831   0.50034   0.00000  Uiso   1.00
N863   N     0.13334   0.85014   0.59076   0.00000  Uiso   1.00
O864   O     0.16667   0.83333   0.75000   0.00000  Uiso   1.00
O865   O     0.15451   0.79304   0.65458   0.00000  Uiso   1.00
O866   O     0.12940   0.87058   0.84968   0.00000  Uiso   1.00
O867   O     0.20824   0.84425   0.64606   0.00000  Uiso   1.00
O868   O     0.17451   0.82546   0.84968   0.00000  Uiso   1.00
O869   O     0.17930   0.74686   0.78213   0.00000  Uiso   1.00
O870   O     0.14632   0.92751   0.77013   0.00000  Uiso   1.00
O871   O     0.07412   0.79958   0.73413   0.00000  Uiso   1.00
O872   O     0.26693   0.85939   0.71360   0.00000  Uiso   1.00
O873   O     0.07071   0.85544   0.78213   0.00000  Uiso   1.00
O874   O     0.25491   0.81892   0.77013   0.00000  Uiso   1.00
O875   O     0.13760   0.73610   0.73413   0.00000  Uiso   1.00
O876   O     0.20345   0.92286   0.71360   0.00000  Uiso   1.00
Zn877  Zn    0.19338   0.80661   0.78734   0.00000  Uiso   1.00
Zn878  Zn    0.13379   0.79124   0.71875   0.00000  Uiso   1.00
Zn879  Zn    0.21056   0.86442   0.70657   0.00000  Uiso   1.00
Zn880  Zn    0.12893   0.87106   0.78733   0.00000  Uiso   1.00
C881   C     0.38612   0.82648   0.75994   0.00000  Uiso   1.00
C882   C     0.49862   0.82647   0.56170   0.00000  Uiso   1.00
C883   C     0.56475   0.79702   0.55609   0.00000  Uiso   1.00
C884   C     0.61415   0.84050   0.73993   0.00000  Uiso   1.00
C885   C     0.46980   0.85434   0.91975   0.00000  Uiso   1.00
C886   C     0.66011   0.84305   0.73559   0.00000  Uiso   1.00
C887   C     0.34078   0.82429   0.76401   0.00000  Uiso   1.00
C888   C     0.51380   0.98919   0.73630   0.00000  Uiso   1.00
C889   C     0.48537   0.67846   0.76392   0.00000  Uiso   1.00
C890   C     0.48957   0.72259   0.76015   0.00000  Uiso   1.00
C891   C     0.50994   0.94460   0.74012   0.00000  Uiso   1.00
C892   C     0.40987   0.84847   0.98514   0.00000  Uiso   1.00
C893   C     0.51892   0.81491   0.62953   0.00000  Uiso   1.00
C894   C     0.48225   0.85166   0.87073   0.00000  Uiso   1.00
C895   C     0.57776   0.80204   0.51080   0.00000  Uiso   1.00
C896   C     0.52612   0.81022   0.58151   0.00000  Uiso   1.00
C897   C     0.42661   0.85803   0.94116   0.00000  Uiso   1.00
C898   C     0.43617   0.83626   0.50868   0.00000  Uiso   1.00
C899   C     0.48098   0.83723   0.99020   0.00000  Uiso   1.00
C900   C     0.49775   0.84563   0.94458   0.00000  Uiso   1.00
C901   C     0.50917   0.82694   0.51438   0.00000  Uiso   1.00
C902   C     0.55112   0.81820   0.99010   0.00000  Uiso   1.00
C903   C     0.56719   0.82777   0.94588   0.00000  Uiso   1.00
C904   C     0.54174   0.84383   0.92439   0.00000  Uiso   1.00
H905   H     0.58632   0.78573   0.57197   0.00000  Uiso   1.00
H906   H     0.55692   0.85379   0.89132   0.00000  Uiso   1.00
H907   H     0.34929   0.86019   0.70919   0.00000  Uiso   1.00
H908   H     0.43824   0.83053   0.60246   0.00000  Uiso   1.00
H909   H     0.46192   0.87558   0.57566   0.00000  Uiso   1.00
H910   H     0.65224   0.80740   0.79095   0.00000  Uiso   1.00
H911   H     0.54002   0.67041   0.71085   0.00000  Uiso   1.00
H912   H     0.45887   0.99802   0.78959   0.00000  Uiso   1.00
H913   H     0.60014   0.82405   0.92817   0.00000  Uiso   1.00
H914   H     0.60927   0.79440   0.99214   0.00000  Uiso   1.00
H915   H     0.40474   0.86469   0.92277   0.00000  Uiso   1.00
H916   H     0.42028   0.82437   0.54051   0.00000  Uiso   1.00
H917   H     0.37578   0.84831   0.50034   0.00000  Uiso   1.00
N918   N     0.46667   0.85014   0.59076   0.00000  Uiso   1.00
O919   O     0.50000   0.83333   0.75000   0.00000  Uiso   1.00
O920   O     0.48784   0.79304   0.65458   0.00000  Uiso   1.00
O921   O     0.46274   0.87058   0.84968   0.00000  Uiso   1.00
O922   O     0.54157   0.84425   0.64606   0.00000  Uiso   1.00
O923   O     0.50785   0.82546   0.84968   0.00000  Uiso   1.00
O924   O     0.51264   0.74686   0.78213   0.00000  Uiso   1.00
O925   O     0.47965   0.92751   0.77013   0.00000  Uiso   1.00
O926   O     0.40745   0.79958   0.73413   0.00000  Uiso   1.00
O927   O     0.60026   0.85939   0.71360   0.00000  Uiso   1.00
O928   O     0.40405   0.85544   0.78213   0.00000  Uiso   1.00
O929   O     0.58824   0.81892   0.77013   0.00000  Uiso   1.00
O930   O     0.47093   0.73610   0.73413   0.00000  Uiso   1.00
O931   O     0.53678   0.92286   0.71360   0.00000  Uiso   1.00
Zn932  Zn    0.52672   0.80661   0.78734   0.00000  Uiso   1.00
Zn933  Zn    0.46713   0.79124   0.71875   0.00000  Uiso   1.00
Zn934  Zn    0.54389   0.86442   0.70657   0.00000  Uiso   1.00
Zn935  Zn    0.46226   0.87106   0.78733   0.00000  Uiso   1.00
C936   C     0.71945   0.82648   0.75994   0.00000  Uiso   1.00
C937   C     0.83195   0.82647   0.56170   0.00000  Uiso   1.00
C938   C     0.89808   0.79702   0.55609   0.00000  Uiso   1.00
C939   C     0.94748   0.84050   0.73993   0.00000  Uiso   1.00
C940   C     0.80313   0.85434   0.91975   0.00000  Uiso   1.00
C941   C     0.99344   0.84305   0.73559   0.00000  Uiso   1.00
C942   C     0.67412   0.82429   0.76401   0.00000  Uiso   1.00
C943   C     0.84713   0.98919   0.73630   0.00000  Uiso   1.00
C944   C     0.81870   0.67846   0.76392   0.00000  Uiso   1.00
C945   C     0.82290   0.72259   0.76015   0.00000  Uiso   1.00
C946   C     0.84327   0.94460   0.74012   0.00000  Uiso   1.00
C947   C     0.74321   0.84847   0.98514   0.00000  Uiso   1.00
C948   C     0.85225   0.81491   0.62953   0.00000  Uiso   1.00
C949   C     0.81558   0.85166   0.87073   0.00000  Uiso   1.00
C950   C     0.91110   0.80204   0.51080   0.00000  Uiso   1.00
C951   C     0.85945   0.81022   0.58151   0.00000  Uiso   1.00
C952   C     0.75994   0.85803   0.94116   0.00000  Uiso   1.00
C953   C     0.76951   0.83626   0.50868   0.00000  Uiso   1.00
C954   C     0.81431   0.83723   0.99020   0.00000  Uiso   1.00
C955   C     0.83108   0.84563   0.94458   0.00000  Uiso   1.00
C956   C     0.84250   0.82694   0.51438   0.00000  Uiso   1.00
C957   C     0.88445   0.81820   0.99010   0.00000  Uiso   1.00
C958   C     0.90052   0.82777   0.94588   0.00000  Uiso   1.00
C959   C     0.87508   0.84383   0.92439   0.00000  Uiso   1.00
H960   H     0.91965   0.78573   0.57197   0.00000  Uiso   1.00
H961   H     0.89025   0.85379   0.89132   0.00000  Uiso   1.00
H962   H     0.68262   0.86019   0.70919   0.00000  Uiso   1.00
H963   H     0.77158   0.83053   0.60246   0.00000  Uiso   1.00
H964   H     0.79525   0.87558   0.57566   0.00000  Uiso   1.00
H965   H     0.98558   0.80740   0.79095   0.00000  Uiso   1.00
H966   H     0.87336   0.67041   0.71085   0.00000  Uiso   1.00
H967   H     0.79221   0.99802   0.78959   0.00000  Uiso   1.00
H968   H     0.93348   0.82405   0.92817   0.00000  Uiso   1.00
H969   H     0.94260   0.79440   0.99214   0.00000  Uiso   1.00
H970   H     0.73807   0.86469   0.92277   0.00000  Uiso   1.00
H971   H     0.75361   0.82437   0.54051   0.00000  Uiso   1.00
H972   H     0.70912   0.84831   0.50034   0.00000  Uiso   1.00
N973   N     0.80001   0.85014   0.59076   0.00000  Uiso   1.00
O974   O     0.83333   0.83333   0.75000   0.00000  Uiso   1.00
O975   O     0.82118   0.79304   0.65458   0.00000  Uiso   1.00
O976   O     0.79607   0.87058   0.84968   0.00000  Uiso   1.00
O977   O     0.87491   0.84425   0.64606   0.00000  Uiso   1.00
O978   O     0.84118   0.82546   0.84968   0.00000  Uiso   1.00
O979   O     0.84597   0.74686   0.78213   0.00000  Uiso   1.00
O980   O     0.81298   0.92751   0.77013   0.00000  Uiso   1.00
O981   O     0.74078   0.79958   0.73413   0.00000  Uiso   1.00
O982   O     0.93360   0.85939   0.71360   0.00000  Uiso   1.00
O983   O     0.73738   0.85544   0.78213   0.00000  Uiso   1.00
O984   O     0.92158   0.81892   0.77013   0.00000  Uiso   1.00
O985   O     0.80426   0.73610   0.73413   0.00000  Uiso   1.00
O986   O     0.87012   0.92286   0.71360   0.00000  Uiso   1.00
Zn987  Zn    0.86005   0.80661   0.78734   0.00000  Uiso   1.00
Zn988  Zn    0.80046   0.79124   0.71875   0.00000  Uiso   1.00
Zn989  Zn    0.87723   0.86442   0.70657   0.00000  Uiso   1.00
Zn990  Zn    0.79560   0.87106   0.78733   0.00000  Uiso   1.00
loop_
_geom_bond_atom_site_label_1
_geom_bond_atom_site_label_2
_geom_bond_distance
_geom_bond_site_symmetry_2
_ccdc_geom_bond_type
C1     O48     1.272   .     A
C1     O46     1.273   .     A
C1     C7      1.438   .     S
C2     C16     1.403   .     A
C2     N38     1.440   .     S
C2     C21     1.426   .     A
C3     C15     1.384   .     A
C3     H25     1.084   .     S
C3     C16     1.394   .     A
C4     O49     1.279   .     A
C4     C6      1.456   .     S
C4     O47     1.283   .     A
C5     C14     1.471   .     S
C5     C17     1.402   .     A
C5     C20     1.417   .     A
C6     C62     1.335   .     S
C6     H82     1.088   .     S
C7     C116    1.335   1_455 S
C7     H140    1.086   1_455 S
C8     C11     1.451   .     S
C8     C174    1.332   .     S
C8     H196    1.088   .     S
C9     C10     1.435   .     S
C9     C338    1.332   1_545 S
C9     H362    1.086   1_545 S
C10    O44     1.281   .     A
C10    O50     1.281   .     A
C11    O45     1.271   .     A
C11    O51     1.270   .     A
C12    C17     1.386   .     A
C12    C513    1.390   .     S
C12    H532    1.083   .     S
C13    O42     1.268   .     A
C13    C16     1.448   .     S
C13    O40     1.275   .     A
C14    O41     1.281   .     A
C14    O43     1.282   .     A
C15    C517    1.398   1_554 S
C15    H529    1.084   1_554 S
C17    H35     1.083   .     S
C18    H36     1.074   .     S
C18    C507    1.390   1_554 S
C18    C514    1.414   1_554 S
C19    C20     1.423   .     A
C19    C513    1.414   .     S
C19    C516    1.428   .     S
C20    C24     1.408   .     A
C21    C514    1.428   1_554 S
C21    C517    1.425   1_554 S
C22    C23     1.391   .     A
C22    C510    1.398   .     S
C22    C516    1.425   .     S
C23    C24     1.382   .     A
C23    H33     1.084   .     S
C24    H26     1.081   .     S
H27    C116    1.088   1_455 S
H28    N38     1.045   .     S
H29    N38     1.045   .     S
H30    C62     1.086   .     S
H31    C338    1.088   1_545 S
H32    C174    1.086   .     S
H34    C510    1.084   .     S
H37    C507    1.083   1_554 S
O39    Zn52    1.964   .     S
O39    Zn53    1.950   .     S
O39    Zn54    1.933   .     S
O39    Zn55    1.932   .     S
O40    Zn53    1.939   .     S
O41    Zn55    1.952   .     S
O42    Zn54    1.948   .     S
O43    Zn52    1.937   .     S
O44    Zn52    1.928   .     S
O45    Zn55    1.929   .     S
O46    Zn53    1.924   .     S
O47    Zn54    1.937   .     S
O48    Zn55    1.933   .     S
O49    Zn52    1.921   .     S
O50    Zn53    1.934   .     S
O51    Zn54    1.929   .     S
C56    O103    1.272   .     A
C56    O101    1.273   .     A
C56    C62     1.438   .     S
C57    C71     1.403   .     A
C57    N93     1.440   .     S
C57    C76     1.426   .     A
C58    C70     1.384   .     A
C58    H80     1.084   .     S
C58    C71     1.394   .     A
C59    O104    1.279   .     A
C59    C61     1.456   .     S
C59    O102    1.283   .     A
C60    C69     1.471   .     S
C60    C72     1.402   .     A
C60    C75     1.417   .     A
C61    C117    1.335   .     S
C61    H137    1.088   .     S
C63    C66     1.451   .     S
C63    C229    1.332   .     S
C63    H251    1.088   .     S
C64    C65     1.435   .     S
C64    C393    1.332   1_545 S
C64    H417    1.086   1_545 S
C65    O99     1.281   .     A
C65    O105    1.281   .     A
C66    O100    1.271   .     A
C66    O106    1.270   .     A
C67    C72     1.386   .     A
C67    C568    1.390   .     S
C67    H587    1.083   .     S
C68    O97     1.268   .     A
C68    C71     1.448   .     S
C68    O95     1.275   .     A
C69    O96     1.281   .     A
C69    O98     1.282   .     A
C70    C572    1.398   1_554 S
C70    H584    1.084   1_554 S
C72    H90     1.083   .     S
C73    H91     1.074   .     S
C73    C562    1.390   1_554 S
C73    C569    1.414   1_554 S
C74    C75     1.423   .     A
C74    C568    1.414   .     S
C74    C571    1.428   .     S
C75    C79     1.408   .     A
C76    C569    1.428   1_554 S
C76    C572    1.425   1_554 S
C77    C78     1.391   .     A
C77    C565    1.398   .     S
C77    C571    1.425   .     S
C78    C79     1.382   .     A
C78    H88     1.084   .     S
C79    H81     1.081   .     S
H83    N93     1.045   .     S
H84    N93     1.045   .     S
H85    C117    1.086   .     S
H86    C393    1.088   1_545 S
H87    C229    1.086   .     S
H89    C565    1.084   .     S
H92    C562    1.083   1_554 S
O94    Zn107   1.964   .     S
O94    Zn108   1.950   .     S
O94    Zn109   1.933   .     S
O94    Zn110   1.932   .     S
O95    Zn108   1.939   .     S
O96    Zn110   1.952   .     S
O97    Zn109   1.948   .     S
O98    Zn107   1.937   .     S
O99    Zn107   1.928   .     S
O100   Zn110   1.929   .     S
O101   Zn108   1.924   .     S
O102   Zn109   1.937   .     S
O103   Zn110   1.933   .     S
O104   Zn107   1.921   .     S
O105   Zn108   1.934   .     S
O106   Zn109   1.929   .     S
C111   O158    1.272   .     A
C111   O156    1.273   .     A
C111   C117    1.438   .     S
C112   C126    1.403   .     A
C112   N148    1.440   .     S
C112   C131    1.426   .     A
C113   C125    1.384   .     A
C113   H135    1.084   .     S
C113   C126    1.394   .     A
C114   O159    1.279   .     A
C114   C116    1.456   .     S
C114   O157    1.283   .     A
C115   C124    1.471   .     S
C115   C127    1.402   .     A
C115   C130    1.417   .     A
C116   C7      1.335   1_655 S
C116   H27     1.088   1_655 S
C118   C121    1.451   .     S
C118   C284    1.332   .     S
C118   H306    1.088   .     S
C119   C120    1.435   .     S
C119   C448    1.332   1_545 S
C119   H472    1.086   1_545 S
C120   O154    1.281   .     A
C120   O160    1.281   .     A
C121   O155    1.271   .     A
C121   O161    1.270   .     A
C122   C127    1.386   .     A
C122   C623    1.390   .     S
C122   H642    1.083   .     S
C123   O152    1.268   .     A
C123   C126    1.448   .     S
C123   O150    1.275   .     A
C124   O151    1.281   .     A
C124   O153    1.282   .     A
C125   C627    1.398   1_554 S
C125   H639    1.084   1_554 S
C127   H145    1.083   .     S
C128   H146    1.074   .     S
C128   C617    1.390   1_554 S
C128   C624    1.414   1_554 S
C129   C130    1.423   .     A
C129   C623    1.414   .     S
C129   C626    1.428   .     S
C130   C134    1.408   .     A
C131   C624    1.428   1_554 S
C131   C627    1.425   1_554 S
C132   C133    1.391   .     A
C132   C620    1.398   .     S
C132   C626    1.425   .     S
C133   C134    1.382   .     A
C133   H143    1.084   .     S
C134   H136    1.081   .     S
H138   N148    1.045   .     S
H139   N148    1.045   .     S
H140   C7      1.086   1_655 S
H141   C448    1.088   1_545 S
H142   C284    1.086   .     S
H144   C620    1.084   .     S
H147   C617    1.083   1_554 S
O149   Zn162   1.964   .     S
O149   Zn163   1.950   .     S
O149   Zn164   1.933   .     S
O149   Zn165   1.932   .     S
O150   Zn163   1.939   .     S
O151   Zn165   1.952   .     S
O152   Zn164   1.948   .     S
O153   Zn162   1.937   .     S
O154   Zn162   1.928   .     S
O155   Zn165   1.929   .     S
O156   Zn163   1.924   .     S
O157   Zn164   1.937   .     S
O158   Zn165   1.933   .     S
O159   Zn162   1.921   .     S
O160   Zn163   1.934   .     S
O161   Zn164   1.929   .     S
C166   O213    1.272   .     A
C166   O211    1.273   .     A
C166   C172    1.438   .     S
C167   C181    1.403   .     A
C167   N203    1.440   .     S
C167   C186    1.426   .     A
C168   C180    1.384   .     A
C168   H190    1.084   .     S
C168   C181    1.394   .     A
C169   O214    1.279   .     A
C169   C171    1.456   .     S
C169   O212    1.283   .     A
C170   C179    1.471   .     S
C170   C182    1.402   .     A
C170   C185    1.417   .     A
C171   C227    1.335   .     S
C171   H247    1.088   .     S
C172   C281    1.335   1_455 S
C172   H305    1.086   1_455 S
C173   C176    1.451   .     S
C173   C339    1.332   .     S
C173   H361    1.088   .     S
C174   C175    1.435   .     S
C175   O209    1.281   .     A
C175   O215    1.281   .     A
C176   O210    1.271   .     A
C176   O216    1.270   .     A
C177   C182    1.386   .     A
C177   C678    1.390   .     S
C177   H697    1.083   .     S
C178   O207    1.268   .     A
C178   C181    1.448   .     S
C178   O205    1.275   .     A
C179   O206    1.281   .     A
C179   O208    1.282   .     A
C180   C682    1.398   1_554 S
C180   H694    1.084   1_554 S
C182   H200    1.083   .     S
C183   H201    1.074   .     S
C183   C672    1.390   1_554 S
C183   C679    1.414   1_554 S
C184   C185    1.423   .     A
C184   C678    1.414   .     S
C184   C681    1.428   .     S
C185   C189    1.408   .     A
C186   C679    1.428   1_554 S
C186   C682    1.425   1_554 S
C187   C188    1.391   .     A
C187   C675    1.398   .     S
C187   C681    1.425   .     S
C188   C189    1.382   .     A
C188   H198    1.084   .     S
C189   H191    1.081   .     S
H192   C281    1.088   1_455 S
H193   N203    1.045   .     S
H194   N203    1.045   .     S
H195   C227    1.086   .     S
H197   C339    1.086   .     S
H199   C675    1.084   .     S
H202   C672    1.083   1_554 S
O204   Zn217   1.964   .     S
O204   Zn218   1.950   .     S
O204   Zn219   1.933   .     S
O204   Zn220   1.932   .     S
O205   Zn218   1.939   .     S
O206   Zn220   1.952   .     S
O207   Zn219   1.948   .     S
O208   Zn217   1.937   .     S
O209   Zn217   1.928   .     S
O210   Zn220   1.929   .     S
O211   Zn218   1.924   .     S
O212   Zn219   1.937   .     S
O213   Zn220   1.933   .     S
O214   Zn217   1.921   .     S
O215   Zn218   1.934   .     S
O216   Zn219   1.929   .     S
C221   O268    1.272   .     A
C221   O266    1.273   .     A
C221   C227    1.438   .     S
C222   C236    1.403   .     A
C222   N258    1.440   .     S
C222   C241    1.426   .     A
C223   C235    1.384   .     A
C223   H245    1.084   .     S
C223   C236    1.394   .     A
C224   O269    1.279   .     A
C224   C226    1.456   .     S
C224   O267    1.283   .     A
C225   C234    1.471   .     S
C225   C237    1.402   .     A
C225   C240    1.417   .     A
C226   C282    1.335   .     S
C226   H302    1.088   .     S
C228   C231    1.451   .     S
C228   C394    1.332   .     S
C228   H416    1.088   .     S
C229   C230    1.435   .     S
C230   O264    1.281   .     A
C230   O270    1.281   .     A
C231   O265    1.271   .     A
C231   O271    1.270   .     A
C232   C237    1.386   .     A
C232   C733    1.390   .     S
C232   H752    1.083   .     S
C233   O262    1.268   .     A
C233   C236    1.448   .     S
C233   O260    1.275   .     A
C234   O261    1.281   .     A
C234   O263    1.282   .     A
C235   C737    1.398   1_554 S
C235   H749    1.084   1_554 S
C237   H255    1.083   .     S
C238   H256    1.074   .     S
C238   C727    1.390   1_554 S
C238   C734    1.414   1_554 S
C239   C240    1.423   .     A
C239   C733    1.414   .     S
C239   C736    1.428   .     S
C240   C244    1.408   .     A
C241   C734    1.428   1_554 S
C241   C737    1.425   1_554 S
C242   C243    1.391   .     A
C242   C730    1.398   .     S
C242   C736    1.425   .     S
C243   C244    1.382   .     A
C243   H253    1.084   .     S
C244   H246    1.081   .     S
H248   N258    1.045   .     S
H249   N258    1.045   .     S
H250   C282    1.086   .     S
H252   C394    1.086   .     S
H254   C730    1.084   .     S
H257   C727    1.083   1_554 S
O259   Zn272   1.964   .     S
O259   Zn273   1.950   .     S
O259   Zn274   1.933   .     S
O259   Zn275   1.932   .     S
O260   Zn273   1.939   .     S
O261   Zn275   1.952   .     S
O262   Zn274   1.948   .     S
O263   Zn272   1.937   .     S
O264   Zn272   1.928   .     S
O265   Zn275   1.929   .     S
O266   Zn273   1.924   .     S
O267   Zn274   1.937   .     S
O268   Zn275   1.933   .     S
O269   Zn272   1.921   .     S
O270   Zn273   1.934   .     S
O271   Zn274   1.929   .     S
C276   O323    1.272   .     A
C276   O321    1.273   .     A
C276   C282    1.438   .     S
C277   C291    1.403   .     A
C277   N313    1.440   .     S
C277   C296    1.426   .     A
C278   C290    1.384   .     A
C278   H300    1.084   .     S
C278   C291    1.394   .     A
C279   O324    1.279   .     A
C279   C281    1.456   .     S
C279   O322    1.283   .     A
C280   C289    1.471   .     S
C280   C292    1.402   .     A
C280   C295    1.417   .     A
C281   C172    1.335   1_655 S
C281   H192    1.088   1_655 S
C283   C286    1.451   .     S
C283   C449    1.332   .     S
C283   H471    1.088   .     S
C284   C285    1.435   .     S
C285   O319    1.281   .     A
C285   O325    1.281   .     A
C286   O320    1.271   .     A
C286   O326    1.270   .     A
C287   C292    1.386   .     A
C287   C788    1.390   .     S
C287   H807    1.083   .     S
C288   O317    1.268   .     A
C288   C291    1.448   .     S
C288   O315    1.275   .     A
C289   O316    1.281   .     A
C289   O318    1.282   .     A
C290   C792    1.398   1_554 S
C290   H804    1.084   1_554 S
C292   H310    1.083   .     S
C293   H311    1.074   .     S
C293   C782    1.390   1_554 S
C293   C789    1.414   1_554 S
C294   C295    1.423   .     A
C294   C788    1.414   .     S
C294   C791    1.428   .     S
C295   C299    1.408   .     A
C296   C789    1.428   1_554 S
C296   C792    1.425   1_554 S
C297   C298    1.391   .     A
C297   C785    1.398   .     S
C297   C791    1.425   .     S
C298   C299    1.382   .     A
C298   H308    1.084   .     S
C299   H301    1.081   .     S
H303   N313    1.045   .     S
H304   N313    1.045   .     S
H305   C172    1.086   1_655 S
H307   C449    1.086   .     S
H309   C785    1.084   .     S
H312   C782    1.083   1_554 S
O314   Zn327   1.964   .     S
O314   Zn328   1.950   .     S
O314   Zn329   1.933   .     S
O314   Zn330   1.932   .     S
O315   Zn328   1.939   .     S
O316   Zn330   1.952   .     S
O317   Zn329   1.948   .     S
O318   Zn327   1.937   .     S
O319   Zn327   1.928   .     S
O320   Zn330   1.929   .     S
O321   Zn328   1.924   .     S
O322   Zn329   1.937   .     S
O323   Zn330   1.933   .     S
O324   Zn327   1.921   .     S
O325   Zn328   1.934   .     S
O326   Zn329   1.929   .     S
C331   O378    1.272   .     A
C331   O376    1.273   .     A
C331   C337    1.438   .     S
C332   C346    1.403   .     A
C332   N368    1.440   .     S
C332   C351    1.426   .     A
C333   C345    1.384   .     A
C333   H355    1.084   .     S
C333   C346    1.394   .     A
C334   O379    1.279   .     A
C334   C336    1.456   .     S
C334   O377    1.283   .     A
C335   C344    1.471   .     S
C335   C347    1.402   .     A
C335   C350    1.417   .     A
C336   C392    1.335   .     S
C336   H412    1.088   .     S
C337   C446    1.335   1_455 S
C337   H470    1.086   1_455 S
C338   C341    1.451   .     S
C338   C9      1.332   1_565 S
C338   H31     1.088   1_565 S
C339   C340    1.435   .     S
C340   O374    1.281   .     A
C340   O380    1.281   .     A
C341   O375    1.271   .     A
C341   O381    1.270   .     A
C342   C347    1.386   .     A
C342   C843    1.390   .     S
C342   H862    1.083   .     S
C343   O372    1.268   .     A
C343   C346    1.448   .     S
C343   O370    1.275   .     A
C344   O371    1.281   .     A
C344   O373    1.282   .     A
C345   C847    1.398   1_554 S
C345   H859    1.084   1_554 S
C347   H365    1.083   .     S
C348   H366    1.074   .     S
C348   C837    1.390   1_554 S
C348   C844    1.414   1_554 S
C349   C350    1.423   .     A
C349   C843    1.414   .     S
C349   C846    1.428   .     S
C350   C354    1.408   .     A
C351   C844    1.428   1_554 S
C351   C847    1.425   1_554 S
C352   C353    1.391   .     A
C352   C840    1.398   .     S
C352   C846    1.425   .     S
C353   C354    1.382   .     A
C353   H363    1.084   .     S
C354   H356    1.081   .     S
H357   C446    1.088   1_455 S
H358   N368    1.045   .     S
H359   N368    1.045   .     S
H360   C392    1.086   .     S
H362   C9      1.086   1_565 S
H364   C840    1.084   .     S
H367   C837    1.083   1_554 S
O369   Zn382   1.964   .     S
O369   Zn383   1.950   .     S
O369   Zn384   1.933   .     S
O369   Zn385   1.932   .     S
O370   Zn383   1.939   .     S
O371   Zn385   1.952   .     S
O372   Zn384   1.948   .     S
O373   Zn382   1.937   .     S
O374   Zn382   1.928   .     S
O375   Zn385   1.929   .     S
O376   Zn383   1.924   .     S
O377   Zn384   1.937   .     S
O378   Zn385   1.933   .     S
O379   Zn382   1.921   .     S
O380   Zn383   1.934   .     S
O381   Zn384   1.929   .     S
C386   O433    1.272   .     A
C386   O431    1.273   .     A
C386   C392    1.438   .     S
C387   C401    1.403   .     A
C387   N423    1.440   .     S
C387   C406    1.426   .     A
C388   C400    1.384   .     A
C388   H410    1.084   .     S
C388   C401    1.394   .     A
C389   O434    1.279   .     A
C389   C391    1.456   .     S
C389   O432    1.283   .     A
C390   C399    1.471   .     S
C390   C402    1.402   .     A
C390   C405    1.417   .     A
C391   C447    1.335   .     S
C391   H467    1.088   .     S
C393   C396    1.451   .     S
C393   C64     1.332   1_565 S
C393   H86     1.088   1_565 S
C394   C395    1.435   .     S
C395   O429    1.281   .     A
C395   O435    1.281   .     A
C396   O430    1.271   .     A
C396   O436    1.270   .     A
C397   C402    1.386   .     A
C397   C898    1.390   .     S
C397   H917    1.083   .     S
C398   O427    1.268   .     A
C398   C401    1.448   .     S
C398   O425    1.275   .     A
C399   O426    1.281   .     A
C399   O428    1.282   .     A
C400   C902    1.398   1_554 S
C400   H914    1.084   1_554 S
C402   H420    1.083   .     S
C403   H421    1.074   .     S
C403   C892    1.390   1_554 S
C403   C899    1.414   1_554 S
C404   C405    1.423   .     A
C404   C898    1.414   .     S
C404   C901    1.428   .     S
C405   C409    1.408   .     A
C406   C899    1.428   1_554 S
C406   C902    1.425   1_554 S
C407   C408    1.391   .     A
C407   C895    1.398   .     S
C407   C901    1.425   .     S
C408   C409    1.382   .     A
C408   H418    1.084   .     S
C409   H411    1.081   .     S
H413   N423    1.045   .     S
H414   N423    1.045   .     S
H415   C447    1.086   .     S
H417   C64     1.086   1_565 S
H419   C895    1.084   .     S
H422   C892    1.083   1_554 S
O424   Zn437   1.964   .     S
O424   Zn438   1.950   .     S
O424   Zn439   1.933   .     S
O424   Zn440   1.932   .     S
O425   Zn438   1.939   .     S
O426   Zn440   1.952   .     S
O427   Zn439   1.948   .     S
O428   Zn437   1.937   .     S
O429   Zn437   1.928   .     S
O430   Zn440   1.929   .     S
O431   Zn438   1.924   .     S
O432   Zn439   1.937   .     S
O433   Zn440   1.933   .     S
O434   Zn437   1.921   .     S
O435   Zn438   1.934   .     S
O436   Zn439   1.929   .     S
C441   O488    1.272   .     A
C441   O486    1.273   .     A
C441   C447    1.438   .     S
C442   C456    1.403   .     A
C442   N478    1.440   .     S
C442   C461    1.426   .     A
C443   C455    1.384   .     A
C443   H465    1.084   .     S
C443   C456    1.394   .     A
C444   O489    1.279   .     A
C444   C446    1.456   .     S
C444   O487    1.283   .     A
C445   C454    1.471   .     S
C445   C457    1.402   .     A
C445   C460    1.417   .     A
C446   C337    1.335   1_655 S
C446   H357    1.088   1_655 S
C448   C451    1.451   .     S
C448   C119    1.332   1_565 S
C448   H141    1.088   1_565 S
C449   C450    1.435   .     S
C450   O484    1.281   .     A
C450   O490    1.281   .     A
C451   O485    1.271   .     A
C451   O491    1.270   .     A
C452   C457    1.386   .     A
C452   C953    1.390   .     S
C452   H972    1.083   .     S
C453   O482    1.268   .     A
C453   C456    1.448   .     S
C453   O480    1.275   .     A
C454   O481    1.281   .     A
C454   O483    1.282   .     A
C455   C957    1.398   1_554 S
C455   H969    1.084   1_554 S
C457   H475    1.083   .     S
C458   H476    1.074   .     S
C458   C947    1.390   1_554 S
C458   C954    1.414   1_554 S
C459   C460    1.423   .     A
C459   C953    1.414   .     S
C459   C956    1.428   .     S
C460   C464    1.408   .     A
C461   C954    1.428   1_554 S
C461   C957    1.425   1_554 S
C462   C463    1.391   .     A
C462   C950    1.398   .     S
C462   C956    1.425   .     S
C463   C464    1.382   .     A
C463   H473    1.084   .     S
C464   H466    1.081   .     S
H468   N478    1.045   .     S
H469   N478    1.045   .     S
H470   C337    1.086   1_655 S
H472   C119    1.086   1_565 S
H474   C950    1.084   .     S
H477   C947    1.083   1_554 S
O479   Zn492   1.964   .     S
O479   Zn493   1.950   .     S
O479   Zn494   1.933   .     S
O479   Zn495   1.932   .     S
O480   Zn493   1.939   .     S
O481   Zn495   1.952   .     S
O482   Zn494   1.948   .     S
O483   Zn492   1.937   .     S
O484   Zn492   1.928   .     S
O485   Zn495   1.929   .     S
O486   Zn493   1.924   .     S
O487   Zn494   1.937   .     S
O488   Zn495   1.933   .     S
O489   Zn492   1.921   .     S
O490   Zn493   1.934   .     S
O491   Zn494   1.929   .     S
C496   O543    1.272   .     A
C496   O541    1.273   .     A
C496   C502    1.438   .     S
C497   C511    1.403   .     A
C497   N533    1.440   .     S
C497   C516    1.426   .     A
C498   C510    1.384   .     A
C498   H520    1.084   .     S
C498   C511    1.394   .     A
C499   O544    1.279   .     A
C499   C501    1.456   .     S
C499   O542    1.283   .     A
C500   C509    1.471   .     S
C500   C512    1.402   .     A
C500   C515    1.417   .     A
C501   C557    1.335   .     S
C501   H577    1.088   .     S
C502   C611    1.335   1_455 S
C502   H635    1.086   1_455 S
C503   C506    1.451   .     S
C503   C669    1.332   .     S
C503   H691    1.088   .     S
C504   C505    1.435   .     S
C504   C833    1.332   1_545 S
C504   H857    1.086   1_545 S
C505   O539    1.281   .     A
C505   O545    1.281   .     A
C506   O540    1.271   .     A
C506   O546    1.270   .     A
C507   C512    1.386   .     A
C507   C18     1.390   1_556 S
C507   H37     1.083   1_556 S
C508   O537    1.268   .     A
C508   C511    1.448   .     S
C508   O535    1.275   .     A
C509   O536    1.281   .     A
C509   O538    1.282   .     A
C512   H530    1.083   .     S
C513   H531    1.074   .     S
C514   C515    1.423   .     A
C514   C18     1.414   1_556 S
C514   C21     1.428   1_556 S
C515   C519    1.408   .     A
C517   C518    1.391   .     A
C517   C15     1.398   1_556 S
C517   C21     1.425   1_556 S
C518   C519    1.382   .     A
C518   H528    1.084   .     S
C519   H521    1.081   .     S
H522   C611    1.088   1_455 S
H523   N533    1.045   .     S
H524   N533    1.045   .     S
H525   C557    1.086   .     S
H526   C833    1.088   1_545 S
H527   C669    1.086   .     S
H529   C15     1.084   1_556 S
O534   Zn547   1.964   .     S
O534   Zn548   1.950   .     S
O534   Zn549   1.933   .     S
O534   Zn550   1.932   .     S
O535   Zn548   1.939   .     S
O536   Zn550   1.952   .     S
O537   Zn549   1.948   .     S
O538   Zn547   1.937   .     S
O539   Zn547   1.928   .     S
O540   Zn550   1.929   .     S
O541   Zn548   1.924   .     S
O542   Zn549   1.937   .     S
O543   Zn550   1.933   .     S
O544   Zn547   1.921   .     S
O545   Zn548   1.934   .     S
O546   Zn549   1.929   .     S
C551   O598    1.272   .     A
C551   O596    1.273   .     A
C551   C557    1.438   .     S
C552   C566    1.403   .     A
C552   N588    1.440   .     S
C552   C571    1.426   .     A
C553   C565    1.384   .     A
C553   H575    1.084   .     S
C553   C566    1.394   .     A
C554   O599    1.279   .     A
C554   C556    1.456   .     S
C554   O597    1.283   .     A
C555   C564    1.471   .     S
C555   C567    1.402   .     A
C555   C570    1.417   .     A
C556   C612    1.335   .     S
C556   H632    1.088   .     S
C558   C561    1.451   .     S
C558   C724    1.332   .     S
C558   H746    1.088   .     S
C559   C560    1.435   .     S
C559   C888    1.332   1_545 S
C559   H912    1.086   1_545 S
C560   O594    1.281   .     A
C560   O600    1.281   .     A
C561   O595    1.271   .     A
C561   O601    1.270   .     A
C562   C567    1.386   .     A
C562   C73     1.390   1_556 S
C562   H92     1.083   1_556 S
C563   O592    1.268   .     A
C563   C566    1.448   .     S
C563   O590    1.275   .     A
C564   O591    1.281   .     A
C564   O593    1.282   .     A
C567   H585    1.083   .     S
C568   H586    1.074   .     S
C569   C570    1.423   .     A
C569   C73     1.414   1_556 S
C569   C76     1.428   1_556 S
C570   C574    1.408   .     A
C572   C573    1.391   .     A
C572   C70     1.398   1_556 S
C572   C76     1.425   1_556 S
C573   C574    1.382   .     A
C573   H583    1.084   .     S
C574   H576    1.081   .     S
H578   N588    1.045   .     S
H579   N588    1.045   .     S
H580   C612    1.086   .     S
H581   C888    1.088   1_545 S
H582   C724    1.086   .     S
H584   C70     1.084   1_556 S
O589   Zn602   1.964   .     S
O589   Zn603   1.950   .     S
O589   Zn604   1.933   .     S
O589   Zn605   1.932   .     S
O590   Zn603   1.939   .     S
O591   Zn605   1.952   .     S
O592   Zn604   1.948   .     S
O593   Zn602   1.937   .     S
O594   Zn602   1.928   .     S
O595   Zn605   1.929   .     S
O596   Zn603   1.924   .     S
O597   Zn604   1.937   .     S
O598   Zn605   1.933   .     S
O599   Zn602   1.921   .     S
O600   Zn603   1.934   .     S
O601   Zn604   1.929   .     S
C606   O653    1.272   .     A
C606   O651    1.273   .     A
C606   C612    1.438   .     S
C607   C621    1.403   .     A
C607   N643    1.440   .     S
C607   C626    1.426   .     A
C608   C620    1.384   .     A
C608   H630    1.084   .     S
C608   C621    1.394   .     A
C609   O654    1.279   .     A
C609   C611    1.456   .     S
C609   O652    1.283   .     A
C610   C619    1.471   .     S
C610   C622    1.402   .     A
C610   C625    1.417   .     A
C611   C502    1.335   1_655 S
C611   H522    1.088   1_655 S
C613   C616    1.451   .     S
C613   C779    1.332   .     S
C613   H801    1.088   .     S
C614   C615    1.435   .     S
C614   C943    1.332   1_545 S
C614   H967    1.086   1_545 S
C615   O649    1.281   .     A
C615   O655    1.281   .     A
C616   O650    1.271   .     A
C616   O656    1.270   .     A
C617   C622    1.386   .     A
C617   C128    1.390   1_556 S
C617   H147    1.083   1_556 S
C618   O647    1.268   .     A
C618   C621    1.448   .     S
C618   O645    1.275   .     A
C619   O646    1.281   .     A
C619   O648    1.282   .     A
C622   H640    1.083   .     S
C623   H641    1.074   .     S
C624   C625    1.423   .     A
C624   C128    1.414   1_556 S
C624   C131    1.428   1_556 S
C625   C629    1.408   .     A
C627   C628    1.391   .     A
C627   C125    1.398   1_556 S
C627   C131    1.425   1_556 S
C628   C629    1.382   .     A
C628   H638    1.084   .     S
C629   H631    1.081   .     S
H633   N643    1.045   .     S
H634   N643    1.045   .     S
H635   C502    1.086   1_655 S
H636   C943    1.088   1_545 S
H637   C779    1.086   .     S
H639   C125    1.084   1_556 S
O644   Zn657   1.964   .     S
O644   Zn658   1.950   .     S
O644   Zn659   1.933   .     S
O644   Zn660   1.932   .     S
O645   Zn658   1.939   .     S
O646   Zn660   1.952   .     S
O647   Zn659   1.948   .     S
O648   Zn657   1.937   .     S
O649   Zn657   1.928   .     S
O650   Zn660   1.929   .     S
O651   Zn658   1.924   .     S
O652   Zn659   1.937   .     S
O653   Zn660   1.933   .     S
O654   Zn657   1.921   .     S
O655   Zn658   1.934   .     S
O656   Zn659   1.929   .     S
C661   O708    1.272   .     A
C661   O706    1.273   .     A
C661   C667    1.438   .     S
C662   C676    1.403   .     A
C662   N698    1.440   .     S
C662   C681    1.426   .     A
C663   C675    1.384   .     A
C663   H685    1.084   .     S
C663   C676    1.394   .     A
C664   O709    1.279   .     A
C664   C666    1.456   .     S
C664   O707    1.283   .     A
C665   C674    1.471   .     S
C665   C677    1.402   .     A
C665   C680    1.417   .     A
C666   C722    1.335   .     S
C666   H742    1.088   .     S
C667   C776    1.335   1_455 S
C667   H800    1.086   1_455 S
C668   C671    1.451   .     S
C668   C834    1.332   .     S
C668   H856    1.088   .     S
C669   C670    1.435   .     S
C670   O704    1.281   .     A
C670   O710    1.281   .     A
C671   O705    1.271   .     A
C671   O711    1.270   .     A
C672   C677    1.386   .     A
C672   C183    1.390   1_556 S
C672   H202    1.083   1_556 S
C673   O702    1.268   .     A
C673   C676    1.448   .     S
C673   O700    1.275   .     A
C674   O701    1.281   .     A
C674   O703    1.282   .     A
C677   H695    1.083   .     S
C678   H696    1.074   .     S
C679   C680    1.423   .     A
C679   C183    1.414   1_556 S
C679   C186    1.428   1_556 S
C680   C684    1.408   .     A
C682   C683    1.391   .     A
C682   C180    1.398   1_556 S
C682   C186    1.425   1_556 S
C683   C684    1.382   .     A
C683   H693    1.084   .     S
C684   H686    1.081   .     S
H687   C776    1.088   1_455 S
H688   N698    1.045   .     S
H689   N698    1.045   .     S
H690   C722    1.086   .     S
H692   C834    1.086   .     S
H694   C180    1.084   1_556 S
O699   Zn712   1.964   .     S
O699   Zn713   1.950   .     S
O699   Zn714   1.933   .     S
O699   Zn715   1.932   .     S
O700   Zn713   1.939   .     S
O701   Zn715   1.952   .     S
O702   Zn714   1.948   .     S
O703   Zn712   1.937   .     S
O704   Zn712   1.928   .     S
O705   Zn715   1.929   .     S
O706   Zn713   1.924   .     S
O707   Zn714   1.937   .     S
O708   Zn715   1.933   .     S
O709   Zn712   1.921   .     S
O710   Zn713   1.934   .     S
O711   Zn714   1.929   .     S
C716   O763    1.272   .     A
C716   O761    1.273   .     A
C716   C722    1.438   .     S
C717   C731    1.403   .     A
C717   N753    1.440   .     S
C717   C736    1.426   .     A
C718   C730    1.384   .     A
C718   H740    1.084   .     S
C718   C731    1.394   .     A
C719   O764    1.279   .     A
C719   C721    1.456   .     S
C719   O762    1.283   .     A
C720   C729    1.471   .     S
C720   C732    1.402   .     A
C720   C735    1.417   .     A
C721   C777    1.335   .     S
C721   H797    1.088   .     S
C723   C726    1.451   .     S
C723   C889    1.332   .     S
C723   H911    1.088   .     S
C724   C725    1.435   .     S
C725   O759    1.281   .     A
C725   O765    1.281   .     A
C726   O760    1.271   .     A
C726   O766    1.270   .     A
C727   C732    1.386   .     A
C727   C238    1.390   1_556 S
C727   H257    1.083   1_556 S
C728   O757    1.268   .     A
C728   C731    1.448   .     S
C728   O755    1.275   .     A
C729   O756    1.281   .     A
C729   O758    1.282   .     A
C732   H750    1.083   .     S
C733   H751    1.074   .     S
C734   C735    1.423   .     A
C734   C238    1.414   1_556 S
C734   C241    1.428   1_556 S
C735   C739    1.408   .     A
C737   C738    1.391   .     A
C737   C235    1.398   1_556 S
C737   C241    1.425   1_556 S
C738   C739    1.382   .     A
C738   H748    1.084   .     S
C739   H741    1.081   .     S
H743   N753    1.045   .     S
H744   N753    1.045   .     S
H745   C777    1.086   .     S
H747   C889    1.086   .     S
H749   C235    1.084   1_556 S
O754   Zn767   1.964   .     S
O754   Zn768   1.950   .     S
O754   Zn769   1.933   .     S
O754   Zn770   1.932   .     S
O755   Zn768   1.939   .     S
O756   Zn770   1.952   .     S
O757   Zn769   1.948   .     S
O758   Zn767   1.937   .     S
O759   Zn767   1.928   .     S
O760   Zn770   1.929   .     S
O761   Zn768   1.924   .     S
O762   Zn769   1.937   .     S
O763   Zn770   1.933   .     S
O764   Zn767   1.921   .     S
O765   Zn768   1.934   .     S
O766   Zn769   1.929   .     S
C771   O818    1.272   .     A
C771   O816    1.273   .     A
C771   C777    1.438   .     S
C772   C786    1.403   .     A
C772   N808    1.440   .     S
C772   C791    1.426   .     A
C773   C785    1.384   .     A
C773   H795    1.084   .     S
C773   C786    1.394   .     A
C774   O819    1.279   .     A
C774   C776    1.456   .     S
C774   O817    1.283   .     A
C775   C784    1.471   .     S
C775   C787    1.402   .     A
C775   C790    1.417   .     A
C776   C667    1.335   1_655 S
C776   H687    1.088   1_655 S
C778   C781    1.451   .     S
C778   C944    1.332   .     S
C778   H966    1.088   .     S
C779   C780    1.435   .     S
C780   O814    1.281   .     A
C780   O820    1.281   .     A
C781   O815    1.271   .     A
C781   O821    1.270   .     A
C782   C787    1.386   .     A
C782   C293    1.390   1_556 S
C782   H312    1.083   1_556 S
C783   O812    1.268   .     A
C783   C786    1.448   .     S
C783   O810    1.275   .     A
C784   O811    1.281   .     A
C784   O813    1.282   .     A
C787   H805    1.083   .     S
C788   H806    1.074   .     S
C789   C790    1.423   .     A
C789   C293    1.414   1_556 S
C789   C296    1.428   1_556 S
C790   C794    1.408   .     A
C792   C793    1.391   .     A
C792   C290    1.398   1_556 S
C792   C296    1.425   1_556 S
C793   C794    1.382   .     A
C793   H803    1.084   .     S
C794   H796    1.081   .     S
H798   N808    1.045   .     S
H799   N808    1.045   .     S
H800   C667    1.086   1_655 S
H802   C944    1.086   .     S
H804   C290    1.084   1_556 S
O809   Zn822   1.964   .     S
O809   Zn823   1.950   .     S
O809   Zn824   1.933   .     S
O809   Zn825   1.932   .     S
O810   Zn823   1.939   .     S
O811   Zn825   1.952   .     S
O812   Zn824   1.948   .     S
O813   Zn822   1.937   .     S
O814   Zn822   1.928   .     S
O815   Zn825   1.929   .     S
O816   Zn823   1.924   .     S
O817   Zn824   1.937   .     S
O818   Zn825   1.933   .     S
O819   Zn822   1.921   .     S
O820   Zn823   1.934   .     S
O821   Zn824   1.929   .     S
C826   O873    1.272   .     A
C826   O871    1.273   .     A
C826   C832    1.438   .     S
C827   C841    1.403   .     A
C827   N863    1.440   .     S
C827   C846    1.426   .     A
C828   C840    1.384   .     A
C828   H850    1.084   .     S
C828   C841    1.394   .     A
C829   O874    1.279   .     A
C829   C831    1.456   .     S
C829   O872    1.283   .     A
C830   C839    1.471   .     S
C830   C842    1.402   .     A
C830   C845    1.417   .     A
C831   C887    1.335   .     S
C831   H907    1.088   .     S
C832   C941    1.335   1_455 S
C832   H965    1.086   1_455 S
C833   C836    1.451   .     S
C833   C504    1.332   1_565 S
C833   H526    1.088   1_565 S
C834   C835    1.435   .     S
C835   O869    1.281   .     A
C835   O875    1.281   .     A
C836   O870    1.271   .     A
C836   O876    1.270   .     A
C837   C842    1.386   .     A
C837   C348    1.390   1_556 S
C837   H367    1.083   1_556 S
C838   O867    1.268   .     A
C838   C841    1.448   .     S
C838   O865    1.275   .     A
C839   O866    1.281   .     A
C839   O868    1.282   .     A
C842   H860    1.083   .     S
C843   H861    1.074   .     S
C844   C845    1.423   .     A
C844   C348    1.414   1_556 S
C844   C351    1.428   1_556 S
C845   C849    1.408   .     A
C847   C848    1.391   .     A
C847   C345    1.398   1_556 S
C847   C351    1.425   1_556 S
C848   C849    1.382   .     A
C848   H858    1.084   .     S
C849   H851    1.081   .     S
H852   C941    1.088   1_455 S
H853   N863    1.045   .     S
H854   N863    1.045   .     S
H855   C887    1.086   .     S
H857   C504    1.086   1_565 S
H859   C345    1.084   1_556 S
O864   Zn877   1.964   .     S
O864   Zn878   1.950   .     S
O864   Zn879   1.933   .     S
O864   Zn880   1.932   .     S
O865   Zn878   1.939   .     S
O866   Zn880   1.952   .     S
O867   Zn879   1.948   .     S
O868   Zn877   1.937   .     S
O869   Zn877   1.928   .     S
O870   Zn880   1.929   .     S
O871   Zn878   1.924   .     S
O872   Zn879   1.937   .     S
O873   Zn880   1.933   .     S
O874   Zn877   1.921   .     S
O875   Zn878   1.934   .     S
O876   Zn879   1.929   .     S
C881   O928    1.272   .     A
C881   O926    1.273   .     A
C881   C887    1.438   .     S
C882   C896    1.403   .     A
C882   N918    1.440   .     S
C882   C901    1.426   .     A
C883   C895    1.384   .     A
C883   H905    1.084   .     S
C883   C896    1.394   .     A
C884   O929    1.279   .     A
C884   C886    1.456   .     S
C884   O927    1.283   .     A
C885   C894    1.471   .     S
C885   C897    1.402   .     A
C885   C900    1.417   .     A
C886   C942    1.335   .     S
C886   H962    1.088   .     S
C888   C891    1.451   .     S
C888   C559    1.332   1_565 S
C888   H581    1.088   1_565 S
C889   C890    1.435   .     S
C890   O924    1.281   .     A
C890   O930    1.281   .     A
C891   O925    1.271   .     A
C891   O931    1.270   .     A
C892   C897    1.386   .     A
C892   C403    1.390   1_556 S
C892   H422    1.083   1_556 S
C893   O922    1.268   .     A
C893   C896    1.448   .     S
C893   O920    1.275   .     A
C894   O921    1.281   .     A
C894   O923    1.282   .     A
C897   H915    1.083   .     S
C898   H916    1.074   .     S
C899   C900    1.423   .     A
C899   C403    1.414   1_556 S
C899   C406    1.428   1_556 S
C900   C904    1.408   .     A
C902   C903    1.391   .     A
C902   C400    1.398   1_556 S
C902   C406    1.425   1_556 S
C903   C904    1.382   .     A
C903   H913    1.084   .     S
C904   H906    1.081   .     S
H908   N918    1.045   .     S
H909   N918    1.045   .     S
H910   C942    1.086   .     S
H912   C559    1.086   1_565 S
H914   C400    1.084   1_556 S
O919   Zn932   1.964   .     S
O919   Zn933   1.950   .     S
O919   Zn934   1.933   .     S
O919   Zn935   1.932   .     S
O920   Zn933   1.939   .     S
O921   Zn935   1.952   .     S
O922   Zn934   1.948   .     S
O923   Zn932   1.937   .     S
O924   Zn932   1.928   .     S
O925   Zn935   1.929   .     S
O926   Zn933   1.924   .     S
O927   Zn934   1.937   .     S
O928   Zn935   1.933   .     S
O929   Zn932   1.921   .     S
O930   Zn933   1.934   .     S
O931   Zn934   1.929   .     S
C936   O983    1.272   .     A
C936   O981    1.273   .     A
C936   C942    1.438   .     S
C937   C951    1.403   .     A
C937   N973    1.440   .     S
C937   C956    1.426   .     A
C938   C950    1.384   .     A
C938   H960    1.084   .     S
C938   C951    1.394   .     A
C939   O984    1.279   .     A
C939   C941    1.456   .     S
C939   O982    1.283   .     A
C940   C949    1.471   .     S
C940   C952    1.402   .     A
C940   C955    1.417   .     A
C941   C832    1.335   1_655 S
C941   H852    1.088   1_655 S
C943   C946    1.451   .     S
C943   C614    1.332   1_565 S
C943   H636    1.088   1_565 S
C944   C945    1.435   .     S
C945   O979    1.281   .     A
C945   O985    1.281   .     A
C946   O980    1.271   .     A
C946   O986    1.270   .     A
C947   C952    1.386   .     A
C947   C458    1.390   1_556 S
C947   H477    1.083   1_556 S
C948   O977    1.268   .     A
C948   C951    1.448   .     S
C948   O975    1.275   .     A
C949   O976    1.281   .     A
C949   O978    1.282   .     A
C952   H970    1.083   .     S
C953   H971    1.074   .     S
C954   C955    1.423   .     A
C954   C458    1.414   1_556 S
C954   C461    1.428   1_556 S
C955   C959    1.408   .     A
C957   C958    1.391   .     A
C957   C455    1.398   1_556 S
C957   C461    1.425   1_556 S
C958   C959    1.382   .     A
C958   H968    1.084   .     S
C959   H961    1.081   .     S
H963   N973    1.045   .     S
H964   N973    1.045   .     S
H965   C832    1.086   1_655 S
H967   C614    1.086   1_565 S
H969   C455    1.084   1_556 S
O974   Zn987   1.964   .     S
O974   Zn988   1.950   .     S
O974   Zn989   1.933   .     S
O974   Zn990   1.932   .     S
O975   Zn988   1.939   .     S
O976   Zn990   1.952   .     S
O977   Zn989   1.948   .     S
O978   Zn987   1.937   .     S
O979   Zn987   1.928   .     S
O980   Zn990   1.929   .     S
O981   Zn988   1.924   .     S
O982   Zn989   1.937   .     S
O983   Zn990   1.933   .     S
O984   Zn987   1.921   .     S
O985   Zn988   1.934   .     S
O986   Zn989   1.929   .     S
