data_str_m1_o10_o16_pcu_sym.219
_audit_creation_date              2020-01-03
_audit_creation_method            'Materials Studio'
_symmetry_space_group_name_H-M    'P1'
_symmetry_Int_Tables_number       1
_symmetry_cell_setting            triclinic
loop_
_symmetry_equiv_pos_as_xyz
  x,y,z
_cell_length_a                    32.5977
_cell_length_b                    32.5060
_cell_length_c                    31.0933
_cell_angle_alpha                 96.0836
_cell_angle_beta                  74.2053
_cell_angle_gamma                 98.5941
loop_
_atom_site_label
_atom_site_type_symbol
_atom_site_fract_x
_atom_site_fract_y
_atom_site_fract_z
_atom_site_U_iso_or_equiv
_atom_site_adp_type
_atom_site_occupancy
C1     C     0.05269   0.15937   0.26060   0.00000  Uiso   1.00
C2     C     0.16596   0.15356   0.05952   0.00000  Uiso   1.00
C3     C     0.23673   0.13684   0.05647   0.00000  Uiso   1.00
C4     C     0.28102   0.17385   0.23961   0.00000  Uiso   1.00
C5     C     0.13850   0.18969   0.42021   0.00000  Uiso   1.00
C6     C     0.32740   0.17638   0.23420   0.00000  Uiso   1.00
C7     C     0.00760   0.15806   0.26368   0.00000  Uiso   1.00
C8     C     0.18072   0.32261   0.23616   0.00000  Uiso   1.00
C9     C     0.15219   0.01176   0.26386   0.00000  Uiso   1.00
C10    C     0.15634   0.05591   0.26008   0.00000  Uiso   1.00
C11    C     0.17670   0.27799   0.24005   0.00000  Uiso   1.00
C12    C     0.08274   0.19535   0.48952   0.00000  Uiso   1.00
C13    C     0.18562   0.14850   0.12931   0.00000  Uiso   1.00
C14    C     0.14904   0.18509   0.37084   0.00000  Uiso   1.00
C15    C     0.24988   0.14215   0.01087   0.00000  Uiso   1.00
C16    C     0.19508   0.14313   0.08084   0.00000  Uiso   1.00
C17    C     0.09708   0.19833   0.44354   0.00000  Uiso   1.00
C18    C     0.02560   0.19908   0.19612   0.00000  Uiso   1.00
C19    C     0.10893   0.18268   0.01293   0.00000  Uiso   1.00
C20    C     0.15132   0.17442   0.49088   0.00000  Uiso   1.00
C21    C     0.16688   0.18041   0.44424   0.00000  Uiso   1.00
C22    C     0.17894   0.16073   0.01351   0.00000  Uiso   1.00
C23    C     0.22184   0.15506   0.48946   0.00000  Uiso   1.00
C24    C     0.23720   0.16416   0.44476   0.00000  Uiso   1.00
C25    C     0.21051   0.17750   0.42278   0.00000  Uiso   1.00
H26    H     0.25964   0.12960   0.07322   0.00000  Uiso   1.00
H27    H     0.05046   0.20160   0.00702   0.00000  Uiso   1.00
H28    H     0.22505   0.18641   0.38896   0.00000  Uiso   1.00
H29    H     0.00918   0.21235   0.17489   0.00000  Uiso   1.00
H30    H     0.04562   0.22513   0.20981   0.00000  Uiso   1.00
H31    H     0.04683   0.17720   0.17433   0.00000  Uiso   1.00
H32    H     0.31852   0.14237   0.29150   0.00000  Uiso   1.00
H33    H     0.20709   0.00394   0.21061   0.00000  Uiso   1.00
H34    H     0.12552   0.33117   0.28957   0.00000  Uiso   1.00
H35    H     0.27036   0.16161   0.42679   0.00000  Uiso   1.00
H36    H     0.28263   0.13798   0.49273   0.00000  Uiso   1.00
H37    H     0.13455   0.15843   0.08041   0.00000  Uiso   1.00
H38    H     0.07497   0.20579   0.42591   0.00000  Uiso   1.00
H39    H     0.09500   0.18005   0.04828   0.00000  Uiso   1.00
O40    O     0.16667   0.16667   0.25000   0.00000  Uiso   1.00
O41    O     0.15451   0.12637   0.15458   0.00000  Uiso   1.00
O42    O     0.12940   0.20391   0.34968   0.00000  Uiso   1.00
O43    O     0.20824   0.17759   0.14606   0.00000  Uiso   1.00
O44    O     0.17451   0.15880   0.34968   0.00000  Uiso   1.00
O45    O     0.17930   0.08019   0.28213   0.00000  Uiso   1.00
O46    O     0.14632   0.26085   0.27014   0.00000  Uiso   1.00
O47    O     0.07412   0.13291   0.23413   0.00000  Uiso   1.00
O48    O     0.26693   0.19272   0.21360   0.00000  Uiso   1.00
O49    O     0.07071   0.18878   0.28213   0.00000  Uiso   1.00
O50    O     0.25491   0.15226   0.27013   0.00000  Uiso   1.00
O51    O     0.13760   0.06944   0.23413   0.00000  Uiso   1.00
O52    O     0.20345   0.25620   0.21361   0.00000  Uiso   1.00
Zn53   Zn    0.19338   0.13994   0.28734   0.00000  Uiso   1.00
Zn54   Zn    0.13379   0.12458   0.21875   0.00000  Uiso   1.00
Zn55   Zn    0.21056   0.19775   0.20657   0.00000  Uiso   1.00
Zn56   Zn    0.12893   0.20439   0.28734   0.00000  Uiso   1.00
C57    C     0.38602   0.15937   0.26060   0.00000  Uiso   1.00
C58    C     0.49929   0.15356   0.05952   0.00000  Uiso   1.00
C59    C     0.57007   0.13684   0.05647   0.00000  Uiso   1.00
C60    C     0.61436   0.17385   0.23961   0.00000  Uiso   1.00
C61    C     0.47184   0.18969   0.42021   0.00000  Uiso   1.00
C62    C     0.66074   0.17638   0.23420   0.00000  Uiso   1.00
C63    C     0.34093   0.15806   0.26368   0.00000  Uiso   1.00
C64    C     0.51405   0.32261   0.23616   0.00000  Uiso   1.00
C65    C     0.48552   0.01176   0.26386   0.00000  Uiso   1.00
C66    C     0.48967   0.05591   0.26008   0.00000  Uiso   1.00
C67    C     0.51003   0.27799   0.24005   0.00000  Uiso   1.00
C68    C     0.41607   0.19535   0.48952   0.00000  Uiso   1.00
C69    C     0.51895   0.14850   0.12931   0.00000  Uiso   1.00
C70    C     0.48238   0.18509   0.37084   0.00000  Uiso   1.00
C71    C     0.58321   0.14215   0.01087   0.00000  Uiso   1.00
C72    C     0.52841   0.14313   0.08084   0.00000  Uiso   1.00
C73    C     0.43041   0.19833   0.44354   0.00000  Uiso   1.00
C74    C     0.35894   0.19908   0.19612   0.00000  Uiso   1.00
C75    C     0.44226   0.18268   0.01293   0.00000  Uiso   1.00
C76    C     0.48466   0.17442   0.49088   0.00000  Uiso   1.00
C77    C     0.50021   0.18041   0.44424   0.00000  Uiso   1.00
C78    C     0.51227   0.16073   0.01351   0.00000  Uiso   1.00
C79    C     0.55518   0.15506   0.48946   0.00000  Uiso   1.00
C80    C     0.57053   0.16416   0.44476   0.00000  Uiso   1.00
C81    C     0.54385   0.17750   0.42278   0.00000  Uiso   1.00
H82    H     0.59297   0.12960   0.07322   0.00000  Uiso   1.00
H83    H     0.38380   0.20160   0.00702   0.00000  Uiso   1.00
H84    H     0.55838   0.18641   0.38896   0.00000  Uiso   1.00
H85    H     0.34251   0.21235   0.17489   0.00000  Uiso   1.00
H86    H     0.37895   0.22513   0.20981   0.00000  Uiso   1.00
H87    H     0.38016   0.17720   0.17433   0.00000  Uiso   1.00
H88    H     0.65185   0.14237   0.29150   0.00000  Uiso   1.00
H89    H     0.54042   0.00394   0.21061   0.00000  Uiso   1.00
H90    H     0.45885   0.33117   0.28957   0.00000  Uiso   1.00
H91    H     0.60370   0.16161   0.42679   0.00000  Uiso   1.00
H92    H     0.61596   0.13798   0.49273   0.00000  Uiso   1.00
H93    H     0.46788   0.15843   0.08041   0.00000  Uiso   1.00
H94    H     0.40830   0.20579   0.42591   0.00000  Uiso   1.00
H95    H     0.42834   0.18005   0.04828   0.00000  Uiso   1.00
O96    O     0.50000   0.16667   0.25000   0.00000  Uiso   1.00
O97    O     0.48784   0.12637   0.15458   0.00000  Uiso   1.00
O98    O     0.46274   0.20391   0.34968   0.00000  Uiso   1.00
O99    O     0.54157   0.17759   0.14606   0.00000  Uiso   1.00
O100   O     0.50785   0.15880   0.34968   0.00000  Uiso   1.00
O101   O     0.51264   0.08019   0.28213   0.00000  Uiso   1.00
O102   O     0.47965   0.26085   0.27014   0.00000  Uiso   1.00
O103   O     0.40745   0.13291   0.23413   0.00000  Uiso   1.00
O104   O     0.60026   0.19272   0.21360   0.00000  Uiso   1.00
O105   O     0.40405   0.18878   0.28213   0.00000  Uiso   1.00
O106   O     0.58824   0.15226   0.27013   0.00000  Uiso   1.00
O107   O     0.47093   0.06944   0.23413   0.00000  Uiso   1.00
O108   O     0.53678   0.25620   0.21361   0.00000  Uiso   1.00
Zn109  Zn    0.52672   0.13994   0.28734   0.00000  Uiso   1.00
Zn110  Zn    0.46713   0.12458   0.21875   0.00000  Uiso   1.00
Zn111  Zn    0.54389   0.19775   0.20657   0.00000  Uiso   1.00
Zn112  Zn    0.46226   0.20439   0.28734   0.00000  Uiso   1.00
C113   C     0.71935   0.15937   0.26060   0.00000  Uiso   1.00
C114   C     0.83263   0.15356   0.05952   0.00000  Uiso   1.00
C115   C     0.90340   0.13684   0.05647   0.00000  Uiso   1.00
C116   C     0.94769   0.17385   0.23961   0.00000  Uiso   1.00
C117   C     0.80517   0.18969   0.42021   0.00000  Uiso   1.00
C118   C     0.99407   0.17638   0.23420   0.00000  Uiso   1.00
C119   C     0.67427   0.15806   0.26368   0.00000  Uiso   1.00
C120   C     0.84739   0.32261   0.23616   0.00000  Uiso   1.00
C121   C     0.81885   0.01176   0.26386   0.00000  Uiso   1.00
C122   C     0.82301   0.05591   0.26008   0.00000  Uiso   1.00
C123   C     0.84337   0.27799   0.24005   0.00000  Uiso   1.00
C124   C     0.74940   0.19535   0.48952   0.00000  Uiso   1.00
C125   C     0.85228   0.14850   0.12931   0.00000  Uiso   1.00
C126   C     0.81571   0.18509   0.37084   0.00000  Uiso   1.00
C127   C     0.91655   0.14215   0.01087   0.00000  Uiso   1.00
C128   C     0.86175   0.14313   0.08084   0.00000  Uiso   1.00
C129   C     0.76374   0.19833   0.44354   0.00000  Uiso   1.00
C130   C     0.69227   0.19908   0.19612   0.00000  Uiso   1.00
C131   C     0.77560   0.18268   0.01293   0.00000  Uiso   1.00
C132   C     0.81799   0.17442   0.49088   0.00000  Uiso   1.00
C133   C     0.83355   0.18041   0.44424   0.00000  Uiso   1.00
C134   C     0.84560   0.16073   0.01351   0.00000  Uiso   1.00
C135   C     0.88851   0.15506   0.48946   0.00000  Uiso   1.00
C136   C     0.90387   0.16416   0.44476   0.00000  Uiso   1.00
C137   C     0.87718   0.17750   0.42278   0.00000  Uiso   1.00
H138   H     0.92630   0.12960   0.07322   0.00000  Uiso   1.00
H139   H     0.71713   0.20160   0.00702   0.00000  Uiso   1.00
H140   H     0.89171   0.18641   0.38896   0.00000  Uiso   1.00
H141   H     0.67585   0.21235   0.17489   0.00000  Uiso   1.00
H142   H     0.71228   0.22513   0.20981   0.00000  Uiso   1.00
H143   H     0.71349   0.17720   0.17433   0.00000  Uiso   1.00
H144   H     0.98519   0.14237   0.29150   0.00000  Uiso   1.00
H145   H     0.87376   0.00394   0.21061   0.00000  Uiso   1.00
H146   H     0.79218   0.33117   0.28957   0.00000  Uiso   1.00
H147   H     0.93703   0.16161   0.42679   0.00000  Uiso   1.00
H148   H     0.94930   0.13798   0.49273   0.00000  Uiso   1.00
H149   H     0.80121   0.15843   0.08041   0.00000  Uiso   1.00
H150   H     0.74164   0.20579   0.42591   0.00000  Uiso   1.00
H151   H     0.76167   0.18005   0.04828   0.00000  Uiso   1.00
O152   O     0.83333   0.16667   0.25000   0.00000  Uiso   1.00
O153   O     0.82118   0.12637   0.15458   0.00000  Uiso   1.00
O154   O     0.79607   0.20391   0.34968   0.00000  Uiso   1.00
O155   O     0.87491   0.17759   0.14606   0.00000  Uiso   1.00
O156   O     0.84118   0.15880   0.34968   0.00000  Uiso   1.00
O157   O     0.84597   0.08019   0.28213   0.00000  Uiso   1.00
O158   O     0.81298   0.26085   0.27014   0.00000  Uiso   1.00
O159   O     0.74078   0.13291   0.23413   0.00000  Uiso   1.00
O160   O     0.93360   0.19272   0.21360   0.00000  Uiso   1.00
O161   O     0.73738   0.18878   0.28213   0.00000  Uiso   1.00
O162   O     0.92158   0.15226   0.27013   0.00000  Uiso   1.00
O163   O     0.80426   0.06944   0.23413   0.00000  Uiso   1.00
O164   O     0.87012   0.25620   0.21361   0.00000  Uiso   1.00
Zn165  Zn    0.86005   0.13994   0.28734   0.00000  Uiso   1.00
Zn166  Zn    0.80046   0.12458   0.21875   0.00000  Uiso   1.00
Zn167  Zn    0.87723   0.19775   0.20657   0.00000  Uiso   1.00
Zn168  Zn    0.79560   0.20439   0.28734   0.00000  Uiso   1.00
C169   C     0.05269   0.49271   0.26060   0.00000  Uiso   1.00
C170   C     0.16596   0.48689   0.05952   0.00000  Uiso   1.00
C171   C     0.23673   0.47018   0.05647   0.00000  Uiso   1.00
C172   C     0.28102   0.50718   0.23961   0.00000  Uiso   1.00
C173   C     0.13850   0.52302   0.42021   0.00000  Uiso   1.00
C174   C     0.32740   0.50972   0.23420   0.00000  Uiso   1.00
C175   C     0.00760   0.49139   0.26368   0.00000  Uiso   1.00
C176   C     0.18072   0.65594   0.23616   0.00000  Uiso   1.00
C177   C     0.15219   0.34509   0.26386   0.00000  Uiso   1.00
C178   C     0.15634   0.38924   0.26008   0.00000  Uiso   1.00
C179   C     0.17670   0.61132   0.24005   0.00000  Uiso   1.00
C180   C     0.08274   0.52868   0.48952   0.00000  Uiso   1.00
C181   C     0.18562   0.48183   0.12931   0.00000  Uiso   1.00
C182   C     0.14904   0.51842   0.37084   0.00000  Uiso   1.00
C183   C     0.24988   0.47548   0.01087   0.00000  Uiso   1.00
C184   C     0.19508   0.47647   0.08084   0.00000  Uiso   1.00
C185   C     0.09708   0.53166   0.44354   0.00000  Uiso   1.00
C186   C     0.02560   0.53242   0.19612   0.00000  Uiso   1.00
C187   C     0.10893   0.51602   0.01293   0.00000  Uiso   1.00
C188   C     0.15132   0.50776   0.49088   0.00000  Uiso   1.00
C189   C     0.16688   0.51374   0.44424   0.00000  Uiso   1.00
C190   C     0.17894   0.49406   0.01351   0.00000  Uiso   1.00
C191   C     0.22184   0.48839   0.48946   0.00000  Uiso   1.00
C192   C     0.23720   0.49749   0.44476   0.00000  Uiso   1.00
C193   C     0.21051   0.51083   0.42278   0.00000  Uiso   1.00
H194   H     0.25964   0.46293   0.07322   0.00000  Uiso   1.00
H195   H     0.05046   0.53493   0.00702   0.00000  Uiso   1.00
H196   H     0.22505   0.51974   0.38896   0.00000  Uiso   1.00
H197   H     0.00918   0.54569   0.17489   0.00000  Uiso   1.00
H198   H     0.04562   0.55847   0.20981   0.00000  Uiso   1.00
H199   H     0.04683   0.51053   0.17433   0.00000  Uiso   1.00
H200   H     0.31852   0.47571   0.29150   0.00000  Uiso   1.00
H201   H     0.20709   0.33727   0.21061   0.00000  Uiso   1.00
H202   H     0.12552   0.66451   0.28957   0.00000  Uiso   1.00
H203   H     0.27036   0.49494   0.42679   0.00000  Uiso   1.00
H204   H     0.28263   0.47131   0.49273   0.00000  Uiso   1.00
H205   H     0.13455   0.49177   0.08041   0.00000  Uiso   1.00
H206   H     0.07497   0.53912   0.42591   0.00000  Uiso   1.00
H207   H     0.09500   0.51338   0.04828   0.00000  Uiso   1.00
O208   O     0.16667   0.50000   0.25000   0.00000  Uiso   1.00
O209   O     0.15451   0.45970   0.15458   0.00000  Uiso   1.00
O210   O     0.12940   0.53724   0.34968   0.00000  Uiso   1.00
O211   O     0.20824   0.51092   0.14606   0.00000  Uiso   1.00
O212   O     0.17451   0.49213   0.34968   0.00000  Uiso   1.00
O213   O     0.17930   0.41352   0.28213   0.00000  Uiso   1.00
O214   O     0.14632   0.59418   0.27014   0.00000  Uiso   1.00
O215   O     0.07412   0.46625   0.23413   0.00000  Uiso   1.00
O216   O     0.26693   0.52605   0.21360   0.00000  Uiso   1.00
O217   O     0.07071   0.52211   0.28213   0.00000  Uiso   1.00
O218   O     0.25491   0.48559   0.27013   0.00000  Uiso   1.00
O219   O     0.13760   0.40277   0.23413   0.00000  Uiso   1.00
O220   O     0.20345   0.58953   0.21361   0.00000  Uiso   1.00
Zn221  Zn    0.19338   0.47327   0.28734   0.00000  Uiso   1.00
Zn222  Zn    0.13379   0.45791   0.21875   0.00000  Uiso   1.00
Zn223  Zn    0.21056   0.53109   0.20657   0.00000  Uiso   1.00
Zn224  Zn    0.12893   0.53773   0.28734   0.00000  Uiso   1.00
C225   C     0.38602   0.49271   0.26060   0.00000  Uiso   1.00
C226   C     0.49929   0.48689   0.05952   0.00000  Uiso   1.00
C227   C     0.57007   0.47018   0.05647   0.00000  Uiso   1.00
C228   C     0.61436   0.50718   0.23961   0.00000  Uiso   1.00
C229   C     0.47184   0.52302   0.42021   0.00000  Uiso   1.00
C230   C     0.66074   0.50972   0.23420   0.00000  Uiso   1.00
C231   C     0.34093   0.49139   0.26368   0.00000  Uiso   1.00
C232   C     0.51405   0.65594   0.23616   0.00000  Uiso   1.00
C233   C     0.48552   0.34509   0.26386   0.00000  Uiso   1.00
C234   C     0.48967   0.38924   0.26008   0.00000  Uiso   1.00
C235   C     0.51003   0.61132   0.24005   0.00000  Uiso   1.00
C236   C     0.41607   0.52868   0.48952   0.00000  Uiso   1.00
C237   C     0.51895   0.48183   0.12931   0.00000  Uiso   1.00
C238   C     0.48238   0.51842   0.37084   0.00000  Uiso   1.00
C239   C     0.58321   0.47548   0.01087   0.00000  Uiso   1.00
C240   C     0.52841   0.47647   0.08084   0.00000  Uiso   1.00
C241   C     0.43041   0.53166   0.44354   0.00000  Uiso   1.00
C242   C     0.35894   0.53242   0.19612   0.00000  Uiso   1.00
C243   C     0.44226   0.51602   0.01293   0.00000  Uiso   1.00
C244   C     0.48466   0.50776   0.49088   0.00000  Uiso   1.00
C245   C     0.50021   0.51374   0.44424   0.00000  Uiso   1.00
C246   C     0.51227   0.49406   0.01351   0.00000  Uiso   1.00
C247   C     0.55518   0.48839   0.48946   0.00000  Uiso   1.00
C248   C     0.57053   0.49749   0.44476   0.00000  Uiso   1.00
C249   C     0.54385   0.51083   0.42278   0.00000  Uiso   1.00
H250   H     0.59297   0.46293   0.07322   0.00000  Uiso   1.00
H251   H     0.38380   0.53493   0.00702   0.00000  Uiso   1.00
H252   H     0.55838   0.51974   0.38896   0.00000  Uiso   1.00
H253   H     0.34251   0.54569   0.17489   0.00000  Uiso   1.00
H254   H     0.37895   0.55847   0.20981   0.00000  Uiso   1.00
H255   H     0.38016   0.51053   0.17433   0.00000  Uiso   1.00
H256   H     0.65185   0.47571   0.29150   0.00000  Uiso   1.00
H257   H     0.54042   0.33727   0.21061   0.00000  Uiso   1.00
H258   H     0.45885   0.66451   0.28957   0.00000  Uiso   1.00
H259   H     0.60370   0.49494   0.42679   0.00000  Uiso   1.00
H260   H     0.61596   0.47131   0.49273   0.00000  Uiso   1.00
H261   H     0.46788   0.49177   0.08041   0.00000  Uiso   1.00
H262   H     0.40830   0.53912   0.42591   0.00000  Uiso   1.00
H263   H     0.42834   0.51338   0.04828   0.00000  Uiso   1.00
O264   O     0.50000   0.50000   0.25000   0.00000  Uiso   1.00
O265   O     0.48784   0.45970   0.15458   0.00000  Uiso   1.00
O266   O     0.46274   0.53724   0.34968   0.00000  Uiso   1.00
O267   O     0.54157   0.51092   0.14606   0.00000  Uiso   1.00
O268   O     0.50785   0.49213   0.34968   0.00000  Uiso   1.00
O269   O     0.51264   0.41352   0.28213   0.00000  Uiso   1.00
O270   O     0.47965   0.59418   0.27014   0.00000  Uiso   1.00
O271   O     0.40745   0.46625   0.23413   0.00000  Uiso   1.00
O272   O     0.60026   0.52605   0.21360   0.00000  Uiso   1.00
O273   O     0.40405   0.52211   0.28213   0.00000  Uiso   1.00
O274   O     0.58824   0.48559   0.27013   0.00000  Uiso   1.00
O275   O     0.47093   0.40277   0.23413   0.00000  Uiso   1.00
O276   O     0.53678   0.58953   0.21361   0.00000  Uiso   1.00
Zn277  Zn    0.52672   0.47327   0.28734   0.00000  Uiso   1.00
Zn278  Zn    0.46713   0.45791   0.21875   0.00000  Uiso   1.00
Zn279  Zn    0.54389   0.53109   0.20657   0.00000  Uiso   1.00
Zn280  Zn    0.46226   0.53773   0.28734   0.00000  Uiso   1.00
C281   C     0.71935   0.49271   0.26060   0.00000  Uiso   1.00
C282   C     0.83263   0.48689   0.05952   0.00000  Uiso   1.00
C283   C     0.90340   0.47018   0.05647   0.00000  Uiso   1.00
C284   C     0.94769   0.50718   0.23961   0.00000  Uiso   1.00
C285   C     0.80517   0.52302   0.42021   0.00000  Uiso   1.00
C286   C     0.99407   0.50972   0.23420   0.00000  Uiso   1.00
C287   C     0.67427   0.49139   0.26368   0.00000  Uiso   1.00
C288   C     0.84739   0.65594   0.23616   0.00000  Uiso   1.00
C289   C     0.81885   0.34509   0.26386   0.00000  Uiso   1.00
C290   C     0.82301   0.38924   0.26008   0.00000  Uiso   1.00
C291   C     0.84337   0.61132   0.24005   0.00000  Uiso   1.00
C292   C     0.74940   0.52868   0.48952   0.00000  Uiso   1.00
C293   C     0.85228   0.48183   0.12931   0.00000  Uiso   1.00
C294   C     0.81571   0.51842   0.37084   0.00000  Uiso   1.00
C295   C     0.91655   0.47548   0.01087   0.00000  Uiso   1.00
C296   C     0.86175   0.47647   0.08084   0.00000  Uiso   1.00
C297   C     0.76374   0.53166   0.44354   0.00000  Uiso   1.00
C298   C     0.69227   0.53242   0.19612   0.00000  Uiso   1.00
C299   C     0.77560   0.51602   0.01293   0.00000  Uiso   1.00
C300   C     0.81799   0.50776   0.49088   0.00000  Uiso   1.00
C301   C     0.83355   0.51374   0.44424   0.00000  Uiso   1.00
C302   C     0.84560   0.49406   0.01351   0.00000  Uiso   1.00
C303   C     0.88851   0.48839   0.48946   0.00000  Uiso   1.00
C304   C     0.90387   0.49749   0.44476   0.00000  Uiso   1.00
C305   C     0.87718   0.51083   0.42278   0.00000  Uiso   1.00
H306   H     0.92630   0.46293   0.07322   0.00000  Uiso   1.00
H307   H     0.71713   0.53493   0.00702   0.00000  Uiso   1.00
H308   H     0.89171   0.51974   0.38896   0.00000  Uiso   1.00
H309   H     0.67585   0.54569   0.17489   0.00000  Uiso   1.00
H310   H     0.71228   0.55847   0.20981   0.00000  Uiso   1.00
H311   H     0.71349   0.51053   0.17433   0.00000  Uiso   1.00
H312   H     0.98519   0.47571   0.29150   0.00000  Uiso   1.00
H313   H     0.87376   0.33727   0.21061   0.00000  Uiso   1.00
H314   H     0.79218   0.66451   0.28957   0.00000  Uiso   1.00
H315   H     0.93703   0.49494   0.42679   0.00000  Uiso   1.00
H316   H     0.94930   0.47131   0.49273   0.00000  Uiso   1.00
H317   H     0.80121   0.49177   0.08041   0.00000  Uiso   1.00
H318   H     0.74164   0.53912   0.42591   0.00000  Uiso   1.00
H319   H     0.76167   0.51338   0.04828   0.00000  Uiso   1.00
O320   O     0.83333   0.50000   0.25000   0.00000  Uiso   1.00
O321   O     0.82118   0.45970   0.15458   0.00000  Uiso   1.00
O322   O     0.79607   0.53724   0.34968   0.00000  Uiso   1.00
O323   O     0.87491   0.51092   0.14606   0.00000  Uiso   1.00
O324   O     0.84118   0.49213   0.34968   0.00000  Uiso   1.00
O325   O     0.84597   0.41352   0.28213   0.00000  Uiso   1.00
O326   O     0.81298   0.59418   0.27014   0.00000  Uiso   1.00
O327   O     0.74078   0.46625   0.23413   0.00000  Uiso   1.00
O328   O     0.93360   0.52605   0.21360   0.00000  Uiso   1.00
O329   O     0.73738   0.52211   0.28213   0.00000  Uiso   1.00
O330   O     0.92158   0.48559   0.27013   0.00000  Uiso   1.00
O331   O     0.80426   0.40277   0.23413   0.00000  Uiso   1.00
O332   O     0.87012   0.58953   0.21361   0.00000  Uiso   1.00
Zn333  Zn    0.86005   0.47327   0.28734   0.00000  Uiso   1.00
Zn334  Zn    0.80046   0.45791   0.21875   0.00000  Uiso   1.00
Zn335  Zn    0.87723   0.53109   0.20657   0.00000  Uiso   1.00
Zn336  Zn    0.79560   0.53773   0.28734   0.00000  Uiso   1.00
C337   C     0.05269   0.82604   0.26060   0.00000  Uiso   1.00
C338   C     0.16596   0.82022   0.05952   0.00000  Uiso   1.00
C339   C     0.23673   0.80351   0.05647   0.00000  Uiso   1.00
C340   C     0.28102   0.84052   0.23961   0.00000  Uiso   1.00
C341   C     0.13850   0.85636   0.42021   0.00000  Uiso   1.00
C342   C     0.32740   0.84305   0.23420   0.00000  Uiso   1.00
C343   C     0.00760   0.82472   0.26368   0.00000  Uiso   1.00
C344   C     0.18072   0.98928   0.23616   0.00000  Uiso   1.00
C345   C     0.15219   0.67842   0.26386   0.00000  Uiso   1.00
C346   C     0.15634   0.72257   0.26008   0.00000  Uiso   1.00
C347   C     0.17670   0.94466   0.24005   0.00000  Uiso   1.00
C348   C     0.08274   0.86201   0.48952   0.00000  Uiso   1.00
C349   C     0.18562   0.81516   0.12931   0.00000  Uiso   1.00
C350   C     0.14904   0.85176   0.37084   0.00000  Uiso   1.00
C351   C     0.24988   0.80881   0.01087   0.00000  Uiso   1.00
C352   C     0.19508   0.80980   0.08084   0.00000  Uiso   1.00
C353   C     0.09708   0.86500   0.44354   0.00000  Uiso   1.00
C354   C     0.02560   0.86575   0.19612   0.00000  Uiso   1.00
C355   C     0.10893   0.84935   0.01293   0.00000  Uiso   1.00
C356   C     0.15132   0.84109   0.49088   0.00000  Uiso   1.00
C357   C     0.16688   0.84708   0.44424   0.00000  Uiso   1.00
C358   C     0.17894   0.82740   0.01351   0.00000  Uiso   1.00
C359   C     0.22184   0.82173   0.48946   0.00000  Uiso   1.00
C360   C     0.23720   0.83082   0.44476   0.00000  Uiso   1.00
C361   C     0.21051   0.84417   0.42278   0.00000  Uiso   1.00
H362   H     0.25964   0.79626   0.07322   0.00000  Uiso   1.00
H363   H     0.05046   0.86827   0.00702   0.00000  Uiso   1.00
H364   H     0.22505   0.85308   0.38896   0.00000  Uiso   1.00
H365   H     0.00918   0.87902   0.17489   0.00000  Uiso   1.00
H366   H     0.04562   0.89180   0.20981   0.00000  Uiso   1.00
H367   H     0.04683   0.84386   0.17433   0.00000  Uiso   1.00
H368   H     0.31852   0.80904   0.29150   0.00000  Uiso   1.00
H369   H     0.20709   0.67061   0.21061   0.00000  Uiso   1.00
H370   H     0.12552   0.99784   0.28957   0.00000  Uiso   1.00
H371   H     0.27036   0.82828   0.42679   0.00000  Uiso   1.00
H372   H     0.28263   0.80465   0.49273   0.00000  Uiso   1.00
H373   H     0.13455   0.82510   0.08041   0.00000  Uiso   1.00
H374   H     0.07497   0.87245   0.42591   0.00000  Uiso   1.00
H375   H     0.09500   0.84672   0.04828   0.00000  Uiso   1.00
O376   O     0.16667   0.83333   0.25000   0.00000  Uiso   1.00
O377   O     0.15451   0.79304   0.15458   0.00000  Uiso   1.00
O378   O     0.12940   0.87058   0.34968   0.00000  Uiso   1.00
O379   O     0.20824   0.84425   0.14606   0.00000  Uiso   1.00
O380   O     0.17451   0.82546   0.34968   0.00000  Uiso   1.00
O381   O     0.17930   0.74686   0.28213   0.00000  Uiso   1.00
O382   O     0.14632   0.92751   0.27014   0.00000  Uiso   1.00
O383   O     0.07412   0.79958   0.23413   0.00000  Uiso   1.00
O384   O     0.26693   0.85939   0.21360   0.00000  Uiso   1.00
O385   O     0.07071   0.85544   0.28213   0.00000  Uiso   1.00
O386   O     0.25491   0.81892   0.27013   0.00000  Uiso   1.00
O387   O     0.13760   0.73610   0.23413   0.00000  Uiso   1.00
O388   O     0.20345   0.92286   0.21361   0.00000  Uiso   1.00
Zn389  Zn    0.19338   0.80661   0.28734   0.00000  Uiso   1.00
Zn390  Zn    0.13379   0.79124   0.21875   0.00000  Uiso   1.00
Zn391  Zn    0.21056   0.86442   0.20657   0.00000  Uiso   1.00
Zn392  Zn    0.12893   0.87106   0.28734   0.00000  Uiso   1.00
C393   C     0.38602   0.82604   0.26060   0.00000  Uiso   1.00
C394   C     0.49929   0.82022   0.05952   0.00000  Uiso   1.00
C395   C     0.57007   0.80351   0.05647   0.00000  Uiso   1.00
C396   C     0.61436   0.84052   0.23961   0.00000  Uiso   1.00
C397   C     0.47184   0.85636   0.42021   0.00000  Uiso   1.00
C398   C     0.66074   0.84305   0.23420   0.00000  Uiso   1.00
C399   C     0.34093   0.82472   0.26368   0.00000  Uiso   1.00
C400   C     0.51405   0.98928   0.23616   0.00000  Uiso   1.00
C401   C     0.48552   0.67842   0.26386   0.00000  Uiso   1.00
C402   C     0.48967   0.72257   0.26008   0.00000  Uiso   1.00
C403   C     0.51003   0.94466   0.24005   0.00000  Uiso   1.00
C404   C     0.41607   0.86201   0.48952   0.00000  Uiso   1.00
C405   C     0.51895   0.81516   0.12931   0.00000  Uiso   1.00
C406   C     0.48238   0.85176   0.37084   0.00000  Uiso   1.00
C407   C     0.58321   0.80881   0.01087   0.00000  Uiso   1.00
C408   C     0.52841   0.80980   0.08084   0.00000  Uiso   1.00
C409   C     0.43041   0.86500   0.44354   0.00000  Uiso   1.00
C410   C     0.35894   0.86575   0.19612   0.00000  Uiso   1.00
C411   C     0.44226   0.84935   0.01293   0.00000  Uiso   1.00
C412   C     0.48466   0.84109   0.49088   0.00000  Uiso   1.00
C413   C     0.50021   0.84708   0.44424   0.00000  Uiso   1.00
C414   C     0.51227   0.82740   0.01351   0.00000  Uiso   1.00
C415   C     0.55518   0.82173   0.48946   0.00000  Uiso   1.00
C416   C     0.57053   0.83082   0.44476   0.00000  Uiso   1.00
C417   C     0.54385   0.84417   0.42278   0.00000  Uiso   1.00
H418   H     0.59297   0.79626   0.07322   0.00000  Uiso   1.00
H419   H     0.38380   0.86827   0.00702   0.00000  Uiso   1.00
H420   H     0.55838   0.85308   0.38896   0.00000  Uiso   1.00
H421   H     0.34251   0.87902   0.17489   0.00000  Uiso   1.00
H422   H     0.37895   0.89180   0.20981   0.00000  Uiso   1.00
H423   H     0.38016   0.84386   0.17433   0.00000  Uiso   1.00
H424   H     0.65185   0.80904   0.29150   0.00000  Uiso   1.00
H425   H     0.54042   0.67061   0.21061   0.00000  Uiso   1.00
H426   H     0.45885   0.99784   0.28957   0.00000  Uiso   1.00
H427   H     0.60370   0.82828   0.42679   0.00000  Uiso   1.00
H428   H     0.61596   0.80465   0.49273   0.00000  Uiso   1.00
H429   H     0.46788   0.82510   0.08041   0.00000  Uiso   1.00
H430   H     0.40830   0.87245   0.42591   0.00000  Uiso   1.00
H431   H     0.42834   0.84672   0.04828   0.00000  Uiso   1.00
O432   O     0.50000   0.83333   0.25000   0.00000  Uiso   1.00
O433   O     0.48784   0.79304   0.15458   0.00000  Uiso   1.00
O434   O     0.46274   0.87058   0.34968   0.00000  Uiso   1.00
O435   O     0.54157   0.84425   0.14606   0.00000  Uiso   1.00
O436   O     0.50785   0.82546   0.34968   0.00000  Uiso   1.00
O437   O     0.51264   0.74686   0.28213   0.00000  Uiso   1.00
O438   O     0.47965   0.92751   0.27014   0.00000  Uiso   1.00
O439   O     0.40745   0.79958   0.23413   0.00000  Uiso   1.00
O440   O     0.60026   0.85939   0.21360   0.00000  Uiso   1.00
O441   O     0.40405   0.85544   0.28213   0.00000  Uiso   1.00
O442   O     0.58824   0.81892   0.27013   0.00000  Uiso   1.00
O443   O     0.47093   0.73610   0.23413   0.00000  Uiso   1.00
O444   O     0.53678   0.92286   0.21361   0.00000  Uiso   1.00
Zn445  Zn    0.52672   0.80661   0.28734   0.00000  Uiso   1.00
Zn446  Zn    0.46713   0.79124   0.21875   0.00000  Uiso   1.00
Zn447  Zn    0.54389   0.86442   0.20657   0.00000  Uiso   1.00
Zn448  Zn    0.46226   0.87106   0.28734   0.00000  Uiso   1.00
C449   C     0.71935   0.82604   0.26060   0.00000  Uiso   1.00
C450   C     0.83263   0.82022   0.05952   0.00000  Uiso   1.00
C451   C     0.90340   0.80351   0.05647   0.00000  Uiso   1.00
C452   C     0.94769   0.84052   0.23961   0.00000  Uiso   1.00
C453   C     0.80517   0.85636   0.42021   0.00000  Uiso   1.00
C454   C     0.99407   0.84305   0.23420   0.00000  Uiso   1.00
C455   C     0.67427   0.82472   0.26368   0.00000  Uiso   1.00
C456   C     0.84739   0.98928   0.23616   0.00000  Uiso   1.00
C457   C     0.81885   0.67842   0.26386   0.00000  Uiso   1.00
C458   C     0.82301   0.72257   0.26008   0.00000  Uiso   1.00
C459   C     0.84337   0.94466   0.24005   0.00000  Uiso   1.00
C460   C     0.74940   0.86201   0.48952   0.00000  Uiso   1.00
C461   C     0.85228   0.81516   0.12931   0.00000  Uiso   1.00
C462   C     0.81571   0.85176   0.37084   0.00000  Uiso   1.00
C463   C     0.91655   0.80881   0.01087   0.00000  Uiso   1.00
C464   C     0.86175   0.80980   0.08084   0.00000  Uiso   1.00
C465   C     0.76374   0.86500   0.44354   0.00000  Uiso   1.00
C466   C     0.69227   0.86575   0.19612   0.00000  Uiso   1.00
C467   C     0.77560   0.84935   0.01293   0.00000  Uiso   1.00
C468   C     0.81799   0.84109   0.49088   0.00000  Uiso   1.00
C469   C     0.83355   0.84708   0.44424   0.00000  Uiso   1.00
C470   C     0.84560   0.82740   0.01351   0.00000  Uiso   1.00
C471   C     0.88851   0.82173   0.48946   0.00000  Uiso   1.00
C472   C     0.90387   0.83082   0.44476   0.00000  Uiso   1.00
C473   C     0.87718   0.84417   0.42278   0.00000  Uiso   1.00
H474   H     0.92630   0.79626   0.07322   0.00000  Uiso   1.00
H475   H     0.71713   0.86827   0.00702   0.00000  Uiso   1.00
H476   H     0.89171   0.85308   0.38896   0.00000  Uiso   1.00
H477   H     0.67585   0.87902   0.17489   0.00000  Uiso   1.00
H478   H     0.71228   0.89180   0.20981   0.00000  Uiso   1.00
H479   H     0.71349   0.84386   0.17433   0.00000  Uiso   1.00
H480   H     0.98519   0.80904   0.29150   0.00000  Uiso   1.00
H481   H     0.87376   0.67061   0.21061   0.00000  Uiso   1.00
H482   H     0.79218   0.99784   0.28957   0.00000  Uiso   1.00
H483   H     0.93703   0.82828   0.42679   0.00000  Uiso   1.00
H484   H     0.94930   0.80465   0.49273   0.00000  Uiso   1.00
H485   H     0.80121   0.82510   0.08041   0.00000  Uiso   1.00
H486   H     0.74164   0.87245   0.42591   0.00000  Uiso   1.00
H487   H     0.76167   0.84672   0.04828   0.00000  Uiso   1.00
O488   O     0.83333   0.83333   0.25000   0.00000  Uiso   1.00
O489   O     0.82118   0.79304   0.15458   0.00000  Uiso   1.00
O490   O     0.79607   0.87058   0.34968   0.00000  Uiso   1.00
O491   O     0.87491   0.84425   0.14606   0.00000  Uiso   1.00
O492   O     0.84118   0.82546   0.34968   0.00000  Uiso   1.00
O493   O     0.84597   0.74686   0.28213   0.00000  Uiso   1.00
O494   O     0.81298   0.92751   0.27014   0.00000  Uiso   1.00
O495   O     0.74078   0.79958   0.23413   0.00000  Uiso   1.00
O496   O     0.93360   0.85939   0.21360   0.00000  Uiso   1.00
O497   O     0.73738   0.85544   0.28213   0.00000  Uiso   1.00
O498   O     0.92158   0.81892   0.27013   0.00000  Uiso   1.00
O499   O     0.80426   0.73610   0.23413   0.00000  Uiso   1.00
O500   O     0.87012   0.92286   0.21361   0.00000  Uiso   1.00
Zn501  Zn    0.86005   0.80661   0.28734   0.00000  Uiso   1.00
Zn502  Zn    0.80046   0.79124   0.21875   0.00000  Uiso   1.00
Zn503  Zn    0.87723   0.86442   0.20657   0.00000  Uiso   1.00
Zn504  Zn    0.79560   0.87106   0.28734   0.00000  Uiso   1.00
C505   C     0.05269   0.15937   0.76060   0.00000  Uiso   1.00
C506   C     0.16596   0.15356   0.55952   0.00000  Uiso   1.00
C507   C     0.23673   0.13684   0.55647   0.00000  Uiso   1.00
C508   C     0.28102   0.17385   0.73961   0.00000  Uiso   1.00
C509   C     0.13850   0.18969   0.92021   0.00000  Uiso   1.00
C510   C     0.32740   0.17638   0.73420   0.00000  Uiso   1.00
C511   C     0.00760   0.15806   0.76368   0.00000  Uiso   1.00
C512   C     0.18072   0.32261   0.73616   0.00000  Uiso   1.00
C513   C     0.15219   0.01176   0.76386   0.00000  Uiso   1.00
C514   C     0.15634   0.05591   0.76008   0.00000  Uiso   1.00
C515   C     0.17670   0.27799   0.74005   0.00000  Uiso   1.00
C516   C     0.08274   0.19535   0.98952   0.00000  Uiso   1.00
C517   C     0.18562   0.14850   0.62931   0.00000  Uiso   1.00
C518   C     0.14904   0.18509   0.87084   0.00000  Uiso   1.00
C519   C     0.24988   0.14215   0.51087   0.00000  Uiso   1.00
C520   C     0.19508   0.14313   0.58084   0.00000  Uiso   1.00
C521   C     0.09708   0.19833   0.94354   0.00000  Uiso   1.00
C522   C     0.02560   0.19908   0.69612   0.00000  Uiso   1.00
C523   C     0.10893   0.18268   0.51293   0.00000  Uiso   1.00
C524   C     0.15132   0.17442   0.99088   0.00000  Uiso   1.00
C525   C     0.16688   0.18041   0.94424   0.00000  Uiso   1.00
C526   C     0.17894   0.16073   0.51351   0.00000  Uiso   1.00
C527   C     0.22184   0.15506   0.98946   0.00000  Uiso   1.00
C528   C     0.23720   0.16416   0.94476   0.00000  Uiso   1.00
C529   C     0.21051   0.17750   0.92278   0.00000  Uiso   1.00
H530   H     0.25964   0.12960   0.57322   0.00000  Uiso   1.00
H531   H     0.05046   0.20160   0.50702   0.00000  Uiso   1.00
H532   H     0.22505   0.18641   0.88896   0.00000  Uiso   1.00
H533   H     0.00918   0.21235   0.67489   0.00000  Uiso   1.00
H534   H     0.04562   0.22513   0.70981   0.00000  Uiso   1.00
H535   H     0.04683   0.17720   0.67433   0.00000  Uiso   1.00
H536   H     0.31852   0.14237   0.79150   0.00000  Uiso   1.00
H537   H     0.20709   0.00394   0.71061   0.00000  Uiso   1.00
H538   H     0.12552   0.33117   0.78957   0.00000  Uiso   1.00
H539   H     0.27036   0.16161   0.92679   0.00000  Uiso   1.00
H540   H     0.28263   0.13798   0.99273   0.00000  Uiso   1.00
H541   H     0.13455   0.15843   0.58041   0.00000  Uiso   1.00
H542   H     0.07497   0.20579   0.92591   0.00000  Uiso   1.00
H543   H     0.09500   0.18005   0.54828   0.00000  Uiso   1.00
O544   O     0.16667   0.16667   0.75000   0.00000  Uiso   1.00
O545   O     0.15451   0.12637   0.65458   0.00000  Uiso   1.00
O546   O     0.12940   0.20391   0.84968   0.00000  Uiso   1.00
O547   O     0.20824   0.17759   0.64606   0.00000  Uiso   1.00
O548   O     0.17451   0.15880   0.84968   0.00000  Uiso   1.00
O549   O     0.17930   0.08019   0.78213   0.00000  Uiso   1.00
O550   O     0.14632   0.26085   0.77014   0.00000  Uiso   1.00
O551   O     0.07412   0.13291   0.73413   0.00000  Uiso   1.00
O552   O     0.26693   0.19272   0.71360   0.00000  Uiso   1.00
O553   O     0.07071   0.18878   0.78213   0.00000  Uiso   1.00
O554   O     0.25491   0.15226   0.77013   0.00000  Uiso   1.00
O555   O     0.13760   0.06944   0.73413   0.00000  Uiso   1.00
O556   O     0.20345   0.25620   0.71361   0.00000  Uiso   1.00
Zn557  Zn    0.19338   0.13994   0.78734   0.00000  Uiso   1.00
Zn558  Zn    0.13379   0.12458   0.71875   0.00000  Uiso   1.00
Zn559  Zn    0.21056   0.19775   0.70657   0.00000  Uiso   1.00
Zn560  Zn    0.12893   0.20439   0.78734   0.00000  Uiso   1.00
C561   C     0.38602   0.15937   0.76060   0.00000  Uiso   1.00
C562   C     0.49929   0.15356   0.55952   0.00000  Uiso   1.00
C563   C     0.57007   0.13684   0.55647   0.00000  Uiso   1.00
C564   C     0.61436   0.17385   0.73961   0.00000  Uiso   1.00
C565   C     0.47184   0.18969   0.92021   0.00000  Uiso   1.00
C566   C     0.66074   0.17638   0.73420   0.00000  Uiso   1.00
C567   C     0.34093   0.15806   0.76368   0.00000  Uiso   1.00
C568   C     0.51405   0.32261   0.73616   0.00000  Uiso   1.00
C569   C     0.48552   0.01176   0.76386   0.00000  Uiso   1.00
C570   C     0.48967   0.05591   0.76008   0.00000  Uiso   1.00
C571   C     0.51003   0.27799   0.74005   0.00000  Uiso   1.00
C572   C     0.41607   0.19535   0.98952   0.00000  Uiso   1.00
C573   C     0.51895   0.14850   0.62931   0.00000  Uiso   1.00
C574   C     0.48238   0.18509   0.87084   0.00000  Uiso   1.00
C575   C     0.58321   0.14215   0.51087   0.00000  Uiso   1.00
C576   C     0.52841   0.14313   0.58084   0.00000  Uiso   1.00
C577   C     0.43041   0.19833   0.94354   0.00000  Uiso   1.00
C578   C     0.35894   0.19908   0.69612   0.00000  Uiso   1.00
C579   C     0.44226   0.18268   0.51293   0.00000  Uiso   1.00
C580   C     0.48466   0.17442   0.99088   0.00000  Uiso   1.00
C581   C     0.50021   0.18041   0.94424   0.00000  Uiso   1.00
C582   C     0.51227   0.16073   0.51351   0.00000  Uiso   1.00
C583   C     0.55518   0.15506   0.98946   0.00000  Uiso   1.00
C584   C     0.57053   0.16416   0.94476   0.00000  Uiso   1.00
C585   C     0.54385   0.17750   0.92278   0.00000  Uiso   1.00
H586   H     0.59297   0.12960   0.57322   0.00000  Uiso   1.00
H587   H     0.38380   0.20160   0.50702   0.00000  Uiso   1.00
H588   H     0.55838   0.18641   0.88896   0.00000  Uiso   1.00
H589   H     0.34251   0.21235   0.67489   0.00000  Uiso   1.00
H590   H     0.37895   0.22513   0.70981   0.00000  Uiso   1.00
H591   H     0.38016   0.17720   0.67433   0.00000  Uiso   1.00
H592   H     0.65185   0.14237   0.79150   0.00000  Uiso   1.00
H593   H     0.54042   0.00394   0.71061   0.00000  Uiso   1.00
H594   H     0.45885   0.33117   0.78957   0.00000  Uiso   1.00
H595   H     0.60370   0.16161   0.92679   0.00000  Uiso   1.00
H596   H     0.61596   0.13798   0.99273   0.00000  Uiso   1.00
H597   H     0.46788   0.15843   0.58041   0.00000  Uiso   1.00
H598   H     0.40830   0.20579   0.92591   0.00000  Uiso   1.00
H599   H     0.42834   0.18005   0.54828   0.00000  Uiso   1.00
O600   O     0.50000   0.16667   0.75000   0.00000  Uiso   1.00
O601   O     0.48784   0.12637   0.65458   0.00000  Uiso   1.00
O602   O     0.46274   0.20391   0.84968   0.00000  Uiso   1.00
O603   O     0.54157   0.17759   0.64606   0.00000  Uiso   1.00
O604   O     0.50785   0.15880   0.84968   0.00000  Uiso   1.00
O605   O     0.51264   0.08019   0.78213   0.00000  Uiso   1.00
O606   O     0.47965   0.26085   0.77014   0.00000  Uiso   1.00
O607   O     0.40745   0.13291   0.73413   0.00000  Uiso   1.00
O608   O     0.60026   0.19272   0.71360   0.00000  Uiso   1.00
O609   O     0.40405   0.18878   0.78213   0.00000  Uiso   1.00
O610   O     0.58824   0.15226   0.77013   0.00000  Uiso   1.00
O611   O     0.47093   0.06944   0.73413   0.00000  Uiso   1.00
O612   O     0.53678   0.25620   0.71361   0.00000  Uiso   1.00
Zn613  Zn    0.52672   0.13994   0.78734   0.00000  Uiso   1.00
Zn614  Zn    0.46713   0.12458   0.71875   0.00000  Uiso   1.00
Zn615  Zn    0.54389   0.19775   0.70657   0.00000  Uiso   1.00
Zn616  Zn    0.46226   0.20439   0.78734   0.00000  Uiso   1.00
C617   C     0.71935   0.15937   0.76060   0.00000  Uiso   1.00
C618   C     0.83263   0.15356   0.55952   0.00000  Uiso   1.00
C619   C     0.90340   0.13684   0.55647   0.00000  Uiso   1.00
C620   C     0.94769   0.17385   0.73961   0.00000  Uiso   1.00
C621   C     0.80517   0.18969   0.92021   0.00000  Uiso   1.00
C622   C     0.99407   0.17638   0.73420   0.00000  Uiso   1.00
C623   C     0.67427   0.15806   0.76368   0.00000  Uiso   1.00
C624   C     0.84739   0.32261   0.73616   0.00000  Uiso   1.00
C625   C     0.81885   0.01176   0.76386   0.00000  Uiso   1.00
C626   C     0.82301   0.05591   0.76008   0.00000  Uiso   1.00
C627   C     0.84337   0.27799   0.74005   0.00000  Uiso   1.00
C628   C     0.74940   0.19535   0.98952   0.00000  Uiso   1.00
C629   C     0.85228   0.14850   0.62931   0.00000  Uiso   1.00
C630   C     0.81571   0.18509   0.87084   0.00000  Uiso   1.00
C631   C     0.91655   0.14215   0.51087   0.00000  Uiso   1.00
C632   C     0.86175   0.14313   0.58084   0.00000  Uiso   1.00
C633   C     0.76374   0.19833   0.94354   0.00000  Uiso   1.00
C634   C     0.69227   0.19908   0.69612   0.00000  Uiso   1.00
C635   C     0.77560   0.18268   0.51293   0.00000  Uiso   1.00
C636   C     0.81799   0.17442   0.99088   0.00000  Uiso   1.00
C637   C     0.83355   0.18041   0.94424   0.00000  Uiso   1.00
C638   C     0.84560   0.16073   0.51351   0.00000  Uiso   1.00
C639   C     0.88851   0.15506   0.98946   0.00000  Uiso   1.00
C640   C     0.90387   0.16416   0.94476   0.00000  Uiso   1.00
C641   C     0.87718   0.17750   0.92278   0.00000  Uiso   1.00
H642   H     0.92630   0.12960   0.57322   0.00000  Uiso   1.00
H643   H     0.71713   0.20160   0.50702   0.00000  Uiso   1.00
H644   H     0.89171   0.18641   0.88896   0.00000  Uiso   1.00
H645   H     0.67585   0.21235   0.67489   0.00000  Uiso   1.00
H646   H     0.71228   0.22513   0.70981   0.00000  Uiso   1.00
H647   H     0.71349   0.17720   0.67433   0.00000  Uiso   1.00
H648   H     0.98519   0.14237   0.79150   0.00000  Uiso   1.00
H649   H     0.87376   0.00394   0.71061   0.00000  Uiso   1.00
H650   H     0.79218   0.33117   0.78957   0.00000  Uiso   1.00
H651   H     0.93703   0.16161   0.92679   0.00000  Uiso   1.00
H652   H     0.94930   0.13798   0.99273   0.00000  Uiso   1.00
H653   H     0.80121   0.15843   0.58041   0.00000  Uiso   1.00
H654   H     0.74164   0.20579   0.92591   0.00000  Uiso   1.00
H655   H     0.76167   0.18005   0.54828   0.00000  Uiso   1.00
O656   O     0.83333   0.16667   0.75000   0.00000  Uiso   1.00
O657   O     0.82118   0.12637   0.65458   0.00000  Uiso   1.00
O658   O     0.79607   0.20391   0.84968   0.00000  Uiso   1.00
O659   O     0.87491   0.17759   0.64606   0.00000  Uiso   1.00
O660   O     0.84118   0.15880   0.84968   0.00000  Uiso   1.00
O661   O     0.84597   0.08019   0.78213   0.00000  Uiso   1.00
O662   O     0.81298   0.26085   0.77014   0.00000  Uiso   1.00
O663   O     0.74078   0.13291   0.73413   0.00000  Uiso   1.00
O664   O     0.93360   0.19272   0.71360   0.00000  Uiso   1.00
O665   O     0.73738   0.18878   0.78213   0.00000  Uiso   1.00
O666   O     0.92158   0.15226   0.77013   0.00000  Uiso   1.00
O667   O     0.80426   0.06944   0.73413   0.00000  Uiso   1.00
O668   O     0.87012   0.25620   0.71361   0.00000  Uiso   1.00
Zn669  Zn    0.86005   0.13994   0.78734   0.00000  Uiso   1.00
Zn670  Zn    0.80046   0.12458   0.71875   0.00000  Uiso   1.00
Zn671  Zn    0.87723   0.19775   0.70657   0.00000  Uiso   1.00
Zn672  Zn    0.79560   0.20439   0.78734   0.00000  Uiso   1.00
C673   C     0.05269   0.49271   0.76060   0.00000  Uiso   1.00
C674   C     0.16596   0.48689   0.55952   0.00000  Uiso   1.00
C675   C     0.23673   0.47018   0.55647   0.00000  Uiso   1.00
C676   C     0.28102   0.50718   0.73961   0.00000  Uiso   1.00
C677   C     0.13850   0.52302   0.92021   0.00000  Uiso   1.00
C678   C     0.32740   0.50972   0.73420   0.00000  Uiso   1.00
C679   C     0.00760   0.49139   0.76368   0.00000  Uiso   1.00
C680   C     0.18072   0.65594   0.73616   0.00000  Uiso   1.00
C681   C     0.15219   0.34509   0.76386   0.00000  Uiso   1.00
C682   C     0.15634   0.38924   0.76008   0.00000  Uiso   1.00
C683   C     0.17670   0.61132   0.74005   0.00000  Uiso   1.00
C684   C     0.08274   0.52868   0.98952   0.00000  Uiso   1.00
C685   C     0.18562   0.48183   0.62931   0.00000  Uiso   1.00
C686   C     0.14904   0.51842   0.87084   0.00000  Uiso   1.00
C687   C     0.24988   0.47548   0.51087   0.00000  Uiso   1.00
C688   C     0.19508   0.47647   0.58084   0.00000  Uiso   1.00
C689   C     0.09708   0.53166   0.94354   0.00000  Uiso   1.00
C690   C     0.02560   0.53242   0.69612   0.00000  Uiso   1.00
C691   C     0.10893   0.51602   0.51293   0.00000  Uiso   1.00
C692   C     0.15132   0.50776   0.99088   0.00000  Uiso   1.00
C693   C     0.16688   0.51374   0.94424   0.00000  Uiso   1.00
C694   C     0.17894   0.49406   0.51351   0.00000  Uiso   1.00
C695   C     0.22184   0.48839   0.98946   0.00000  Uiso   1.00
C696   C     0.23720   0.49749   0.94476   0.00000  Uiso   1.00
C697   C     0.21051   0.51083   0.92278   0.00000  Uiso   1.00
H698   H     0.25964   0.46293   0.57322   0.00000  Uiso   1.00
H699   H     0.05046   0.53493   0.50702   0.00000  Uiso   1.00
H700   H     0.22505   0.51974   0.88896   0.00000  Uiso   1.00
H701   H     0.00918   0.54569   0.67489   0.00000  Uiso   1.00
H702   H     0.04562   0.55847   0.70981   0.00000  Uiso   1.00
H703   H     0.04683   0.51053   0.67433   0.00000  Uiso   1.00
H704   H     0.31852   0.47571   0.79150   0.00000  Uiso   1.00
H705   H     0.20709   0.33727   0.71061   0.00000  Uiso   1.00
H706   H     0.12552   0.66451   0.78957   0.00000  Uiso   1.00
H707   H     0.27036   0.49494   0.92679   0.00000  Uiso   1.00
H708   H     0.28263   0.47131   0.99273   0.00000  Uiso   1.00
H709   H     0.13455   0.49177   0.58041   0.00000  Uiso   1.00
H710   H     0.07497   0.53912   0.92591   0.00000  Uiso   1.00
H711   H     0.09500   0.51338   0.54828   0.00000  Uiso   1.00
O712   O     0.16667   0.50000   0.75000   0.00000  Uiso   1.00
O713   O     0.15451   0.45970   0.65458   0.00000  Uiso   1.00
O714   O     0.12940   0.53724   0.84968   0.00000  Uiso   1.00
O715   O     0.20824   0.51092   0.64606   0.00000  Uiso   1.00
O716   O     0.17451   0.49213   0.84968   0.00000  Uiso   1.00
O717   O     0.17930   0.41352   0.78213   0.00000  Uiso   1.00
O718   O     0.14632   0.59418   0.77014   0.00000  Uiso   1.00
O719   O     0.07412   0.46625   0.73413   0.00000  Uiso   1.00
O720   O     0.26693   0.52605   0.71360   0.00000  Uiso   1.00
O721   O     0.07071   0.52211   0.78213   0.00000  Uiso   1.00
O722   O     0.25491   0.48559   0.77013   0.00000  Uiso   1.00
O723   O     0.13760   0.40277   0.73413   0.00000  Uiso   1.00
O724   O     0.20345   0.58953   0.71361   0.00000  Uiso   1.00
Zn725  Zn    0.19338   0.47327   0.78734   0.00000  Uiso   1.00
Zn726  Zn    0.13379   0.45791   0.71875   0.00000  Uiso   1.00
Zn727  Zn    0.21056   0.53109   0.70657   0.00000  Uiso   1.00
Zn728  Zn    0.12893   0.53773   0.78734   0.00000  Uiso   1.00
C729   C     0.38602   0.49271   0.76060   0.00000  Uiso   1.00
C730   C     0.49929   0.48689   0.55952   0.00000  Uiso   1.00
C731   C     0.57007   0.47018   0.55647   0.00000  Uiso   1.00
C732   C     0.61436   0.50718   0.73961   0.00000  Uiso   1.00
C733   C     0.47184   0.52302   0.92021   0.00000  Uiso   1.00
C734   C     0.66074   0.50972   0.73420   0.00000  Uiso   1.00
C735   C     0.34093   0.49139   0.76368   0.00000  Uiso   1.00
C736   C     0.51405   0.65594   0.73616   0.00000  Uiso   1.00
C737   C     0.48552   0.34509   0.76386   0.00000  Uiso   1.00
C738   C     0.48967   0.38924   0.76008   0.00000  Uiso   1.00
C739   C     0.51003   0.61132   0.74005   0.00000  Uiso   1.00
C740   C     0.41607   0.52868   0.98952   0.00000  Uiso   1.00
C741   C     0.51895   0.48183   0.62931   0.00000  Uiso   1.00
C742   C     0.48238   0.51842   0.87084   0.00000  Uiso   1.00
C743   C     0.58321   0.47548   0.51087   0.00000  Uiso   1.00
C744   C     0.52841   0.47647   0.58084   0.00000  Uiso   1.00
C745   C     0.43041   0.53166   0.94354   0.00000  Uiso   1.00
C746   C     0.35894   0.53242   0.69612   0.00000  Uiso   1.00
C747   C     0.44226   0.51602   0.51293   0.00000  Uiso   1.00
C748   C     0.48466   0.50776   0.99088   0.00000  Uiso   1.00
C749   C     0.50021   0.51374   0.94424   0.00000  Uiso   1.00
C750   C     0.51227   0.49406   0.51351   0.00000  Uiso   1.00
C751   C     0.55518   0.48839   0.98946   0.00000  Uiso   1.00
C752   C     0.57053   0.49749   0.94476   0.00000  Uiso   1.00
C753   C     0.54385   0.51083   0.92278   0.00000  Uiso   1.00
H754   H     0.59297   0.46293   0.57322   0.00000  Uiso   1.00
H755   H     0.38380   0.53493   0.50702   0.00000  Uiso   1.00
H756   H     0.55838   0.51974   0.88896   0.00000  Uiso   1.00
H757   H     0.34251   0.54569   0.67489   0.00000  Uiso   1.00
H758   H     0.37895   0.55847   0.70981   0.00000  Uiso   1.00
H759   H     0.38016   0.51053   0.67433   0.00000  Uiso   1.00
H760   H     0.65185   0.47571   0.79150   0.00000  Uiso   1.00
H761   H     0.54042   0.33727   0.71061   0.00000  Uiso   1.00
H762   H     0.45885   0.66451   0.78957   0.00000  Uiso   1.00
H763   H     0.60370   0.49494   0.92679   0.00000  Uiso   1.00
H764   H     0.61596   0.47131   0.99273   0.00000  Uiso   1.00
H765   H     0.46788   0.49177   0.58041   0.00000  Uiso   1.00
H766   H     0.40830   0.53912   0.92591   0.00000  Uiso   1.00
H767   H     0.42834   0.51338   0.54828   0.00000  Uiso   1.00
O768   O     0.50000   0.50000   0.75000   0.00000  Uiso   1.00
O769   O     0.48784   0.45970   0.65458   0.00000  Uiso   1.00
O770   O     0.46274   0.53724   0.84968   0.00000  Uiso   1.00
O771   O     0.54157   0.51092   0.64606   0.00000  Uiso   1.00
O772   O     0.50785   0.49213   0.84968   0.00000  Uiso   1.00
O773   O     0.51264   0.41352   0.78213   0.00000  Uiso   1.00
O774   O     0.47965   0.59418   0.77014   0.00000  Uiso   1.00
O775   O     0.40745   0.46625   0.73413   0.00000  Uiso   1.00
O776   O     0.60026   0.52605   0.71360   0.00000  Uiso   1.00
O777   O     0.40405   0.52211   0.78213   0.00000  Uiso   1.00
O778   O     0.58824   0.48559   0.77013   0.00000  Uiso   1.00
O779   O     0.47093   0.40277   0.73413   0.00000  Uiso   1.00
O780   O     0.53678   0.58953   0.71361   0.00000  Uiso   1.00
Zn781  Zn    0.52672   0.47327   0.78734   0.00000  Uiso   1.00
Zn782  Zn    0.46713   0.45791   0.71875   0.00000  Uiso   1.00
Zn783  Zn    0.54389   0.53109   0.70657   0.00000  Uiso   1.00
Zn784  Zn    0.46226   0.53773   0.78734   0.00000  Uiso   1.00
C785   C     0.71935   0.49271   0.76060   0.00000  Uiso   1.00
C786   C     0.83263   0.48689   0.55952   0.00000  Uiso   1.00
C787   C     0.90340   0.47018   0.55647   0.00000  Uiso   1.00
C788   C     0.94769   0.50718   0.73961   0.00000  Uiso   1.00
C789   C     0.80517   0.52302   0.92021   0.00000  Uiso   1.00
C790   C     0.99407   0.50972   0.73420   0.00000  Uiso   1.00
C791   C     0.67427   0.49139   0.76368   0.00000  Uiso   1.00
C792   C     0.84739   0.65594   0.73616   0.00000  Uiso   1.00
C793   C     0.81885   0.34509   0.76386   0.00000  Uiso   1.00
C794   C     0.82301   0.38924   0.76008   0.00000  Uiso   1.00
C795   C     0.84337   0.61132   0.74005   0.00000  Uiso   1.00
C796   C     0.74940   0.52868   0.98952   0.00000  Uiso   1.00
C797   C     0.85228   0.48183   0.62931   0.00000  Uiso   1.00
C798   C     0.81571   0.51842   0.87084   0.00000  Uiso   1.00
C799   C     0.91655   0.47548   0.51087   0.00000  Uiso   1.00
C800   C     0.86175   0.47647   0.58084   0.00000  Uiso   1.00
C801   C     0.76374   0.53166   0.94354   0.00000  Uiso   1.00
C802   C     0.69227   0.53242   0.69612   0.00000  Uiso   1.00
C803   C     0.77560   0.51602   0.51293   0.00000  Uiso   1.00
C804   C     0.81799   0.50776   0.99088   0.00000  Uiso   1.00
C805   C     0.83355   0.51374   0.94424   0.00000  Uiso   1.00
C806   C     0.84560   0.49406   0.51351   0.00000  Uiso   1.00
C807   C     0.88851   0.48839   0.98946   0.00000  Uiso   1.00
C808   C     0.90387   0.49749   0.94476   0.00000  Uiso   1.00
C809   C     0.87718   0.51083   0.92278   0.00000  Uiso   1.00
H810   H     0.92630   0.46293   0.57322   0.00000  Uiso   1.00
H811   H     0.71713   0.53493   0.50702   0.00000  Uiso   1.00
H812   H     0.89171   0.51974   0.88896   0.00000  Uiso   1.00
H813   H     0.67585   0.54569   0.67489   0.00000  Uiso   1.00
H814   H     0.71228   0.55847   0.70981   0.00000  Uiso   1.00
H815   H     0.71349   0.51053   0.67433   0.00000  Uiso   1.00
H816   H     0.98519   0.47571   0.79150   0.00000  Uiso   1.00
H817   H     0.87376   0.33727   0.71061   0.00000  Uiso   1.00
H818   H     0.79218   0.66451   0.78957   0.00000  Uiso   1.00
H819   H     0.93703   0.49494   0.92679   0.00000  Uiso   1.00
H820   H     0.94930   0.47131   0.99273   0.00000  Uiso   1.00
H821   H     0.80121   0.49177   0.58041   0.00000  Uiso   1.00
H822   H     0.74164   0.53912   0.92591   0.00000  Uiso   1.00
H823   H     0.76167   0.51338   0.54828   0.00000  Uiso   1.00
O824   O     0.83333   0.50000   0.75000   0.00000  Uiso   1.00
O825   O     0.82118   0.45970   0.65458   0.00000  Uiso   1.00
O826   O     0.79607   0.53724   0.84968   0.00000  Uiso   1.00
O827   O     0.87491   0.51092   0.64606   0.00000  Uiso   1.00
O828   O     0.84118   0.49213   0.84968   0.00000  Uiso   1.00
O829   O     0.84597   0.41352   0.78213   0.00000  Uiso   1.00
O830   O     0.81298   0.59418   0.77014   0.00000  Uiso   1.00
O831   O     0.74078   0.46625   0.73413   0.00000  Uiso   1.00
O832   O     0.93360   0.52605   0.71360   0.00000  Uiso   1.00
O833   O     0.73738   0.52211   0.78213   0.00000  Uiso   1.00
O834   O     0.92158   0.48559   0.77013   0.00000  Uiso   1.00
O835   O     0.80426   0.40277   0.73413   0.00000  Uiso   1.00
O836   O     0.87012   0.58953   0.71361   0.00000  Uiso   1.00
Zn837  Zn    0.86005   0.47327   0.78734   0.00000  Uiso   1.00
Zn838  Zn    0.80046   0.45791   0.71875   0.00000  Uiso   1.00
Zn839  Zn    0.87723   0.53109   0.70657   0.00000  Uiso   1.00
Zn840  Zn    0.79560   0.53773   0.78734   0.00000  Uiso   1.00
C841   C     0.05269   0.82604   0.76060   0.00000  Uiso   1.00
C842   C     0.16596   0.82022   0.55952   0.00000  Uiso   1.00
C843   C     0.23673   0.80351   0.55647   0.00000  Uiso   1.00
C844   C     0.28102   0.84052   0.73961   0.00000  Uiso   1.00
C845   C     0.13850   0.85636   0.92021   0.00000  Uiso   1.00
C846   C     0.32740   0.84305   0.73420   0.00000  Uiso   1.00
C847   C     0.00760   0.82472   0.76368   0.00000  Uiso   1.00
C848   C     0.18072   0.98928   0.73616   0.00000  Uiso   1.00
C849   C     0.15219   0.67842   0.76386   0.00000  Uiso   1.00
C850   C     0.15634   0.72257   0.76008   0.00000  Uiso   1.00
C851   C     0.17670   0.94466   0.74005   0.00000  Uiso   1.00
C852   C     0.08274   0.86201   0.98952   0.00000  Uiso   1.00
C853   C     0.18562   0.81516   0.62931   0.00000  Uiso   1.00
C854   C     0.14904   0.85176   0.87084   0.00000  Uiso   1.00
C855   C     0.24988   0.80881   0.51087   0.00000  Uiso   1.00
C856   C     0.19508   0.80980   0.58084   0.00000  Uiso   1.00
C857   C     0.09708   0.86500   0.94354   0.00000  Uiso   1.00
C858   C     0.02560   0.86575   0.69612   0.00000  Uiso   1.00
C859   C     0.10893   0.84935   0.51293   0.00000  Uiso   1.00
C860   C     0.15132   0.84109   0.99088   0.00000  Uiso   1.00
C861   C     0.16688   0.84708   0.94424   0.00000  Uiso   1.00
C862   C     0.17894   0.82740   0.51351   0.00000  Uiso   1.00
C863   C     0.22184   0.82173   0.98946   0.00000  Uiso   1.00
C864   C     0.23720   0.83082   0.94476   0.00000  Uiso   1.00
C865   C     0.21051   0.84417   0.92278   0.00000  Uiso   1.00
H866   H     0.25964   0.79626   0.57322   0.00000  Uiso   1.00
H867   H     0.05046   0.86827   0.50702   0.00000  Uiso   1.00
H868   H     0.22505   0.85308   0.88896   0.00000  Uiso   1.00
H869   H     0.00918   0.87902   0.67489   0.00000  Uiso   1.00
H870   H     0.04562   0.89180   0.70981   0.00000  Uiso   1.00
H871   H     0.04683   0.84386   0.67433   0.00000  Uiso   1.00
H872   H     0.31852   0.80904   0.79150   0.00000  Uiso   1.00
H873   H     0.20709   0.67061   0.71061   0.00000  Uiso   1.00
H874   H     0.12552   0.99784   0.78957   0.00000  Uiso   1.00
H875   H     0.27036   0.82828   0.92679   0.00000  Uiso   1.00
H876   H     0.28263   0.80465   0.99273   0.00000  Uiso   1.00
H877   H     0.13455   0.82510   0.58041   0.00000  Uiso   1.00
H878   H     0.07497   0.87245   0.92591   0.00000  Uiso   1.00
H879   H     0.09500   0.84672   0.54828   0.00000  Uiso   1.00
O880   O     0.16667   0.83333   0.75000   0.00000  Uiso   1.00
O881   O     0.15451   0.79304   0.65458   0.00000  Uiso   1.00
O882   O     0.12940   0.87058   0.84968   0.00000  Uiso   1.00
O883   O     0.20824   0.84425   0.64606   0.00000  Uiso   1.00
O884   O     0.17451   0.82546   0.84968   0.00000  Uiso   1.00
O885   O     0.17930   0.74686   0.78213   0.00000  Uiso   1.00
O886   O     0.14632   0.92751   0.77014   0.00000  Uiso   1.00
O887   O     0.07412   0.79958   0.73413   0.00000  Uiso   1.00
O888   O     0.26693   0.85939   0.71360   0.00000  Uiso   1.00
O889   O     0.07071   0.85544   0.78213   0.00000  Uiso   1.00
O890   O     0.25491   0.81892   0.77013   0.00000  Uiso   1.00
O891   O     0.13760   0.73610   0.73413   0.00000  Uiso   1.00
O892   O     0.20345   0.92286   0.71361   0.00000  Uiso   1.00
Zn893  Zn    0.19338   0.80661   0.78734   0.00000  Uiso   1.00
Zn894  Zn    0.13379   0.79124   0.71875   0.00000  Uiso   1.00
Zn895  Zn    0.21056   0.86442   0.70657   0.00000  Uiso   1.00
Zn896  Zn    0.12893   0.87106   0.78734   0.00000  Uiso   1.00
C897   C     0.38602   0.82604   0.76060   0.00000  Uiso   1.00
C898   C     0.49929   0.82022   0.55952   0.00000  Uiso   1.00
C899   C     0.57007   0.80351   0.55647   0.00000  Uiso   1.00
C900   C     0.61436   0.84052   0.73961   0.00000  Uiso   1.00
C901   C     0.47184   0.85636   0.92021   0.00000  Uiso   1.00
C902   C     0.66074   0.84305   0.73420   0.00000  Uiso   1.00
C903   C     0.34093   0.82472   0.76368   0.00000  Uiso   1.00
C904   C     0.51405   0.98928   0.73616   0.00000  Uiso   1.00
C905   C     0.48552   0.67842   0.76386   0.00000  Uiso   1.00
C906   C     0.48967   0.72257   0.76008   0.00000  Uiso   1.00
C907   C     0.51003   0.94466   0.74005   0.00000  Uiso   1.00
C908   C     0.41607   0.86201   0.98952   0.00000  Uiso   1.00
C909   C     0.51895   0.81516   0.62931   0.00000  Uiso   1.00
C910   C     0.48238   0.85176   0.87084   0.00000  Uiso   1.00
C911   C     0.58321   0.80881   0.51087   0.00000  Uiso   1.00
C912   C     0.52841   0.80980   0.58084   0.00000  Uiso   1.00
C913   C     0.43041   0.86500   0.94354   0.00000  Uiso   1.00
C914   C     0.35894   0.86575   0.69612   0.00000  Uiso   1.00
C915   C     0.44226   0.84935   0.51293   0.00000  Uiso   1.00
C916   C     0.48466   0.84109   0.99088   0.00000  Uiso   1.00
C917   C     0.50021   0.84708   0.94424   0.00000  Uiso   1.00
C918   C     0.51227   0.82740   0.51351   0.00000  Uiso   1.00
C919   C     0.55518   0.82173   0.98946   0.00000  Uiso   1.00
C920   C     0.57053   0.83082   0.94476   0.00000  Uiso   1.00
C921   C     0.54385   0.84417   0.92278   0.00000  Uiso   1.00
H922   H     0.59297   0.79626   0.57322   0.00000  Uiso   1.00
H923   H     0.38380   0.86827   0.50702   0.00000  Uiso   1.00
H924   H     0.55838   0.85308   0.88896   0.00000  Uiso   1.00
H925   H     0.34251   0.87902   0.67489   0.00000  Uiso   1.00
H926   H     0.37895   0.89180   0.70981   0.00000  Uiso   1.00
H927   H     0.38016   0.84386   0.67433   0.00000  Uiso   1.00
H928   H     0.65185   0.80904   0.79150   0.00000  Uiso   1.00
H929   H     0.54042   0.67061   0.71061   0.00000  Uiso   1.00
H930   H     0.45885   0.99784   0.78957   0.00000  Uiso   1.00
H931   H     0.60370   0.82828   0.92679   0.00000  Uiso   1.00
H932   H     0.61596   0.80465   0.99273   0.00000  Uiso   1.00
H933   H     0.46788   0.82510   0.58041   0.00000  Uiso   1.00
H934   H     0.40830   0.87245   0.92591   0.00000  Uiso   1.00
H935   H     0.42834   0.84672   0.54828   0.00000  Uiso   1.00
O936   O     0.50000   0.83333   0.75000   0.00000  Uiso   1.00
O937   O     0.48784   0.79304   0.65458   0.00000  Uiso   1.00
O938   O     0.46274   0.87058   0.84968   0.00000  Uiso   1.00
O939   O     0.54157   0.84425   0.64606   0.00000  Uiso   1.00
O940   O     0.50785   0.82546   0.84968   0.00000  Uiso   1.00
O941   O     0.51264   0.74686   0.78213   0.00000  Uiso   1.00
O942   O     0.47965   0.92751   0.77014   0.00000  Uiso   1.00
O943   O     0.40745   0.79958   0.73413   0.00000  Uiso   1.00
O944   O     0.60026   0.85939   0.71360   0.00000  Uiso   1.00
O945   O     0.40405   0.85544   0.78213   0.00000  Uiso   1.00
O946   O     0.58824   0.81892   0.77013   0.00000  Uiso   1.00
O947   O     0.47093   0.73610   0.73413   0.00000  Uiso   1.00
O948   O     0.53678   0.92286   0.71361   0.00000  Uiso   1.00
Zn949  Zn    0.52672   0.80661   0.78734   0.00000  Uiso   1.00
Zn950  Zn    0.46713   0.79124   0.71875   0.00000  Uiso   1.00
Zn951  Zn    0.54389   0.86442   0.70657   0.00000  Uiso   1.00
Zn952  Zn    0.46226   0.87106   0.78734   0.00000  Uiso   1.00
C953   C     0.71935   0.82604   0.76060   0.00000  Uiso   1.00
C954   C     0.83263   0.82022   0.55952   0.00000  Uiso   1.00
C955   C     0.90340   0.80351   0.55647   0.00000  Uiso   1.00
C956   C     0.94769   0.84052   0.73961   0.00000  Uiso   1.00
C957   C     0.80517   0.85636   0.92021   0.00000  Uiso   1.00
C958   C     0.99407   0.84305   0.73420   0.00000  Uiso   1.00
C959   C     0.67427   0.82472   0.76368   0.00000  Uiso   1.00
C960   C     0.84739   0.98928   0.73616   0.00000  Uiso   1.00
C961   C     0.81885   0.67842   0.76386   0.00000  Uiso   1.00
C962   C     0.82301   0.72257   0.76008   0.00000  Uiso   1.00
C963   C     0.84337   0.94466   0.74005   0.00000  Uiso   1.00
C964   C     0.74940   0.86201   0.98952   0.00000  Uiso   1.00
C965   C     0.85228   0.81516   0.62931   0.00000  Uiso   1.00
C966   C     0.81571   0.85176   0.87084   0.00000  Uiso   1.00
C967   C     0.91655   0.80881   0.51087   0.00000  Uiso   1.00
C968   C     0.86175   0.80980   0.58084   0.00000  Uiso   1.00
C969   C     0.76374   0.86500   0.94354   0.00000  Uiso   1.00
C970   C     0.69227   0.86575   0.69612   0.00000  Uiso   1.00
C971   C     0.77560   0.84935   0.51293   0.00000  Uiso   1.00
C972   C     0.81799   0.84109   0.99088   0.00000  Uiso   1.00
C973   C     0.83355   0.84708   0.94424   0.00000  Uiso   1.00
C974   C     0.84560   0.82740   0.51351   0.00000  Uiso   1.00
C975   C     0.88851   0.82173   0.98946   0.00000  Uiso   1.00
C976   C     0.90387   0.83082   0.94476   0.00000  Uiso   1.00
C977   C     0.87718   0.84417   0.92278   0.00000  Uiso   1.00
H978   H     0.92630   0.79626   0.57322   0.00000  Uiso   1.00
H979   H     0.71713   0.86827   0.50702   0.00000  Uiso   1.00
H980   H     0.89171   0.85308   0.88896   0.00000  Uiso   1.00
H981   H     0.67585   0.87902   0.67489   0.00000  Uiso   1.00
H982   H     0.71228   0.89180   0.70981   0.00000  Uiso   1.00
H983   H     0.71349   0.84386   0.67433   0.00000  Uiso   1.00
H984   H     0.98519   0.80904   0.79150   0.00000  Uiso   1.00
H985   H     0.87376   0.67061   0.71061   0.00000  Uiso   1.00
H986   H     0.79218   0.99784   0.78957   0.00000  Uiso   1.00
H987   H     0.93703   0.82828   0.92679   0.00000  Uiso   1.00
H988   H     0.94930   0.80465   0.99273   0.00000  Uiso   1.00
H989   H     0.80121   0.82510   0.58041   0.00000  Uiso   1.00
H990   H     0.74164   0.87245   0.92591   0.00000  Uiso   1.00
H991   H     0.76167   0.84672   0.54828   0.00000  Uiso   1.00
O992   O     0.83333   0.83333   0.75000   0.00000  Uiso   1.00
O993   O     0.82118   0.79304   0.65458   0.00000  Uiso   1.00
O994   O     0.79607   0.87058   0.84968   0.00000  Uiso   1.00
O995   O     0.87491   0.84425   0.64606   0.00000  Uiso   1.00
O996   O     0.84118   0.82546   0.84968   0.00000  Uiso   1.00
O997   O     0.84597   0.74686   0.78213   0.00000  Uiso   1.00
O998   O     0.81298   0.92751   0.77014   0.00000  Uiso   1.00
O999   O     0.74078   0.79958   0.73413   0.00000  Uiso   1.00
O1000  O     0.93360   0.85939   0.71360   0.00000  Uiso   1.00
O1001  O     0.73738   0.85544   0.78213   0.00000  Uiso   1.00
O1002  O     0.92158   0.81892   0.77013   0.00000  Uiso   1.00
O1003  O     0.80426   0.73610   0.73413   0.00000  Uiso   1.00
O1004  O     0.87012   0.92286   0.71361   0.00000  Uiso   1.00
Zn1005 Zn    0.86005   0.80661   0.78734   0.00000  Uiso   1.00
Zn1006 Zn    0.80046   0.79124   0.71875   0.00000  Uiso   1.00
Zn1007 Zn    0.87723   0.86442   0.70657   0.00000  Uiso   1.00
Zn1008 Zn    0.79560   0.87106   0.78734   0.00000  Uiso   1.00
loop_
_geom_bond_atom_site_label_1
_geom_bond_atom_site_label_2
_geom_bond_distance
_geom_bond_site_symmetry_2
_ccdc_geom_bond_type
C1     O47     1.273   .     A
C1     C7      1.441   .     S
C1     O49     1.272   .     A
C2     C22     1.411   .     A
C2     C16     1.394   .     A
C2     H37     1.077   .     S
C3     C15     1.387   .     A
C3     C16     1.396   .     A
C3     H26     1.084   .     S
C4     C6      1.466   .     S
C4     O48     1.278   .     A
C4     O50     1.281   .     A
C5     C14     1.475   .     S
C5     C17     1.402   .     A
C5     C21     1.419   .     A
C6     C63     1.343   .     S
C6     C74     1.516   .     S
C7     C118    1.343   1_455 S
C7     H144    1.086   1_455 S
C8     C11     1.452   .     S
C8     C177    1.332   .     S
C8     H201    1.088   .     S
C9     C10     1.436   .     S
C9     C344    1.332   1_545 S
C9     H370    1.086   1_545 S
C10    O45     1.281   .     A
C10    O51     1.281   .     A
C11    O52     1.269   .     A
C11    O46     1.268   .     A
C12    C17     1.387   .     A
C12    C523    1.391   .     S
C12    H531    1.083   .     S
C13    O41     1.277   .     A
C13    O43     1.267   .     A
C13    C16     1.451   .     S
C14    O42     1.284   .     A
C14    O44     1.284   .     A
C15    C527    1.400   1_554 S
C15    H540    1.084   1_554 S
C17    H38     1.083   .     S
C18    H30     1.111   .     S
C18    H29     1.109   .     S
C18    H31     1.111   .     S
C18    C118    1.516   1_455 S
C19    H39     1.076   .     S
C19    C516    1.391   1_554 S
C19    C524    1.417   1_554 S
C20    C21     1.424   .     A
C20    C523    1.417   .     S
C20    C526    1.426   .     S
C21    C25     1.410   .     A
C22    C524    1.426   1_554 S
C22    C527    1.424   1_554 S
C23    C24     1.391   .     A
C23    C519    1.400   .     S
C23    C526    1.424   .     S
C24    C25     1.382   .     A
C24    H35     1.084   .     S
C25    H28     1.080   .     S
H27    C516    1.083   1_554 S
H32    C63     1.086   .     S
H33    C344    1.088   1_545 S
H34    C177    1.086   .     S
H36    C519    1.084   .     S
O40    Zn55    1.923   .     S
O40    Zn53    1.963   .     S
O40    Zn54    1.952   .     S
O40    Zn56    1.933   .     S
O41    Zn54    1.929   .     S
O42    Zn56    1.945   .     S
O43    Zn55    1.943   .     S
O44    Zn53    1.930   .     S
O45    Zn53    1.928   .     S
O46    Zn56    1.925   .     S
O47    Zn54    1.926   .     S
O48    Zn55    1.941   .     S
O49    Zn56    1.936   .     S
O50    Zn53    1.921   .     S
O51    Zn54    1.933   .     S
O52    Zn55    1.930   .     S
C57    O103    1.273   .     A
C57    C63     1.441   .     S
C57    O105    1.272   .     A
C58    C78     1.411   .     A
C58    C72     1.394   .     A
C58    H93     1.077   .     S
C59    C71     1.387   .     A
C59    C72     1.396   .     A
C59    H82     1.084   .     S
C60    C62     1.466   .     S
C60    O104    1.278   .     A
C60    O106    1.281   .     A
C61    C70     1.475   .     S
C61    C73     1.402   .     A
C61    C77     1.419   .     A
C62    C119    1.343   .     S
C62    C130    1.516   .     S
C64    C67     1.452   .     S
C64    C233    1.332   .     S
C64    H257    1.088   .     S
C65    C66     1.436   .     S
C65    C400    1.332   1_545 S
C65    H426    1.086   1_545 S
C66    O101    1.281   .     A
C66    O107    1.281   .     A
C67    O108    1.269   .     A
C67    O102    1.268   .     A
C68    C73     1.387   .     A
C68    C579    1.391   .     S
C68    H587    1.083   .     S
C69    O97     1.277   .     A
C69    O99     1.267   .     A
C69    C72     1.451   .     S
C70    O98     1.284   .     A
C70    O100    1.284   .     A
C71    C583    1.400   1_554 S
C71    H596    1.084   1_554 S
C73    H94     1.083   .     S
C74    H86     1.111   .     S
C74    H85     1.109   .     S
C74    H87     1.111   .     S
C75    H95     1.076   .     S
C75    C572    1.391   1_554 S
C75    C580    1.417   1_554 S
C76    C77     1.424   .     A
C76    C579    1.417   .     S
C76    C582    1.426   .     S
C77    C81     1.410   .     A
C78    C580    1.426   1_554 S
C78    C583    1.424   1_554 S
C79    C80     1.391   .     A
C79    C575    1.400   .     S
C79    C582    1.424   .     S
C80    C81     1.382   .     A
C80    H91     1.084   .     S
C81    H84     1.080   .     S
H83    C572    1.083   1_554 S
H88    C119    1.086   .     S
H89    C400    1.088   1_545 S
H90    C233    1.086   .     S
H92    C575    1.084   .     S
O96    Zn111   1.923   .     S
O96    Zn109   1.963   .     S
O96    Zn110   1.952   .     S
O96    Zn112   1.933   .     S
O97    Zn110   1.929   .     S
O98    Zn112   1.945   .     S
O99    Zn111   1.943   .     S
O100   Zn109   1.930   .     S
O101   Zn109   1.928   .     S
O102   Zn112   1.925   .     S
O103   Zn110   1.926   .     S
O104   Zn111   1.941   .     S
O105   Zn112   1.936   .     S
O106   Zn109   1.921   .     S
O107   Zn110   1.933   .     S
O108   Zn111   1.930   .     S
C113   O159    1.273   .     A
C113   C119    1.441   .     S
C113   O161    1.272   .     A
C114   C134    1.411   .     A
C114   C128    1.394   .     A
C114   H149    1.077   .     S
C115   C127    1.387   .     A
C115   C128    1.396   .     A
C115   H138    1.084   .     S
C116   C118    1.466   .     S
C116   O160    1.278   .     A
C116   O162    1.281   .     A
C117   C126    1.475   .     S
C117   C129    1.402   .     A
C117   C133    1.419   .     A
C118   C7      1.343   1_655 S
C118   C18     1.516   1_655 S
C120   C123    1.452   .     S
C120   C289    1.332   .     S
C120   H313    1.088   .     S
C121   C122    1.436   .     S
C121   C456    1.332   1_545 S
C121   H482    1.086   1_545 S
C122   O157    1.281   .     A
C122   O163    1.281   .     A
C123   O164    1.269   .     A
C123   O158    1.268   .     A
C124   C129    1.387   .     A
C124   C635    1.391   .     S
C124   H643    1.083   .     S
C125   O153    1.277   .     A
C125   O155    1.267   .     A
C125   C128    1.451   .     S
C126   O154    1.284   .     A
C126   O156    1.284   .     A
C127   C639    1.400   1_554 S
C127   H652    1.084   1_554 S
C129   H150    1.083   .     S
C130   H142    1.111   .     S
C130   H141    1.109   .     S
C130   H143    1.111   .     S
C131   H151    1.076   .     S
C131   C628    1.391   1_554 S
C131   C636    1.417   1_554 S
C132   C133    1.424   .     A
C132   C635    1.417   .     S
C132   C638    1.426   .     S
C133   C137    1.410   .     A
C134   C636    1.426   1_554 S
C134   C639    1.424   1_554 S
C135   C136    1.391   .     A
C135   C631    1.400   .     S
C135   C638    1.424   .     S
C136   C137    1.382   .     A
C136   H147    1.084   .     S
C137   H140    1.080   .     S
H139   C628    1.083   1_554 S
H144   C7      1.086   1_655 S
H145   C456    1.088   1_545 S
H146   C289    1.086   .     S
H148   C631    1.084   .     S
O152   Zn167   1.923   .     S
O152   Zn165   1.963   .     S
O152   Zn166   1.952   .     S
O152   Zn168   1.933   .     S
O153   Zn166   1.929   .     S
O154   Zn168   1.945   .     S
O155   Zn167   1.943   .     S
O156   Zn165   1.930   .     S
O157   Zn165   1.928   .     S
O158   Zn168   1.925   .     S
O159   Zn166   1.926   .     S
O160   Zn167   1.941   .     S
O161   Zn168   1.936   .     S
O162   Zn165   1.921   .     S
O163   Zn166   1.933   .     S
O164   Zn167   1.930   .     S
C169   O215    1.273   .     A
C169   C175    1.441   .     S
C169   O217    1.272   .     A
C170   C190    1.411   .     A
C170   C184    1.394   .     A
C170   H205    1.077   .     S
C171   C183    1.387   .     A
C171   C184    1.396   .     A
C171   H194    1.084   .     S
C172   C174    1.466   .     S
C172   O216    1.278   .     A
C172   O218    1.281   .     A
C173   C182    1.475   .     S
C173   C185    1.402   .     A
C173   C189    1.419   .     A
C174   C231    1.343   .     S
C174   C242    1.516   .     S
C175   C286    1.343   1_455 S
C175   H312    1.086   1_455 S
C176   C179    1.452   .     S
C176   C345    1.332   .     S
C176   H369    1.088   .     S
C177   C178    1.436   .     S
C178   O213    1.281   .     A
C178   O219    1.281   .     A
C179   O220    1.269   .     A
C179   O214    1.268   .     A
C180   C185    1.387   .     A
C180   C691    1.391   .     S
C180   H699    1.083   .     S
C181   O209    1.277   .     A
C181   O211    1.267   .     A
C181   C184    1.451   .     S
C182   O210    1.284   .     A
C182   O212    1.284   .     A
C183   C695    1.400   1_554 S
C183   H708    1.084   1_554 S
C185   H206    1.083   .     S
C186   H198    1.111   .     S
C186   H197    1.109   .     S
C186   H199    1.111   .     S
C186   C286    1.516   1_455 S
C187   H207    1.076   .     S
C187   C684    1.391   1_554 S
C187   C692    1.417   1_554 S
C188   C189    1.424   .     A
C188   C691    1.417   .     S
C188   C694    1.426   .     S
C189   C193    1.410   .     A
C190   C692    1.426   1_554 S
C190   C695    1.424   1_554 S
C191   C192    1.391   .     A
C191   C687    1.400   .     S
C191   C694    1.424   .     S
C192   C193    1.382   .     A
C192   H203    1.084   .     S
C193   H196    1.080   .     S
H195   C684    1.083   1_554 S
H200   C231    1.086   .     S
H202   C345    1.086   .     S
H204   C687    1.084   .     S
O208   Zn223   1.923   .     S
O208   Zn221   1.963   .     S
O208   Zn222   1.952   .     S
O208   Zn224   1.933   .     S
O209   Zn222   1.929   .     S
O210   Zn224   1.945   .     S
O211   Zn223   1.943   .     S
O212   Zn221   1.930   .     S
O213   Zn221   1.928   .     S
O214   Zn224   1.925   .     S
O215   Zn222   1.926   .     S
O216   Zn223   1.941   .     S
O217   Zn224   1.936   .     S
O218   Zn221   1.921   .     S
O219   Zn222   1.933   .     S
O220   Zn223   1.930   .     S
C225   O271    1.273   .     A
C225   C231    1.441   .     S
C225   O273    1.272   .     A
C226   C246    1.411   .     A
C226   C240    1.394   .     A
C226   H261    1.077   .     S
C227   C239    1.387   .     A
C227   C240    1.396   .     A
C227   H250    1.084   .     S
C228   C230    1.466   .     S
C228   O272    1.278   .     A
C228   O274    1.281   .     A
C229   C238    1.475   .     S
C229   C241    1.402   .     A
C229   C245    1.419   .     A
C230   C287    1.343   .     S
C230   C298    1.516   .     S
C232   C235    1.452   .     S
C232   C401    1.332   .     S
C232   H425    1.088   .     S
C233   C234    1.436   .     S
C234   O269    1.281   .     A
C234   O275    1.281   .     A
C235   O276    1.269   .     A
C235   O270    1.268   .     A
C236   C241    1.387   .     A
C236   C747    1.391   .     S
C236   H755    1.083   .     S
C237   O265    1.277   .     A
C237   O267    1.267   .     A
C237   C240    1.451   .     S
C238   O266    1.284   .     A
C238   O268    1.284   .     A
C239   C751    1.400   1_554 S
C239   H764    1.084   1_554 S
C241   H262    1.083   .     S
C242   H254    1.111   .     S
C242   H253    1.109   .     S
C242   H255    1.111   .     S
C243   H263    1.076   .     S
C243   C740    1.391   1_554 S
C243   C748    1.417   1_554 S
C244   C245    1.424   .     A
C244   C747    1.417   .     S
C244   C750    1.426   .     S
C245   C249    1.410   .     A
C246   C748    1.426   1_554 S
C246   C751    1.424   1_554 S
C247   C248    1.391   .     A
C247   C743    1.400   .     S
C247   C750    1.424   .     S
C248   C249    1.382   .     A
C248   H259    1.084   .     S
C249   H252    1.080   .     S
H251   C740    1.083   1_554 S
H256   C287    1.086   .     S
H258   C401    1.086   .     S
H260   C743    1.084   .     S
O264   Zn279   1.923   .     S
O264   Zn277   1.963   .     S
O264   Zn278   1.952   .     S
O264   Zn280   1.933   .     S
O265   Zn278   1.929   .     S
O266   Zn280   1.945   .     S
O267   Zn279   1.943   .     S
O268   Zn277   1.930   .     S
O269   Zn277   1.928   .     S
O270   Zn280   1.925   .     S
O271   Zn278   1.926   .     S
O272   Zn279   1.941   .     S
O273   Zn280   1.936   .     S
O274   Zn277   1.921   .     S
O275   Zn278   1.933   .     S
O276   Zn279   1.930   .     S
C281   O327    1.273   .     A
C281   C287    1.441   .     S
C281   O329    1.272   .     A
C282   C302    1.411   .     A
C282   C296    1.394   .     A
C282   H317    1.077   .     S
C283   C295    1.387   .     A
C283   C296    1.396   .     A
C283   H306    1.084   .     S
C284   C286    1.466   .     S
C284   O328    1.278   .     A
C284   O330    1.281   .     A
C285   C294    1.475   .     S
C285   C297    1.402   .     A
C285   C301    1.419   .     A
C286   C175    1.343   1_655 S
C286   C186    1.516   1_655 S
C288   C291    1.452   .     S
C288   C457    1.332   .     S
C288   H481    1.088   .     S
C289   C290    1.436   .     S
C290   O325    1.281   .     A
C290   O331    1.281   .     A
C291   O332    1.269   .     A
C291   O326    1.268   .     A
C292   C297    1.387   .     A
C292   C803    1.391   .     S
C292   H811    1.083   .     S
C293   O321    1.277   .     A
C293   O323    1.267   .     A
C293   C296    1.451   .     S
C294   O322    1.284   .     A
C294   O324    1.284   .     A
C295   C807    1.400   1_554 S
C295   H820    1.084   1_554 S
C297   H318    1.083   .     S
C298   H310    1.111   .     S
C298   H309    1.109   .     S
C298   H311    1.111   .     S
C299   H319    1.076   .     S
C299   C796    1.391   1_554 S
C299   C804    1.417   1_554 S
C300   C301    1.424   .     A
C300   C803    1.417   .     S
C300   C806    1.426   .     S
C301   C305    1.410   .     A
C302   C804    1.426   1_554 S
C302   C807    1.424   1_554 S
C303   C304    1.391   .     A
C303   C799    1.400   .     S
C303   C806    1.424   .     S
C304   C305    1.382   .     A
C304   H315    1.084   .     S
C305   H308    1.080   .     S
H307   C796    1.083   1_554 S
H312   C175    1.086   1_655 S
H314   C457    1.086   .     S
H316   C799    1.084   .     S
O320   Zn335   1.923   .     S
O320   Zn333   1.963   .     S
O320   Zn334   1.952   .     S
O320   Zn336   1.933   .     S
O321   Zn334   1.929   .     S
O322   Zn336   1.945   .     S
O323   Zn335   1.943   .     S
O324   Zn333   1.930   .     S
O325   Zn333   1.928   .     S
O326   Zn336   1.925   .     S
O327   Zn334   1.926   .     S
O328   Zn335   1.941   .     S
O329   Zn336   1.936   .     S
O330   Zn333   1.921   .     S
O331   Zn334   1.933   .     S
O332   Zn335   1.930   .     S
C337   O383    1.273   .     A
C337   C343    1.441   .     S
C337   O385    1.272   .     A
C338   C358    1.411   .     A
C338   C352    1.394   .     A
C338   H373    1.077   .     S
C339   C351    1.387   .     A
C339   C352    1.396   .     A
C339   H362    1.084   .     S
C340   C342    1.466   .     S
C340   O384    1.278   .     A
C340   O386    1.281   .     A
C341   C350    1.475   .     S
C341   C353    1.402   .     A
C341   C357    1.419   .     A
C342   C399    1.343   .     S
C342   C410    1.516   .     S
C343   C454    1.343   1_455 S
C343   H480    1.086   1_455 S
C344   C347    1.452   .     S
C344   C9      1.332   1_565 S
C344   H33     1.088   1_565 S
C345   C346    1.436   .     S
C346   O381    1.281   .     A
C346   O387    1.281   .     A
C347   O388    1.269   .     A
C347   O382    1.268   .     A
C348   C353    1.387   .     A
C348   C859    1.391   .     S
C348   H867    1.083   .     S
C349   O377    1.277   .     A
C349   O379    1.267   .     A
C349   C352    1.451   .     S
C350   O378    1.284   .     A
C350   O380    1.284   .     A
C351   C863    1.400   1_554 S
C351   H876    1.084   1_554 S
C353   H374    1.083   .     S
C354   H366    1.111   .     S
C354   H365    1.109   .     S
C354   H367    1.111   .     S
C354   C454    1.516   1_455 S
C355   H375    1.076   .     S
C355   C852    1.391   1_554 S
C355   C860    1.417   1_554 S
C356   C357    1.424   .     A
C356   C859    1.417   .     S
C356   C862    1.426   .     S
C357   C361    1.410   .     A
C358   C860    1.426   1_554 S
C358   C863    1.424   1_554 S
C359   C360    1.391   .     A
C359   C855    1.400   .     S
C359   C862    1.424   .     S
C360   C361    1.382   .     A
C360   H371    1.084   .     S
C361   H364    1.080   .     S
H363   C852    1.083   1_554 S
H368   C399    1.086   .     S
H370   C9      1.086   1_565 S
H372   C855    1.084   .     S
O376   Zn391   1.923   .     S
O376   Zn389   1.963   .     S
O376   Zn390   1.952   .     S
O376   Zn392   1.933   .     S
O377   Zn390   1.929   .     S
O378   Zn392   1.945   .     S
O379   Zn391   1.943   .     S
O380   Zn389   1.930   .     S
O381   Zn389   1.928   .     S
O382   Zn392   1.925   .     S
O383   Zn390   1.926   .     S
O384   Zn391   1.941   .     S
O385   Zn392   1.936   .     S
O386   Zn389   1.921   .     S
O387   Zn390   1.933   .     S
O388   Zn391   1.930   .     S
C393   O439    1.273   .     A
C393   C399    1.441   .     S
C393   O441    1.272   .     A
C394   C414    1.411   .     A
C394   C408    1.394   .     A
C394   H429    1.077   .     S
C395   C407    1.387   .     A
C395   C408    1.396   .     A
C395   H418    1.084   .     S
C396   C398    1.466   .     S
C396   O440    1.278   .     A
C396   O442    1.281   .     A
C397   C406    1.475   .     S
C397   C409    1.402   .     A
C397   C413    1.419   .     A
C398   C455    1.343   .     S
C398   C466    1.516   .     S
C400   C403    1.452   .     S
C400   C65     1.332   1_565 S
C400   H89     1.088   1_565 S
C401   C402    1.436   .     S
C402   O437    1.281   .     A
C402   O443    1.281   .     A
C403   O444    1.269   .     A
C403   O438    1.268   .     A
C404   C409    1.387   .     A
C404   C915    1.391   .     S
C404   H923    1.083   .     S
C405   O433    1.277   .     A
C405   O435    1.267   .     A
C405   C408    1.451   .     S
C406   O434    1.284   .     A
C406   O436    1.284   .     A
C407   C919    1.400   1_554 S
C407   H932    1.084   1_554 S
C409   H430    1.083   .     S
C410   H422    1.111   .     S
C410   H421    1.109   .     S
C410   H423    1.111   .     S
C411   H431    1.076   .     S
C411   C908    1.391   1_554 S
C411   C916    1.417   1_554 S
C412   C413    1.424   .     A
C412   C915    1.417   .     S
C412   C918    1.426   .     S
C413   C417    1.410   .     A
C414   C916    1.426   1_554 S
C414   C919    1.424   1_554 S
C415   C416    1.391   .     A
C415   C911    1.400   .     S
C415   C918    1.424   .     S
C416   C417    1.382   .     A
C416   H427    1.084   .     S
C417   H420    1.080   .     S
H419   C908    1.083   1_554 S
H424   C455    1.086   .     S
H426   C65     1.086   1_565 S
H428   C911    1.084   .     S
O432   Zn447   1.923   .     S
O432   Zn445   1.963   .     S
O432   Zn446   1.952   .     S
O432   Zn448   1.933   .     S
O433   Zn446   1.929   .     S
O434   Zn448   1.945   .     S
O435   Zn447   1.943   .     S
O436   Zn445   1.930   .     S
O437   Zn445   1.928   .     S
O438   Zn448   1.925   .     S
O439   Zn446   1.926   .     S
O440   Zn447   1.941   .     S
O441   Zn448   1.936   .     S
O442   Zn445   1.921   .     S
O443   Zn446   1.933   .     S
O444   Zn447   1.930   .     S
C449   O495    1.273   .     A
C449   C455    1.441   .     S
C449   O497    1.272   .     A
C450   C470    1.411   .     A
C450   C464    1.394   .     A
C450   H485    1.077   .     S
C451   C463    1.387   .     A
C451   C464    1.396   .     A
C451   H474    1.084   .     S
C452   C454    1.466   .     S
C452   O496    1.278   .     A
C452   O498    1.281   .     A
C453   C462    1.475   .     S
C453   C465    1.402   .     A
C453   C469    1.419   .     A
C454   C343    1.343   1_655 S
C454   C354    1.516   1_655 S
C456   C459    1.452   .     S
C456   C121    1.332   1_565 S
C456   H145    1.088   1_565 S
C457   C458    1.436   .     S
C458   O493    1.281   .     A
C458   O499    1.281   .     A
C459   O500    1.269   .     A
C459   O494    1.268   .     A
C460   C465    1.387   .     A
C460   C971    1.391   .     S
C460   H979    1.083   .     S
C461   O489    1.277   .     A
C461   O491    1.267   .     A
C461   C464    1.451   .     S
C462   O490    1.284   .     A
C462   O492    1.284   .     A
C463   C975    1.400   1_554 S
C463   H988    1.084   1_554 S
C465   H486    1.083   .     S
C466   H478    1.111   .     S
C466   H477    1.109   .     S
C466   H479    1.111   .     S
C467   H487    1.076   .     S
C467   C964    1.391   1_554 S
C467   C972    1.417   1_554 S
C468   C469    1.424   .     A
C468   C971    1.417   .     S
C468   C974    1.426   .     S
C469   C473    1.410   .     A
C470   C972    1.426   1_554 S
C470   C975    1.424   1_554 S
C471   C472    1.391   .     A
C471   C967    1.400   .     S
C471   C974    1.424   .     S
C472   C473    1.382   .     A
C472   H483    1.084   .     S
C473   H476    1.080   .     S
H475   C964    1.083   1_554 S
H480   C343    1.086   1_655 S
H482   C121    1.086   1_565 S
H484   C967    1.084   .     S
O488   Zn503   1.923   .     S
O488   Zn501   1.963   .     S
O488   Zn502   1.952   .     S
O488   Zn504   1.933   .     S
O489   Zn502   1.929   .     S
O490   Zn504   1.945   .     S
O491   Zn503   1.943   .     S
O492   Zn501   1.930   .     S
O493   Zn501   1.928   .     S
O494   Zn504   1.925   .     S
O495   Zn502   1.926   .     S
O496   Zn503   1.941   .     S
O497   Zn504   1.936   .     S
O498   Zn501   1.921   .     S
O499   Zn502   1.933   .     S
O500   Zn503   1.930   .     S
C505   O551    1.273   .     A
C505   C511    1.441   .     S
C505   O553    1.272   .     A
C506   C526    1.411   .     A
C506   C520    1.394   .     A
C506   H541    1.077   .     S
C507   C519    1.387   .     A
C507   C520    1.396   .     A
C507   H530    1.084   .     S
C508   C510    1.466   .     S
C508   O552    1.278   .     A
C508   O554    1.281   .     A
C509   C518    1.475   .     S
C509   C521    1.402   .     A
C509   C525    1.419   .     A
C510   C567    1.343   .     S
C510   C578    1.516   .     S
C511   C622    1.343   1_455 S
C511   H648    1.086   1_455 S
C512   C515    1.452   .     S
C512   C681    1.332   .     S
C512   H705    1.088   .     S
C513   C514    1.436   .     S
C513   C848    1.332   1_545 S
C513   H874    1.086   1_545 S
C514   O549    1.281   .     A
C514   O555    1.281   .     A
C515   O556    1.269   .     A
C515   O550    1.268   .     A
C516   C521    1.387   .     A
C516   C19     1.391   1_556 S
C516   H27     1.083   1_556 S
C517   O545    1.277   .     A
C517   O547    1.267   .     A
C517   C520    1.451   .     S
C518   O546    1.284   .     A
C518   O548    1.284   .     A
C521   H542    1.083   .     S
C522   H534    1.111   .     S
C522   H533    1.109   .     S
C522   H535    1.111   .     S
C522   C622    1.516   1_455 S
C523   H543    1.076   .     S
C524   C525    1.424   .     A
C524   C19     1.417   1_556 S
C524   C22     1.426   1_556 S
C525   C529    1.410   .     A
C527   C528    1.391   .     A
C527   C15     1.400   1_556 S
C527   C22     1.424   1_556 S
C528   C529    1.382   .     A
C528   H539    1.084   .     S
C529   H532    1.080   .     S
H536   C567    1.086   .     S
H537   C848    1.088   1_545 S
H538   C681    1.086   .     S
H540   C15     1.084   1_556 S
O544   Zn559   1.923   .     S
O544   Zn557   1.963   .     S
O544   Zn558   1.952   .     S
O544   Zn560   1.933   .     S
O545   Zn558   1.929   .     S
O546   Zn560   1.945   .     S
O547   Zn559   1.943   .     S
O548   Zn557   1.930   .     S
O549   Zn557   1.928   .     S
O550   Zn560   1.925   .     S
O551   Zn558   1.926   .     S
O552   Zn559   1.941   .     S
O553   Zn560   1.936   .     S
O554   Zn557   1.921   .     S
O555   Zn558   1.933   .     S
O556   Zn559   1.930   .     S
C561   O607    1.273   .     A
C561   C567    1.441   .     S
C561   O609    1.272   .     A
C562   C582    1.411   .     A
C562   C576    1.394   .     A
C562   H597    1.077   .     S
C563   C575    1.387   .     A
C563   C576    1.396   .     A
C563   H586    1.084   .     S
C564   C566    1.466   .     S
C564   O608    1.278   .     A
C564   O610    1.281   .     A
C565   C574    1.475   .     S
C565   C577    1.402   .     A
C565   C581    1.419   .     A
C566   C623    1.343   .     S
C566   C634    1.516   .     S
C568   C571    1.452   .     S
C568   C737    1.332   .     S
C568   H761    1.088   .     S
C569   C570    1.436   .     S
C569   C904    1.332   1_545 S
C569   H930    1.086   1_545 S
C570   O605    1.281   .     A
C570   O611    1.281   .     A
C571   O612    1.269   .     A
C571   O606    1.268   .     A
C572   C577    1.387   .     A
C572   C75     1.391   1_556 S
C572   H83     1.083   1_556 S
C573   O601    1.277   .     A
C573   O603    1.267   .     A
C573   C576    1.451   .     S
C574   O602    1.284   .     A
C574   O604    1.284   .     A
C577   H598    1.083   .     S
C578   H590    1.111   .     S
C578   H589    1.109   .     S
C578   H591    1.111   .     S
C579   H599    1.076   .     S
C580   C581    1.424   .     A
C580   C75     1.417   1_556 S
C580   C78     1.426   1_556 S
C581   C585    1.410   .     A
C583   C584    1.391   .     A
C583   C71     1.400   1_556 S
C583   C78     1.424   1_556 S
C584   C585    1.382   .     A
C584   H595    1.084   .     S
C585   H588    1.080   .     S
H592   C623    1.086   .     S
H593   C904    1.088   1_545 S
H594   C737    1.086   .     S
H596   C71     1.084   1_556 S
O600   Zn615   1.923   .     S
O600   Zn613   1.963   .     S
O600   Zn614   1.952   .     S
O600   Zn616   1.933   .     S
O601   Zn614   1.929   .     S
O602   Zn616   1.945   .     S
O603   Zn615   1.943   .     S
O604   Zn613   1.930   .     S
O605   Zn613   1.928   .     S
O606   Zn616   1.925   .     S
O607   Zn614   1.926   .     S
O608   Zn615   1.941   .     S
O609   Zn616   1.936   .     S
O610   Zn613   1.921   .     S
O611   Zn614   1.933   .     S
O612   Zn615   1.930   .     S
C617   O663    1.273   .     A
C617   C623    1.441   .     S
C617   O665    1.272   .     A
C618   C638    1.411   .     A
C618   C632    1.394   .     A
C618   H653    1.077   .     S
C619   C631    1.387   .     A
C619   C632    1.396   .     A
C619   H642    1.084   .     S
C620   C622    1.466   .     S
C620   O664    1.278   .     A
C620   O666    1.281   .     A
C621   C630    1.475   .     S
C621   C633    1.402   .     A
C621   C637    1.419   .     A
C622   C511    1.343   1_655 S
C622   C522    1.516   1_655 S
C624   C627    1.452   .     S
C624   C793    1.332   .     S
C624   H817    1.088   .     S
C625   C626    1.436   .     S
C625   C960    1.332   1_545 S
C625   H986    1.086   1_545 S
C626   O661    1.281   .     A
C626   O667    1.281   .     A
C627   O668    1.269   .     A
C627   O662    1.268   .     A
C628   C633    1.387   .     A
C628   C131    1.391   1_556 S
C628   H139    1.083   1_556 S
C629   O657    1.277   .     A
C629   O659    1.267   .     A
C629   C632    1.451   .     S
C630   O658    1.284   .     A
C630   O660    1.284   .     A
C633   H654    1.083   .     S
C634   H646    1.111   .     S
C634   H645    1.109   .     S
C634   H647    1.111   .     S
C635   H655    1.076   .     S
C636   C637    1.424   .     A
C636   C131    1.417   1_556 S
C636   C134    1.426   1_556 S
C637   C641    1.410   .     A
C639   C640    1.391   .     A
C639   C127    1.400   1_556 S
C639   C134    1.424   1_556 S
C640   C641    1.382   .     A
C640   H651    1.084   .     S
C641   H644    1.080   .     S
H648   C511    1.086   1_655 S
H649   C960    1.088   1_545 S
H650   C793    1.086   .     S
H652   C127    1.084   1_556 S
O656   Zn671   1.923   .     S
O656   Zn669   1.963   .     S
O656   Zn670   1.952   .     S
O656   Zn672   1.933   .     S
O657   Zn670   1.929   .     S
O658   Zn672   1.945   .     S
O659   Zn671   1.943   .     S
O660   Zn669   1.930   .     S
O661   Zn669   1.928   .     S
O662   Zn672   1.925   .     S
O663   Zn670   1.926   .     S
O664   Zn671   1.941   .     S
O665   Zn672   1.936   .     S
O666   Zn669   1.921   .     S
O667   Zn670   1.933   .     S
O668   Zn671   1.930   .     S
C673   O719    1.273   .     A
C673   C679    1.441   .     S
C673   O721    1.272   .     A
C674   C694    1.411   .     A
C674   C688    1.394   .     A
C674   H709    1.077   .     S
C675   C687    1.387   .     A
C675   C688    1.396   .     A
C675   H698    1.084   .     S
C676   C678    1.466   .     S
C676   O720    1.278   .     A
C676   O722    1.281   .     A
C677   C686    1.475   .     S
C677   C689    1.402   .     A
C677   C693    1.419   .     A
C678   C735    1.343   .     S
C678   C746    1.516   .     S
C679   C790    1.343   1_455 S
C679   H816    1.086   1_455 S
C680   C683    1.452   .     S
C680   C849    1.332   .     S
C680   H873    1.088   .     S
C681   C682    1.436   .     S
C682   O717    1.281   .     A
C682   O723    1.281   .     A
C683   O724    1.269   .     A
C683   O718    1.268   .     A
C684   C689    1.387   .     A
C684   C187    1.391   1_556 S
C684   H195    1.083   1_556 S
C685   O713    1.277   .     A
C685   O715    1.267   .     A
C685   C688    1.451   .     S
C686   O714    1.284   .     A
C686   O716    1.284   .     A
C689   H710    1.083   .     S
C690   H702    1.111   .     S
C690   H701    1.109   .     S
C690   H703    1.111   .     S
C690   C790    1.516   1_455 S
C691   H711    1.076   .     S
C692   C693    1.424   .     A
C692   C187    1.417   1_556 S
C692   C190    1.426   1_556 S
C693   C697    1.410   .     A
C695   C696    1.391   .     A
C695   C183    1.400   1_556 S
C695   C190    1.424   1_556 S
C696   C697    1.382   .     A
C696   H707    1.084   .     S
C697   H700    1.080   .     S
H704   C735    1.086   .     S
H706   C849    1.086   .     S
H708   C183    1.084   1_556 S
O712   Zn727   1.923   .     S
O712   Zn725   1.963   .     S
O712   Zn726   1.952   .     S
O712   Zn728   1.933   .     S
O713   Zn726   1.929   .     S
O714   Zn728   1.945   .     S
O715   Zn727   1.943   .     S
O716   Zn725   1.930   .     S
O717   Zn725   1.928   .     S
O718   Zn728   1.925   .     S
O719   Zn726   1.926   .     S
O720   Zn727   1.941   .     S
O721   Zn728   1.936   .     S
O722   Zn725   1.921   .     S
O723   Zn726   1.933   .     S
O724   Zn727   1.930   .     S
C729   O775    1.273   .     A
C729   C735    1.441   .     S
C729   O777    1.272   .     A
C730   C750    1.411   .     A
C730   C744    1.394   .     A
C730   H765    1.077   .     S
C731   C743    1.387   .     A
C731   C744    1.396   .     A
C731   H754    1.084   .     S
C732   C734    1.466   .     S
C732   O776    1.278   .     A
C732   O778    1.281   .     A
C733   C742    1.475   .     S
C733   C745    1.402   .     A
C733   C749    1.419   .     A
C734   C791    1.343   .     S
C734   C802    1.516   .     S
C736   C739    1.452   .     S
C736   C905    1.332   .     S
C736   H929    1.088   .     S
C737   C738    1.436   .     S
C738   O773    1.281   .     A
C738   O779    1.281   .     A
C739   O780    1.269   .     A
C739   O774    1.268   .     A
C740   C745    1.387   .     A
C740   C243    1.391   1_556 S
C740   H251    1.083   1_556 S
C741   O769    1.277   .     A
C741   O771    1.267   .     A
C741   C744    1.451   .     S
C742   O770    1.284   .     A
C742   O772    1.284   .     A
C745   H766    1.083   .     S
C746   H758    1.111   .     S
C746   H757    1.109   .     S
C746   H759    1.111   .     S
C747   H767    1.076   .     S
C748   C749    1.424   .     A
C748   C243    1.417   1_556 S
C748   C246    1.426   1_556 S
C749   C753    1.410   .     A
C751   C752    1.391   .     A
C751   C239    1.400   1_556 S
C751   C246    1.424   1_556 S
C752   C753    1.382   .     A
C752   H763    1.084   .     S
C753   H756    1.080   .     S
H760   C791    1.086   .     S
H762   C905    1.086   .     S
H764   C239    1.084   1_556 S
O768   Zn783   1.923   .     S
O768   Zn781   1.963   .     S
O768   Zn782   1.952   .     S
O768   Zn784   1.933   .     S
O769   Zn782   1.929   .     S
O770   Zn784   1.945   .     S
O771   Zn783   1.943   .     S
O772   Zn781   1.930   .     S
O773   Zn781   1.928   .     S
O774   Zn784   1.925   .     S
O775   Zn782   1.926   .     S
O776   Zn783   1.941   .     S
O777   Zn784   1.936   .     S
O778   Zn781   1.921   .     S
O779   Zn782   1.933   .     S
O780   Zn783   1.930   .     S
C785   O831    1.273   .     A
C785   C791    1.441   .     S
C785   O833    1.272   .     A
C786   C806    1.411   .     A
C786   C800    1.394   .     A
C786   H821    1.077   .     S
C787   C799    1.387   .     A
C787   C800    1.396   .     A
C787   H810    1.084   .     S
C788   C790    1.466   .     S
C788   O832    1.278   .     A
C788   O834    1.281   .     A
C789   C798    1.475   .     S
C789   C801    1.402   .     A
C789   C805    1.419   .     A
C790   C679    1.343   1_655 S
C790   C690    1.516   1_655 S
C792   C795    1.452   .     S
C792   C961    1.332   .     S
C792   H985    1.088   .     S
C793   C794    1.436   .     S
C794   O829    1.281   .     A
C794   O835    1.281   .     A
C795   O836    1.269   .     A
C795   O830    1.268   .     A
C796   C801    1.387   .     A
C796   C299    1.391   1_556 S
C796   H307    1.083   1_556 S
C797   O825    1.277   .     A
C797   O827    1.267   .     A
C797   C800    1.451   .     S
C798   O826    1.284   .     A
C798   O828    1.284   .     A
C801   H822    1.083   .     S
C802   H814    1.111   .     S
C802   H813    1.109   .     S
C802   H815    1.111   .     S
C803   H823    1.076   .     S
C804   C805    1.424   .     A
C804   C299    1.417   1_556 S
C804   C302    1.426   1_556 S
C805   C809    1.410   .     A
C807   C808    1.391   .     A
C807   C295    1.400   1_556 S
C807   C302    1.424   1_556 S
C808   C809    1.382   .     A
C808   H819    1.084   .     S
C809   H812    1.080   .     S
H816   C679    1.086   1_655 S
H818   C961    1.086   .     S
H820   C295    1.084   1_556 S
O824   Zn839   1.923   .     S
O824   Zn837   1.963   .     S
O824   Zn838   1.952   .     S
O824   Zn840   1.933   .     S
O825   Zn838   1.929   .     S
O826   Zn840   1.945   .     S
O827   Zn839   1.943   .     S
O828   Zn837   1.930   .     S
O829   Zn837   1.928   .     S
O830   Zn840   1.925   .     S
O831   Zn838   1.926   .     S
O832   Zn839   1.941   .     S
O833   Zn840   1.936   .     S
O834   Zn837   1.921   .     S
O835   Zn838   1.933   .     S
O836   Zn839   1.930   .     S
C841   O887    1.273   .     A
C841   C847    1.441   .     S
C841   O889    1.272   .     A
C842   C862    1.411   .     A
C842   C856    1.394   .     A
C842   H877    1.077   .     S
C843   C855    1.387   .     A
C843   C856    1.396   .     A
C843   H866    1.084   .     S
C844   C846    1.466   .     S
C844   O888    1.278   .     A
C844   O890    1.281   .     A
C845   C854    1.475   .     S
C845   C857    1.402   .     A
C845   C861    1.419   .     A
C846   C903    1.343   .     S
C846   C914    1.516   .     S
C847   C958    1.343   1_455 S
C847   H984    1.086   1_455 S
C848   C851    1.452   .     S
C848   C513    1.332   1_565 S
C848   H537    1.088   1_565 S
C849   C850    1.436   .     S
C850   O885    1.281   .     A
C850   O891    1.281   .     A
C851   O892    1.269   .     A
C851   O886    1.268   .     A
C852   C857    1.387   .     A
C852   C355    1.391   1_556 S
C852   H363    1.083   1_556 S
C853   O881    1.277   .     A
C853   O883    1.267   .     A
C853   C856    1.451   .     S
C854   O882    1.284   .     A
C854   O884    1.284   .     A
C857   H878    1.083   .     S
C858   H870    1.111   .     S
C858   H869    1.109   .     S
C858   H871    1.111   .     S
C858   C958    1.516   1_455 S
C859   H879    1.076   .     S
C860   C861    1.424   .     A
C860   C355    1.417   1_556 S
C860   C358    1.426   1_556 S
C861   C865    1.410   .     A
C863   C864    1.391   .     A
C863   C351    1.400   1_556 S
C863   C358    1.424   1_556 S
C864   C865    1.382   .     A
C864   H875    1.084   .     S
C865   H868    1.080   .     S
H872   C903    1.086   .     S
H874   C513    1.086   1_565 S
H876   C351    1.084   1_556 S
O880   Zn895   1.923   .     S
O880   Zn893   1.963   .     S
O880   Zn894   1.952   .     S
O880   Zn896   1.933   .     S
O881   Zn894   1.929   .     S
O882   Zn896   1.945   .     S
O883   Zn895   1.943   .     S
O884   Zn893   1.930   .     S
O885   Zn893   1.928   .     S
O886   Zn896   1.925   .     S
O887   Zn894   1.926   .     S
O888   Zn895   1.941   .     S
O889   Zn896   1.936   .     S
O890   Zn893   1.921   .     S
O891   Zn894   1.933   .     S
O892   Zn895   1.930   .     S
C897   O943    1.273   .     A
C897   C903    1.441   .     S
C897   O945    1.272   .     A
C898   C918    1.411   .     A
C898   C912    1.394   .     A
C898   H933    1.077   .     S
C899   C911    1.387   .     A
C899   C912    1.396   .     A
C899   H922    1.084   .     S
C900   C902    1.466   .     S
C900   O944    1.278   .     A
C900   O946    1.281   .     A
C901   C910    1.475   .     S
C901   C913    1.402   .     A
C901   C917    1.419   .     A
C902   C959    1.343   .     S
C902   C970    1.516   .     S
C904   C907    1.452   .     S
C904   C569    1.332   1_565 S
C904   H593    1.088   1_565 S
C905   C906    1.436   .     S
C906   O941    1.281   .     A
C906   O947    1.281   .     A
C907   O948    1.269   .     A
C907   O942    1.268   .     A
C908   C913    1.387   .     A
C908   C411    1.391   1_556 S
C908   H419    1.083   1_556 S
C909   O937    1.277   .     A
C909   O939    1.267   .     A
C909   C912    1.451   .     S
C910   O938    1.284   .     A
C910   O940    1.284   .     A
C913   H934    1.083   .     S
C914   H926    1.111   .     S
C914   H925    1.109   .     S
C914   H927    1.111   .     S
C915   H935    1.076   .     S
C916   C917    1.424   .     A
C916   C411    1.417   1_556 S
C916   C414    1.426   1_556 S
C917   C921    1.410   .     A
C919   C920    1.391   .     A
C919   C407    1.400   1_556 S
C919   C414    1.424   1_556 S
C920   C921    1.382   .     A
C920   H931    1.084   .     S
C921   H924    1.080   .     S
H928   C959    1.086   .     S
H930   C569    1.086   1_565 S
H932   C407    1.084   1_556 S
O936   Zn951   1.923   .     S
O936   Zn949   1.963   .     S
O936   Zn950   1.952   .     S
O936   Zn952   1.933   .     S
O937   Zn950   1.929   .     S
O938   Zn952   1.945   .     S
O939   Zn951   1.943   .     S
O940   Zn949   1.930   .     S
O941   Zn949   1.928   .     S
O942   Zn952   1.925   .     S
O943   Zn950   1.926   .     S
O944   Zn951   1.941   .     S
O945   Zn952   1.936   .     S
O946   Zn949   1.921   .     S
O947   Zn950   1.933   .     S
O948   Zn951   1.930   .     S
C953   O999    1.273   .     A
C953   C959    1.441   .     S
C953   O1001   1.272   .     A
C954   C974    1.411   .     A
C954   C968    1.394   .     A
C954   H989    1.077   .     S
C955   C967    1.387   .     A
C955   C968    1.396   .     A
C955   H978    1.084   .     S
C956   C958    1.466   .     S
C956   O1000   1.278   .     A
C956   O1002   1.281   .     A
C957   C966    1.475   .     S
C957   C969    1.402   .     A
C957   C973    1.419   .     A
C958   C847    1.343   1_655 S
C958   C858    1.516   1_655 S
C960   C963    1.452   .     S
C960   C625    1.332   1_565 S
C960   H649    1.088   1_565 S
C961   C962    1.436   .     S
C962   O997    1.281   .     A
C962   O1003   1.281   .     A
C963   O1004   1.269   .     A
C963   O998    1.268   .     A
C964   C969    1.387   .     A
C964   C467    1.391   1_556 S
C964   H475    1.083   1_556 S
C965   O993    1.277   .     A
C965   O995    1.267   .     A
C965   C968    1.451   .     S
C966   O994    1.284   .     A
C966   O996    1.284   .     A
C969   H990    1.083   .     S
C970   H982    1.111   .     S
C970   H981    1.109   .     S
C970   H983    1.111   .     S
C971   H991    1.076   .     S
C972   C973    1.424   .     A
C972   C467    1.417   1_556 S
C972   C470    1.426   1_556 S
C973   C977    1.410   .     A
C975   C976    1.391   .     A
C975   C463    1.400   1_556 S
C975   C470    1.424   1_556 S
C976   C977    1.382   .     A
C976   H987    1.084   .     S
C977   H980    1.080   .     S
H984   C847    1.086   1_655 S
H986   C625    1.086   1_565 S
H988   C463    1.084   1_556 S
O992   Zn1007  1.923   .     S
O992   Zn1005  1.963   .     S
O992   Zn1006  1.952   .     S
O992   Zn1008  1.933   .     S
O993   Zn1006  1.929   .     S
O994   Zn1008  1.945   .     S
O995   Zn1007  1.943   .     S
O996   Zn1005  1.930   .     S
O997   Zn1005  1.928   .     S
O998   Zn1008  1.925   .     S
O999   Zn1006  1.926   .     S
O1000  Zn1007  1.941   .     S
O1001  Zn1008  1.936   .     S
O1002  Zn1005  1.921   .     S
O1003  Zn1006  1.933   .     S
O1004  Zn1007  1.930   .     S
