data_str_m1_o10_o16_pcu_sym.61
_audit_creation_date              2020-01-03
_audit_creation_method            'Materials Studio'
_symmetry_space_group_name_H-M    'P1'
_symmetry_Int_Tables_number       1
_symmetry_cell_setting            triclinic
loop_
_symmetry_equiv_pos_as_xyz
  x,y,z
_cell_length_a                    32.5900
_cell_length_b                    32.5081
_cell_length_c                    31.0592
_cell_angle_alpha                 95.9151
_cell_angle_beta                  74.2348
_cell_angle_gamma                 98.4929
loop_
_atom_site_label
_atom_site_type_symbol
_atom_site_fract_x
_atom_site_fract_y
_atom_site_fract_z
_atom_site_U_iso_or_equiv
_atom_site_adp_type
_atom_site_occupancy
C1     C     0.05268   0.15927   0.26082   0.00000  Uiso   1.00
C2     C     0.16894   0.15483   0.05821   0.00000  Uiso   1.00
C3     C     0.23848   0.13796   0.05814   0.00000  Uiso   1.00
C4     C     0.28106   0.17376   0.23947   0.00000  Uiso   1.00
C5     C     0.14334   0.19378   0.41984   0.00000  Uiso   1.00
C6     C     0.32751   0.17625   0.23335   0.00000  Uiso   1.00
C7     C     0.00785   0.15859   0.26340   0.00000  Uiso   1.00
C8     C     0.18072   0.32261   0.23609   0.00000  Uiso   1.00
C9     C     0.15234   0.01178   0.26399   0.00000  Uiso   1.00
C10    C     0.15639   0.05591   0.26011   0.00000  Uiso   1.00
C11    C     0.17672   0.27800   0.24004   0.00000  Uiso   1.00
C12    C     0.09508   0.21301   0.49095   0.00000  Uiso   1.00
C13    C     0.18554   0.14863   0.12929   0.00000  Uiso   1.00
C14    C     0.14992   0.18574   0.37076   0.00000  Uiso   1.00
C15    C     0.25459   0.14560   0.01297   0.00000  Uiso   1.00
C16    C     0.19613   0.14272   0.08070   0.00000  Uiso   1.00
C17    C     0.10587   0.21028   0.44447   0.00000  Uiso   1.00
C18    C     0.02350   0.19804   0.19410   0.00000  Uiso   1.00
C19    C     0.11988   0.19704   0.01372   0.00000  Uiso   1.00
C20    C     0.15795   0.17995   0.49022   0.00000  Uiso   1.00
C21    C     0.17164   0.18208   0.44302   0.00000  Uiso   1.00
C22    C     0.18378   0.16276   0.01243   0.00000  Uiso   1.00
C23    C     0.22585   0.15345   0.48835   0.00000  Uiso   1.00
C24    C     0.23768   0.15386   0.44113   0.00000  Uiso   1.00
C25    C     0.21276   0.17174   0.42018   0.00000  Uiso   1.00
H26    H     0.26023   0.13264   0.07734   0.00000  Uiso   1.00
H27    H     0.27524   0.08411   0.34318   0.00000  Uiso   1.00
H28    H     0.00708   0.15473   0.04928   0.00000  Uiso   1.00
H29    H     0.01008   0.20915   0.16973   0.00000  Uiso   1.00
H30    H     0.31869   0.14401   0.29193   0.00000  Uiso   1.00
H31    H     0.20693   0.00392   0.21033   0.00000  Uiso   1.00
H32    H     0.12588   0.33123   0.28997   0.00000  Uiso   1.00
H33    H     0.13687   0.15924   0.07776   0.00000  Uiso   1.00
H34    H     0.08432   0.22047   0.42779   0.00000  Uiso   1.00
H35    H     0.10934   0.20014   0.04980   0.00000  Uiso   1.00
H36    H     0.06670   0.22684   0.00951   0.00000  Uiso   1.00
H37    H     0.22653   0.17676   0.38518   0.00000  Uiso   1.00
O38    O     0.16667   0.16667   0.25000   0.00000  Uiso   1.00
O39    O     0.15451   0.12637   0.15459   0.00000  Uiso   1.00
O40    O     0.12940   0.20391   0.34968   0.00000  Uiso   1.00
O41    O     0.20824   0.17759   0.14606   0.00000  Uiso   1.00
O42    O     0.17451   0.15880   0.34968   0.00000  Uiso   1.00
O43    O     0.31744   0.14496   0.38903   0.00000  Uiso   1.00
O44    O     0.27662   0.08439   0.42977   0.00000  Uiso   1.00
O45    O     0.25483   0.10319   0.36082   0.00000  Uiso   1.00
O46    O     0.00061   0.12392   0.47321   0.00000  Uiso   1.00
O47    O     0.32140   0.19474   0.46394   0.00000  Uiso   1.00
O48    O     0.32905   0.17847   0.04079   0.00000  Uiso   1.00
O49    O     0.17930   0.08019   0.28214   0.00000  Uiso   1.00
O50    O     0.06242   0.20419   0.18838   0.00000  Uiso   1.00
O51    O     0.14632   0.26085   0.27014   0.00000  Uiso   1.00
O52    O     0.07412   0.13291   0.23413   0.00000  Uiso   1.00
O53    O     0.26693   0.19272   0.21361   0.00000  Uiso   1.00
O54    O     0.07071   0.18878   0.28213   0.00000  Uiso   1.00
O55    O     0.25491   0.15226   0.27014   0.00000  Uiso   1.00
O56    O     0.13760   0.06944   0.23413   0.00000  Uiso   1.00
O57    O     0.20345   0.25620   0.21361   0.00000  Uiso   1.00
S58    S     0.27367   0.12108   0.40550   0.00000  Uiso   1.00
S59    S     0.31104   0.16043   0.49558   0.00000  Uiso   1.00
Zn60   Zn    0.19338   0.13994   0.28734   0.00000  Uiso   1.00
Zn61   Zn    0.13379   0.12458   0.21876   0.00000  Uiso   1.00
Zn62   Zn    0.21056   0.19775   0.20657   0.00000  Uiso   1.00
Zn63   Zn    0.12893   0.20439   0.28734   0.00000  Uiso   1.00
C64    C     0.38601   0.15927   0.26082   0.00000  Uiso   1.00
C65    C     0.50228   0.15483   0.05821   0.00000  Uiso   1.00
C66    C     0.57182   0.13796   0.05814   0.00000  Uiso   1.00
C67    C     0.61439   0.17376   0.23947   0.00000  Uiso   1.00
C68    C     0.47667   0.19378   0.41984   0.00000  Uiso   1.00
C69    C     0.66084   0.17625   0.23335   0.00000  Uiso   1.00
C70    C     0.34118   0.15859   0.26340   0.00000  Uiso   1.00
C71    C     0.51405   0.32261   0.23609   0.00000  Uiso   1.00
C72    C     0.48567   0.01178   0.26399   0.00000  Uiso   1.00
C73    C     0.48973   0.05591   0.26011   0.00000  Uiso   1.00
C74    C     0.51005   0.27800   0.24004   0.00000  Uiso   1.00
C75    C     0.42842   0.21301   0.49095   0.00000  Uiso   1.00
C76    C     0.51887   0.14863   0.12929   0.00000  Uiso   1.00
C77    C     0.48325   0.18574   0.37076   0.00000  Uiso   1.00
C78    C     0.58792   0.14560   0.01297   0.00000  Uiso   1.00
C79    C     0.52946   0.14272   0.08070   0.00000  Uiso   1.00
C80    C     0.43921   0.21028   0.44447   0.00000  Uiso   1.00
C81    C     0.35683   0.19804   0.19410   0.00000  Uiso   1.00
C82    C     0.45322   0.19704   0.01372   0.00000  Uiso   1.00
C83    C     0.49128   0.17995   0.49022   0.00000  Uiso   1.00
C84    C     0.50497   0.18208   0.44302   0.00000  Uiso   1.00
C85    C     0.51711   0.16276   0.01243   0.00000  Uiso   1.00
C86    C     0.55918   0.15345   0.48835   0.00000  Uiso   1.00
C87    C     0.57102   0.15386   0.44113   0.00000  Uiso   1.00
C88    C     0.54610   0.17174   0.42018   0.00000  Uiso   1.00
H89    H     0.59357   0.13264   0.07734   0.00000  Uiso   1.00
H90    H     0.60857   0.08411   0.34318   0.00000  Uiso   1.00
H91    H     0.34041   0.15473   0.04928   0.00000  Uiso   1.00
H92    H     0.34341   0.20915   0.16973   0.00000  Uiso   1.00
H93    H     0.65202   0.14401   0.29193   0.00000  Uiso   1.00
H94    H     0.54027   0.00392   0.21033   0.00000  Uiso   1.00
H95    H     0.45921   0.33123   0.28997   0.00000  Uiso   1.00
H96    H     0.47020   0.15924   0.07776   0.00000  Uiso   1.00
H97    H     0.41766   0.22047   0.42779   0.00000  Uiso   1.00
H98    H     0.44268   0.20014   0.04980   0.00000  Uiso   1.00
H99    H     0.40003   0.22684   0.00951   0.00000  Uiso   1.00
H100   H     0.55986   0.17676   0.38518   0.00000  Uiso   1.00
O101   O     0.50000   0.16667   0.25000   0.00000  Uiso   1.00
O102   O     0.48784   0.12637   0.15459   0.00000  Uiso   1.00
O103   O     0.46274   0.20391   0.34968   0.00000  Uiso   1.00
O104   O     0.54157   0.17759   0.14606   0.00000  Uiso   1.00
O105   O     0.50785   0.15880   0.34968   0.00000  Uiso   1.00
O106   O     0.65077   0.14496   0.38903   0.00000  Uiso   1.00
O107   O     0.60996   0.08439   0.42977   0.00000  Uiso   1.00
O108   O     0.58816   0.10319   0.36082   0.00000  Uiso   1.00
O109   O     0.33395   0.12392   0.47321   0.00000  Uiso   1.00
O110   O     0.65473   0.19474   0.46394   0.00000  Uiso   1.00
O111   O     0.66238   0.17847   0.04079   0.00000  Uiso   1.00
O112   O     0.51264   0.08019   0.28214   0.00000  Uiso   1.00
O113   O     0.39575   0.20419   0.18838   0.00000  Uiso   1.00
O114   O     0.47965   0.26085   0.27014   0.00000  Uiso   1.00
O115   O     0.40745   0.13291   0.23413   0.00000  Uiso   1.00
O116   O     0.60026   0.19272   0.21361   0.00000  Uiso   1.00
O117   O     0.40405   0.18878   0.28213   0.00000  Uiso   1.00
O118   O     0.58824   0.15226   0.27014   0.00000  Uiso   1.00
O119   O     0.47093   0.06944   0.23413   0.00000  Uiso   1.00
O120   O     0.53678   0.25620   0.21361   0.00000  Uiso   1.00
S121   S     0.60700   0.12108   0.40550   0.00000  Uiso   1.00
S122   S     0.64437   0.16043   0.49558   0.00000  Uiso   1.00
Zn123  Zn    0.52672   0.13994   0.28734   0.00000  Uiso   1.00
Zn124  Zn    0.46713   0.12458   0.21876   0.00000  Uiso   1.00
Zn125  Zn    0.54389   0.19775   0.20657   0.00000  Uiso   1.00
Zn126  Zn    0.46226   0.20439   0.28734   0.00000  Uiso   1.00
C127   C     0.71935   0.15927   0.26082   0.00000  Uiso   1.00
C128   C     0.83561   0.15483   0.05821   0.00000  Uiso   1.00
C129   C     0.90515   0.13796   0.05814   0.00000  Uiso   1.00
C130   C     0.94772   0.17376   0.23947   0.00000  Uiso   1.00
C131   C     0.81000   0.19378   0.41984   0.00000  Uiso   1.00
C132   C     0.99418   0.17625   0.23335   0.00000  Uiso   1.00
C133   C     0.67452   0.15859   0.26340   0.00000  Uiso   1.00
C134   C     0.84739   0.32261   0.23609   0.00000  Uiso   1.00
C135   C     0.81901   0.01178   0.26399   0.00000  Uiso   1.00
C136   C     0.82306   0.05591   0.26011   0.00000  Uiso   1.00
C137   C     0.84338   0.27800   0.24004   0.00000  Uiso   1.00
C138   C     0.76175   0.21301   0.49095   0.00000  Uiso   1.00
C139   C     0.85220   0.14863   0.12929   0.00000  Uiso   1.00
C140   C     0.81659   0.18574   0.37076   0.00000  Uiso   1.00
C141   C     0.92125   0.14560   0.01297   0.00000  Uiso   1.00
C142   C     0.86279   0.14272   0.08070   0.00000  Uiso   1.00
C143   C     0.77254   0.21028   0.44447   0.00000  Uiso   1.00
C144   C     0.69017   0.19804   0.19410   0.00000  Uiso   1.00
C145   C     0.78655   0.19704   0.01372   0.00000  Uiso   1.00
C146   C     0.82461   0.17995   0.49022   0.00000  Uiso   1.00
C147   C     0.83830   0.18208   0.44302   0.00000  Uiso   1.00
C148   C     0.85044   0.16276   0.01243   0.00000  Uiso   1.00
C149   C     0.89252   0.15345   0.48835   0.00000  Uiso   1.00
C150   C     0.90435   0.15386   0.44113   0.00000  Uiso   1.00
C151   C     0.87943   0.17174   0.42018   0.00000  Uiso   1.00
H152   H     0.92690   0.13264   0.07734   0.00000  Uiso   1.00
H153   H     0.94190   0.08411   0.34318   0.00000  Uiso   1.00
H154   H     0.67374   0.15473   0.04928   0.00000  Uiso   1.00
H155   H     0.67674   0.20915   0.16973   0.00000  Uiso   1.00
H156   H     0.98536   0.14401   0.29193   0.00000  Uiso   1.00
H157   H     0.87360   0.00392   0.21033   0.00000  Uiso   1.00
H158   H     0.79255   0.33123   0.28997   0.00000  Uiso   1.00
H159   H     0.80353   0.15924   0.07776   0.00000  Uiso   1.00
H160   H     0.75099   0.22047   0.42779   0.00000  Uiso   1.00
H161   H     0.77601   0.20014   0.04980   0.00000  Uiso   1.00
H162   H     0.73337   0.22684   0.00951   0.00000  Uiso   1.00
H163   H     0.89319   0.17676   0.38518   0.00000  Uiso   1.00
O164   O     0.83333   0.16667   0.25000   0.00000  Uiso   1.00
O165   O     0.82118   0.12637   0.15459   0.00000  Uiso   1.00
O166   O     0.79607   0.20391   0.34968   0.00000  Uiso   1.00
O167   O     0.87491   0.17759   0.14606   0.00000  Uiso   1.00
O168   O     0.84118   0.15880   0.34968   0.00000  Uiso   1.00
O169   O     0.98410   0.14496   0.38903   0.00000  Uiso   1.00
O170   O     0.94329   0.08439   0.42977   0.00000  Uiso   1.00
O171   O     0.92149   0.10319   0.36082   0.00000  Uiso   1.00
O172   O     0.66728   0.12392   0.47321   0.00000  Uiso   1.00
O173   O     0.98807   0.19474   0.46394   0.00000  Uiso   1.00
O174   O     0.99572   0.17847   0.04079   0.00000  Uiso   1.00
O175   O     0.84597   0.08019   0.28214   0.00000  Uiso   1.00
O176   O     0.72909   0.20419   0.18838   0.00000  Uiso   1.00
O177   O     0.81298   0.26085   0.27014   0.00000  Uiso   1.00
O178   O     0.74078   0.13291   0.23413   0.00000  Uiso   1.00
O179   O     0.93360   0.19272   0.21361   0.00000  Uiso   1.00
O180   O     0.73738   0.18878   0.28213   0.00000  Uiso   1.00
O181   O     0.92158   0.15226   0.27014   0.00000  Uiso   1.00
O182   O     0.80426   0.06944   0.23413   0.00000  Uiso   1.00
O183   O     0.87012   0.25620   0.21361   0.00000  Uiso   1.00
S184   S     0.94034   0.12108   0.40550   0.00000  Uiso   1.00
S185   S     0.97771   0.16043   0.49558   0.00000  Uiso   1.00
Zn186  Zn    0.86005   0.13994   0.28734   0.00000  Uiso   1.00
Zn187  Zn    0.80046   0.12458   0.21876   0.00000  Uiso   1.00
Zn188  Zn    0.87723   0.19775   0.20657   0.00000  Uiso   1.00
Zn189  Zn    0.79560   0.20439   0.28734   0.00000  Uiso   1.00
C190   C     0.05268   0.49260   0.26082   0.00000  Uiso   1.00
C191   C     0.16894   0.48816   0.05821   0.00000  Uiso   1.00
C192   C     0.23848   0.47129   0.05814   0.00000  Uiso   1.00
C193   C     0.28106   0.50709   0.23947   0.00000  Uiso   1.00
C194   C     0.14334   0.52711   0.41984   0.00000  Uiso   1.00
C195   C     0.32751   0.50958   0.23335   0.00000  Uiso   1.00
C196   C     0.00785   0.49192   0.26340   0.00000  Uiso   1.00
C197   C     0.18072   0.65595   0.23609   0.00000  Uiso   1.00
C198   C     0.15234   0.34511   0.26399   0.00000  Uiso   1.00
C199   C     0.15639   0.38924   0.26011   0.00000  Uiso   1.00
C200   C     0.17672   0.61133   0.24004   0.00000  Uiso   1.00
C201   C     0.09508   0.54634   0.49095   0.00000  Uiso   1.00
C202   C     0.18554   0.48196   0.12929   0.00000  Uiso   1.00
C203   C     0.14992   0.51907   0.37076   0.00000  Uiso   1.00
C204   C     0.25459   0.47893   0.01297   0.00000  Uiso   1.00
C205   C     0.19613   0.47605   0.08070   0.00000  Uiso   1.00
C206   C     0.10587   0.54361   0.44447   0.00000  Uiso   1.00
C207   C     0.02350   0.53137   0.19410   0.00000  Uiso   1.00
C208   C     0.11988   0.53037   0.01372   0.00000  Uiso   1.00
C209   C     0.15795   0.51329   0.49022   0.00000  Uiso   1.00
C210   C     0.17164   0.51541   0.44302   0.00000  Uiso   1.00
C211   C     0.18378   0.49609   0.01243   0.00000  Uiso   1.00
C212   C     0.22585   0.48678   0.48835   0.00000  Uiso   1.00
C213   C     0.23768   0.48719   0.44113   0.00000  Uiso   1.00
C214   C     0.21276   0.50507   0.42018   0.00000  Uiso   1.00
H215   H     0.26023   0.46597   0.07734   0.00000  Uiso   1.00
H216   H     0.27524   0.41744   0.34318   0.00000  Uiso   1.00
H217   H     0.00708   0.48806   0.04928   0.00000  Uiso   1.00
H218   H     0.01008   0.54248   0.16973   0.00000  Uiso   1.00
H219   H     0.31869   0.47735   0.29193   0.00000  Uiso   1.00
H220   H     0.20693   0.33725   0.21033   0.00000  Uiso   1.00
H221   H     0.12588   0.66456   0.28997   0.00000  Uiso   1.00
H222   H     0.13687   0.49258   0.07776   0.00000  Uiso   1.00
H223   H     0.08432   0.55380   0.42779   0.00000  Uiso   1.00
H224   H     0.10934   0.53347   0.04980   0.00000  Uiso   1.00
H225   H     0.06670   0.56017   0.00951   0.00000  Uiso   1.00
H226   H     0.22653   0.51009   0.38518   0.00000  Uiso   1.00
O227   O     0.16667   0.50000   0.25000   0.00000  Uiso   1.00
O228   O     0.15451   0.45970   0.15459   0.00000  Uiso   1.00
O229   O     0.12940   0.53724   0.34968   0.00000  Uiso   1.00
O230   O     0.20824   0.51092   0.14606   0.00000  Uiso   1.00
O231   O     0.17451   0.49213   0.34968   0.00000  Uiso   1.00
O232   O     0.31744   0.47829   0.38903   0.00000  Uiso   1.00
O233   O     0.27662   0.41773   0.42977   0.00000  Uiso   1.00
O234   O     0.25483   0.43652   0.36082   0.00000  Uiso   1.00
O235   O     0.00061   0.45725   0.47321   0.00000  Uiso   1.00
O236   O     0.32140   0.52807   0.46394   0.00000  Uiso   1.00
O237   O     0.32905   0.51180   0.04079   0.00000  Uiso   1.00
O238   O     0.17930   0.41352   0.28214   0.00000  Uiso   1.00
O239   O     0.06242   0.53753   0.18838   0.00000  Uiso   1.00
O240   O     0.14632   0.59418   0.27014   0.00000  Uiso   1.00
O241   O     0.07412   0.46625   0.23413   0.00000  Uiso   1.00
O242   O     0.26693   0.52605   0.21361   0.00000  Uiso   1.00
O243   O     0.07071   0.52211   0.28213   0.00000  Uiso   1.00
O244   O     0.25491   0.48559   0.27014   0.00000  Uiso   1.00
O245   O     0.13760   0.40277   0.23413   0.00000  Uiso   1.00
O246   O     0.20345   0.58953   0.21361   0.00000  Uiso   1.00
S247   S     0.27367   0.45442   0.40550   0.00000  Uiso   1.00
S248   S     0.31104   0.49377   0.49558   0.00000  Uiso   1.00
Zn249  Zn    0.19338   0.47327   0.28734   0.00000  Uiso   1.00
Zn250  Zn    0.13379   0.45791   0.21876   0.00000  Uiso   1.00
Zn251  Zn    0.21056   0.53109   0.20657   0.00000  Uiso   1.00
Zn252  Zn    0.12893   0.53773   0.28734   0.00000  Uiso   1.00
C253   C     0.38601   0.49260   0.26082   0.00000  Uiso   1.00
C254   C     0.50228   0.48816   0.05821   0.00000  Uiso   1.00
C255   C     0.57182   0.47129   0.05814   0.00000  Uiso   1.00
C256   C     0.61439   0.50709   0.23947   0.00000  Uiso   1.00
C257   C     0.47667   0.52711   0.41984   0.00000  Uiso   1.00
C258   C     0.66084   0.50958   0.23335   0.00000  Uiso   1.00
C259   C     0.34118   0.49192   0.26340   0.00000  Uiso   1.00
C260   C     0.51405   0.65595   0.23609   0.00000  Uiso   1.00
C261   C     0.48567   0.34511   0.26399   0.00000  Uiso   1.00
C262   C     0.48973   0.38924   0.26011   0.00000  Uiso   1.00
C263   C     0.51005   0.61133   0.24004   0.00000  Uiso   1.00
C264   C     0.42842   0.54634   0.49095   0.00000  Uiso   1.00
C265   C     0.51887   0.48196   0.12929   0.00000  Uiso   1.00
C266   C     0.48325   0.51907   0.37076   0.00000  Uiso   1.00
C267   C     0.58792   0.47893   0.01297   0.00000  Uiso   1.00
C268   C     0.52946   0.47605   0.08070   0.00000  Uiso   1.00
C269   C     0.43921   0.54361   0.44447   0.00000  Uiso   1.00
C270   C     0.35683   0.53137   0.19410   0.00000  Uiso   1.00
C271   C     0.45322   0.53037   0.01372   0.00000  Uiso   1.00
C272   C     0.49128   0.51329   0.49022   0.00000  Uiso   1.00
C273   C     0.50497   0.51541   0.44302   0.00000  Uiso   1.00
C274   C     0.51711   0.49609   0.01243   0.00000  Uiso   1.00
C275   C     0.55918   0.48678   0.48835   0.00000  Uiso   1.00
C276   C     0.57102   0.48719   0.44113   0.00000  Uiso   1.00
C277   C     0.54610   0.50507   0.42018   0.00000  Uiso   1.00
H278   H     0.59357   0.46597   0.07734   0.00000  Uiso   1.00
H279   H     0.60857   0.41744   0.34318   0.00000  Uiso   1.00
H280   H     0.34041   0.48806   0.04928   0.00000  Uiso   1.00
H281   H     0.34341   0.54248   0.16973   0.00000  Uiso   1.00
H282   H     0.65202   0.47735   0.29193   0.00000  Uiso   1.00
H283   H     0.54027   0.33725   0.21033   0.00000  Uiso   1.00
H284   H     0.45921   0.66456   0.28997   0.00000  Uiso   1.00
H285   H     0.47020   0.49258   0.07776   0.00000  Uiso   1.00
H286   H     0.41766   0.55380   0.42779   0.00000  Uiso   1.00
H287   H     0.44268   0.53347   0.04980   0.00000  Uiso   1.00
H288   H     0.40003   0.56017   0.00951   0.00000  Uiso   1.00
H289   H     0.55986   0.51009   0.38518   0.00000  Uiso   1.00
O290   O     0.50000   0.50000   0.25000   0.00000  Uiso   1.00
O291   O     0.48784   0.45970   0.15459   0.00000  Uiso   1.00
O292   O     0.46274   0.53724   0.34968   0.00000  Uiso   1.00
O293   O     0.54157   0.51092   0.14606   0.00000  Uiso   1.00
O294   O     0.50785   0.49213   0.34968   0.00000  Uiso   1.00
O295   O     0.65077   0.47829   0.38903   0.00000  Uiso   1.00
O296   O     0.60996   0.41773   0.42977   0.00000  Uiso   1.00
O297   O     0.58816   0.43652   0.36082   0.00000  Uiso   1.00
O298   O     0.33395   0.45725   0.47321   0.00000  Uiso   1.00
O299   O     0.65473   0.52807   0.46394   0.00000  Uiso   1.00
O300   O     0.66238   0.51180   0.04079   0.00000  Uiso   1.00
O301   O     0.51264   0.41352   0.28214   0.00000  Uiso   1.00
O302   O     0.39575   0.53753   0.18838   0.00000  Uiso   1.00
O303   O     0.47965   0.59418   0.27014   0.00000  Uiso   1.00
O304   O     0.40745   0.46625   0.23413   0.00000  Uiso   1.00
O305   O     0.60026   0.52605   0.21361   0.00000  Uiso   1.00
O306   O     0.40405   0.52211   0.28213   0.00000  Uiso   1.00
O307   O     0.58824   0.48559   0.27014   0.00000  Uiso   1.00
O308   O     0.47093   0.40277   0.23413   0.00000  Uiso   1.00
O309   O     0.53678   0.58953   0.21361   0.00000  Uiso   1.00
S310   S     0.60700   0.45442   0.40550   0.00000  Uiso   1.00
S311   S     0.64437   0.49377   0.49558   0.00000  Uiso   1.00
Zn312  Zn    0.52672   0.47327   0.28734   0.00000  Uiso   1.00
Zn313  Zn    0.46713   0.45791   0.21876   0.00000  Uiso   1.00
Zn314  Zn    0.54389   0.53109   0.20657   0.00000  Uiso   1.00
Zn315  Zn    0.46226   0.53773   0.28734   0.00000  Uiso   1.00
C316   C     0.71935   0.49260   0.26082   0.00000  Uiso   1.00
C317   C     0.83561   0.48816   0.05821   0.00000  Uiso   1.00
C318   C     0.90515   0.47129   0.05814   0.00000  Uiso   1.00
C319   C     0.94772   0.50709   0.23947   0.00000  Uiso   1.00
C320   C     0.81000   0.52711   0.41984   0.00000  Uiso   1.00
C321   C     0.99418   0.50958   0.23335   0.00000  Uiso   1.00
C322   C     0.67452   0.49192   0.26340   0.00000  Uiso   1.00
C323   C     0.84739   0.65595   0.23609   0.00000  Uiso   1.00
C324   C     0.81901   0.34511   0.26399   0.00000  Uiso   1.00
C325   C     0.82306   0.38924   0.26011   0.00000  Uiso   1.00
C326   C     0.84338   0.61133   0.24004   0.00000  Uiso   1.00
C327   C     0.76175   0.54634   0.49095   0.00000  Uiso   1.00
C328   C     0.85220   0.48196   0.12929   0.00000  Uiso   1.00
C329   C     0.81659   0.51907   0.37076   0.00000  Uiso   1.00
C330   C     0.92125   0.47893   0.01297   0.00000  Uiso   1.00
C331   C     0.86279   0.47605   0.08070   0.00000  Uiso   1.00
C332   C     0.77254   0.54361   0.44447   0.00000  Uiso   1.00
C333   C     0.69017   0.53137   0.19410   0.00000  Uiso   1.00
C334   C     0.78655   0.53037   0.01372   0.00000  Uiso   1.00
C335   C     0.82461   0.51329   0.49022   0.00000  Uiso   1.00
C336   C     0.83830   0.51541   0.44302   0.00000  Uiso   1.00
C337   C     0.85044   0.49609   0.01243   0.00000  Uiso   1.00
C338   C     0.89252   0.48678   0.48835   0.00000  Uiso   1.00
C339   C     0.90435   0.48719   0.44113   0.00000  Uiso   1.00
C340   C     0.87943   0.50507   0.42018   0.00000  Uiso   1.00
H341   H     0.92690   0.46597   0.07734   0.00000  Uiso   1.00
H342   H     0.94190   0.41744   0.34318   0.00000  Uiso   1.00
H343   H     0.67374   0.48806   0.04928   0.00000  Uiso   1.00
H344   H     0.67674   0.54248   0.16973   0.00000  Uiso   1.00
H345   H     0.98536   0.47735   0.29193   0.00000  Uiso   1.00
H346   H     0.87360   0.33725   0.21033   0.00000  Uiso   1.00
H347   H     0.79255   0.66456   0.28997   0.00000  Uiso   1.00
H348   H     0.80353   0.49258   0.07776   0.00000  Uiso   1.00
H349   H     0.75099   0.55380   0.42779   0.00000  Uiso   1.00
H350   H     0.77601   0.53347   0.04980   0.00000  Uiso   1.00
H351   H     0.73337   0.56017   0.00951   0.00000  Uiso   1.00
H352   H     0.89319   0.51009   0.38518   0.00000  Uiso   1.00
O353   O     0.83333   0.50000   0.25000   0.00000  Uiso   1.00
O354   O     0.82118   0.45970   0.15459   0.00000  Uiso   1.00
O355   O     0.79607   0.53724   0.34968   0.00000  Uiso   1.00
O356   O     0.87491   0.51092   0.14606   0.00000  Uiso   1.00
O357   O     0.84118   0.49213   0.34968   0.00000  Uiso   1.00
O358   O     0.98410   0.47829   0.38903   0.00000  Uiso   1.00
O359   O     0.94329   0.41773   0.42977   0.00000  Uiso   1.00
O360   O     0.92149   0.43652   0.36082   0.00000  Uiso   1.00
O361   O     0.66728   0.45725   0.47321   0.00000  Uiso   1.00
O362   O     0.98807   0.52807   0.46394   0.00000  Uiso   1.00
O363   O     0.99572   0.51180   0.04079   0.00000  Uiso   1.00
O364   O     0.84597   0.41352   0.28214   0.00000  Uiso   1.00
O365   O     0.72909   0.53753   0.18838   0.00000  Uiso   1.00
O366   O     0.81298   0.59418   0.27014   0.00000  Uiso   1.00
O367   O     0.74078   0.46625   0.23413   0.00000  Uiso   1.00
O368   O     0.93360   0.52605   0.21361   0.00000  Uiso   1.00
O369   O     0.73738   0.52211   0.28213   0.00000  Uiso   1.00
O370   O     0.92158   0.48559   0.27014   0.00000  Uiso   1.00
O371   O     0.80426   0.40277   0.23413   0.00000  Uiso   1.00
O372   O     0.87012   0.58953   0.21361   0.00000  Uiso   1.00
S373   S     0.94034   0.45442   0.40550   0.00000  Uiso   1.00
S374   S     0.97771   0.49377   0.49558   0.00000  Uiso   1.00
Zn375  Zn    0.86005   0.47327   0.28734   0.00000  Uiso   1.00
Zn376  Zn    0.80046   0.45791   0.21876   0.00000  Uiso   1.00
Zn377  Zn    0.87723   0.53109   0.20657   0.00000  Uiso   1.00
Zn378  Zn    0.79560   0.53773   0.28734   0.00000  Uiso   1.00
C379   C     0.05268   0.82594   0.26082   0.00000  Uiso   1.00
C380   C     0.16894   0.82149   0.05821   0.00000  Uiso   1.00
C381   C     0.23848   0.80462   0.05814   0.00000  Uiso   1.00
C382   C     0.28106   0.84042   0.23947   0.00000  Uiso   1.00
C383   C     0.14334   0.86044   0.41984   0.00000  Uiso   1.00
C384   C     0.32751   0.84292   0.23335   0.00000  Uiso   1.00
C385   C     0.00785   0.82525   0.26340   0.00000  Uiso   1.00
C386   C     0.18072   0.98928   0.23609   0.00000  Uiso   1.00
C387   C     0.15234   0.67844   0.26399   0.00000  Uiso   1.00
C388   C     0.15639   0.72257   0.26011   0.00000  Uiso   1.00
C389   C     0.17672   0.94466   0.24004   0.00000  Uiso   1.00
C390   C     0.09508   0.87968   0.49095   0.00000  Uiso   1.00
C391   C     0.18554   0.81530   0.12929   0.00000  Uiso   1.00
C392   C     0.14992   0.85241   0.37076   0.00000  Uiso   1.00
C393   C     0.25459   0.81226   0.01297   0.00000  Uiso   1.00
C394   C     0.19613   0.80938   0.08070   0.00000  Uiso   1.00
C395   C     0.10587   0.87695   0.44447   0.00000  Uiso   1.00
C396   C     0.02350   0.86471   0.19410   0.00000  Uiso   1.00
C397   C     0.11988   0.86370   0.01372   0.00000  Uiso   1.00
C398   C     0.15795   0.84662   0.49022   0.00000  Uiso   1.00
C399   C     0.17164   0.84874   0.44302   0.00000  Uiso   1.00
C400   C     0.18378   0.82942   0.01243   0.00000  Uiso   1.00
C401   C     0.22585   0.82011   0.48835   0.00000  Uiso   1.00
C402   C     0.23768   0.82053   0.44113   0.00000  Uiso   1.00
C403   C     0.21276   0.83840   0.42018   0.00000  Uiso   1.00
H404   H     0.26023   0.79931   0.07734   0.00000  Uiso   1.00
H405   H     0.27524   0.75078   0.34318   0.00000  Uiso   1.00
H406   H     0.00708   0.82140   0.04928   0.00000  Uiso   1.00
H407   H     0.01008   0.87581   0.16973   0.00000  Uiso   1.00
H408   H     0.31869   0.81068   0.29193   0.00000  Uiso   1.00
H409   H     0.20693   0.67058   0.21033   0.00000  Uiso   1.00
H410   H     0.12588   0.99790   0.28997   0.00000  Uiso   1.00
H411   H     0.13687   0.82591   0.07776   0.00000  Uiso   1.00
H412   H     0.08432   0.88714   0.42779   0.00000  Uiso   1.00
H413   H     0.10934   0.86680   0.04980   0.00000  Uiso   1.00
H414   H     0.06670   0.89350   0.00951   0.00000  Uiso   1.00
H415   H     0.22653   0.84343   0.38518   0.00000  Uiso   1.00
O416   O     0.16667   0.83333   0.25000   0.00000  Uiso   1.00
O417   O     0.15451   0.79304   0.15459   0.00000  Uiso   1.00
O418   O     0.12940   0.87058   0.34968   0.00000  Uiso   1.00
O419   O     0.20824   0.84425   0.14606   0.00000  Uiso   1.00
O420   O     0.17451   0.82546   0.34968   0.00000  Uiso   1.00
O421   O     0.31744   0.81163   0.38903   0.00000  Uiso   1.00
O422   O     0.27662   0.75106   0.42977   0.00000  Uiso   1.00
O423   O     0.25483   0.76986   0.36082   0.00000  Uiso   1.00
O424   O     0.00061   0.79059   0.47321   0.00000  Uiso   1.00
O425   O     0.32140   0.86140   0.46394   0.00000  Uiso   1.00
O426   O     0.32905   0.84513   0.04079   0.00000  Uiso   1.00
O427   O     0.17930   0.74686   0.28214   0.00000  Uiso   1.00
O428   O     0.06242   0.87086   0.18838   0.00000  Uiso   1.00
O429   O     0.14632   0.92751   0.27014   0.00000  Uiso   1.00
O430   O     0.07412   0.79958   0.23413   0.00000  Uiso   1.00
O431   O     0.26693   0.85939   0.21361   0.00000  Uiso   1.00
O432   O     0.07071   0.85544   0.28213   0.00000  Uiso   1.00
O433   O     0.25491   0.81892   0.27014   0.00000  Uiso   1.00
O434   O     0.13760   0.73610   0.23413   0.00000  Uiso   1.00
O435   O     0.20345   0.92286   0.21361   0.00000  Uiso   1.00
S436   S     0.27367   0.78775   0.40550   0.00000  Uiso   1.00
S437   S     0.31104   0.82710   0.49558   0.00000  Uiso   1.00
Zn438  Zn    0.19338   0.80661   0.28734   0.00000  Uiso   1.00
Zn439  Zn    0.13379   0.79124   0.21876   0.00000  Uiso   1.00
Zn440  Zn    0.21056   0.86442   0.20657   0.00000  Uiso   1.00
Zn441  Zn    0.12893   0.87106   0.28734   0.00000  Uiso   1.00
C442   C     0.38601   0.82594   0.26082   0.00000  Uiso   1.00
C443   C     0.50228   0.82149   0.05821   0.00000  Uiso   1.00
C444   C     0.57182   0.80462   0.05814   0.00000  Uiso   1.00
C445   C     0.61439   0.84042   0.23947   0.00000  Uiso   1.00
C446   C     0.47667   0.86044   0.41984   0.00000  Uiso   1.00
C447   C     0.66084   0.84292   0.23335   0.00000  Uiso   1.00
C448   C     0.34118   0.82525   0.26340   0.00000  Uiso   1.00
C449   C     0.51405   0.98928   0.23609   0.00000  Uiso   1.00
C450   C     0.48567   0.67844   0.26399   0.00000  Uiso   1.00
C451   C     0.48973   0.72257   0.26011   0.00000  Uiso   1.00
C452   C     0.51005   0.94466   0.24004   0.00000  Uiso   1.00
C453   C     0.42842   0.87968   0.49095   0.00000  Uiso   1.00
C454   C     0.51887   0.81530   0.12929   0.00000  Uiso   1.00
C455   C     0.48325   0.85241   0.37076   0.00000  Uiso   1.00
C456   C     0.58792   0.81226   0.01297   0.00000  Uiso   1.00
C457   C     0.52946   0.80938   0.08070   0.00000  Uiso   1.00
C458   C     0.43921   0.87695   0.44447   0.00000  Uiso   1.00
C459   C     0.35683   0.86471   0.19410   0.00000  Uiso   1.00
C460   C     0.45322   0.86370   0.01372   0.00000  Uiso   1.00
C461   C     0.49128   0.84662   0.49022   0.00000  Uiso   1.00
C462   C     0.50497   0.84874   0.44302   0.00000  Uiso   1.00
C463   C     0.51711   0.82942   0.01243   0.00000  Uiso   1.00
C464   C     0.55918   0.82011   0.48835   0.00000  Uiso   1.00
C465   C     0.57102   0.82053   0.44113   0.00000  Uiso   1.00
C466   C     0.54610   0.83840   0.42018   0.00000  Uiso   1.00
H467   H     0.59357   0.79931   0.07734   0.00000  Uiso   1.00
H468   H     0.60857   0.75078   0.34318   0.00000  Uiso   1.00
H469   H     0.34041   0.82140   0.04928   0.00000  Uiso   1.00
H470   H     0.34341   0.87581   0.16973   0.00000  Uiso   1.00
H471   H     0.65202   0.81068   0.29193   0.00000  Uiso   1.00
H472   H     0.54027   0.67058   0.21033   0.00000  Uiso   1.00
H473   H     0.45921   0.99790   0.28997   0.00000  Uiso   1.00
H474   H     0.47020   0.82591   0.07776   0.00000  Uiso   1.00
H475   H     0.41766   0.88714   0.42779   0.00000  Uiso   1.00
H476   H     0.44268   0.86680   0.04980   0.00000  Uiso   1.00
H477   H     0.40003   0.89350   0.00951   0.00000  Uiso   1.00
H478   H     0.55986   0.84343   0.38518   0.00000  Uiso   1.00
O479   O     0.50000   0.83333   0.25000   0.00000  Uiso   1.00
O480   O     0.48784   0.79304   0.15459   0.00000  Uiso   1.00
O481   O     0.46274   0.87058   0.34968   0.00000  Uiso   1.00
O482   O     0.54157   0.84425   0.14606   0.00000  Uiso   1.00
O483   O     0.50785   0.82546   0.34968   0.00000  Uiso   1.00
O484   O     0.65077   0.81163   0.38903   0.00000  Uiso   1.00
O485   O     0.60996   0.75106   0.42977   0.00000  Uiso   1.00
O486   O     0.58816   0.76986   0.36082   0.00000  Uiso   1.00
O487   O     0.33395   0.79059   0.47321   0.00000  Uiso   1.00
O488   O     0.65473   0.86140   0.46394   0.00000  Uiso   1.00
O489   O     0.66238   0.84513   0.04079   0.00000  Uiso   1.00
O490   O     0.51264   0.74686   0.28214   0.00000  Uiso   1.00
O491   O     0.39575   0.87086   0.18838   0.00000  Uiso   1.00
O492   O     0.47965   0.92751   0.27014   0.00000  Uiso   1.00
O493   O     0.40745   0.79958   0.23413   0.00000  Uiso   1.00
O494   O     0.60026   0.85939   0.21361   0.00000  Uiso   1.00
O495   O     0.40405   0.85544   0.28213   0.00000  Uiso   1.00
O496   O     0.58824   0.81892   0.27014   0.00000  Uiso   1.00
O497   O     0.47093   0.73610   0.23413   0.00000  Uiso   1.00
O498   O     0.53678   0.92286   0.21361   0.00000  Uiso   1.00
S499   S     0.60700   0.78775   0.40550   0.00000  Uiso   1.00
S500   S     0.64437   0.82710   0.49558   0.00000  Uiso   1.00
Zn501  Zn    0.52672   0.80661   0.28734   0.00000  Uiso   1.00
Zn502  Zn    0.46713   0.79124   0.21876   0.00000  Uiso   1.00
Zn503  Zn    0.54389   0.86442   0.20657   0.00000  Uiso   1.00
Zn504  Zn    0.46226   0.87106   0.28734   0.00000  Uiso   1.00
C505   C     0.71935   0.82594   0.26082   0.00000  Uiso   1.00
C506   C     0.83561   0.82149   0.05821   0.00000  Uiso   1.00
C507   C     0.90515   0.80462   0.05814   0.00000  Uiso   1.00
C508   C     0.94772   0.84042   0.23947   0.00000  Uiso   1.00
C509   C     0.81000   0.86044   0.41984   0.00000  Uiso   1.00
C510   C     0.99418   0.84292   0.23335   0.00000  Uiso   1.00
C511   C     0.67452   0.82525   0.26340   0.00000  Uiso   1.00
C512   C     0.84739   0.98928   0.23609   0.00000  Uiso   1.00
C513   C     0.81901   0.67844   0.26399   0.00000  Uiso   1.00
C514   C     0.82306   0.72257   0.26011   0.00000  Uiso   1.00
C515   C     0.84338   0.94466   0.24004   0.00000  Uiso   1.00
C516   C     0.76175   0.87968   0.49095   0.00000  Uiso   1.00
C517   C     0.85220   0.81530   0.12929   0.00000  Uiso   1.00
C518   C     0.81659   0.85241   0.37076   0.00000  Uiso   1.00
C519   C     0.92125   0.81226   0.01297   0.00000  Uiso   1.00
C520   C     0.86279   0.80938   0.08070   0.00000  Uiso   1.00
C521   C     0.77254   0.87695   0.44447   0.00000  Uiso   1.00
C522   C     0.69017   0.86471   0.19410   0.00000  Uiso   1.00
C523   C     0.78655   0.86370   0.01372   0.00000  Uiso   1.00
C524   C     0.82461   0.84662   0.49022   0.00000  Uiso   1.00
C525   C     0.83830   0.84874   0.44302   0.00000  Uiso   1.00
C526   C     0.85044   0.82942   0.01243   0.00000  Uiso   1.00
C527   C     0.89252   0.82011   0.48835   0.00000  Uiso   1.00
C528   C     0.90435   0.82053   0.44113   0.00000  Uiso   1.00
C529   C     0.87943   0.83840   0.42018   0.00000  Uiso   1.00
H530   H     0.92690   0.79931   0.07734   0.00000  Uiso   1.00
H531   H     0.94190   0.75078   0.34318   0.00000  Uiso   1.00
H532   H     0.67374   0.82140   0.04928   0.00000  Uiso   1.00
H533   H     0.67674   0.87581   0.16973   0.00000  Uiso   1.00
H534   H     0.98536   0.81068   0.29193   0.00000  Uiso   1.00
H535   H     0.87360   0.67058   0.21033   0.00000  Uiso   1.00
H536   H     0.79255   0.99790   0.28997   0.00000  Uiso   1.00
H537   H     0.80353   0.82591   0.07776   0.00000  Uiso   1.00
H538   H     0.75099   0.88714   0.42779   0.00000  Uiso   1.00
H539   H     0.77601   0.86680   0.04980   0.00000  Uiso   1.00
H540   H     0.73337   0.89350   0.00951   0.00000  Uiso   1.00
H541   H     0.89319   0.84343   0.38518   0.00000  Uiso   1.00
O542   O     0.83333   0.83333   0.25000   0.00000  Uiso   1.00
O543   O     0.82118   0.79304   0.15459   0.00000  Uiso   1.00
O544   O     0.79607   0.87058   0.34968   0.00000  Uiso   1.00
O545   O     0.87491   0.84425   0.14606   0.00000  Uiso   1.00
O546   O     0.84118   0.82546   0.34968   0.00000  Uiso   1.00
O547   O     0.98410   0.81163   0.38903   0.00000  Uiso   1.00
O548   O     0.94329   0.75106   0.42977   0.00000  Uiso   1.00
O549   O     0.92149   0.76986   0.36082   0.00000  Uiso   1.00
O550   O     0.66728   0.79059   0.47321   0.00000  Uiso   1.00
O551   O     0.98807   0.86140   0.46394   0.00000  Uiso   1.00
O552   O     0.99572   0.84513   0.04079   0.00000  Uiso   1.00
O553   O     0.84597   0.74686   0.28214   0.00000  Uiso   1.00
O554   O     0.72909   0.87086   0.18838   0.00000  Uiso   1.00
O555   O     0.81298   0.92751   0.27014   0.00000  Uiso   1.00
O556   O     0.74078   0.79958   0.23413   0.00000  Uiso   1.00
O557   O     0.93360   0.85939   0.21361   0.00000  Uiso   1.00
O558   O     0.73738   0.85544   0.28213   0.00000  Uiso   1.00
O559   O     0.92158   0.81892   0.27014   0.00000  Uiso   1.00
O560   O     0.80426   0.73610   0.23413   0.00000  Uiso   1.00
O561   O     0.87012   0.92286   0.21361   0.00000  Uiso   1.00
S562   S     0.94034   0.78775   0.40550   0.00000  Uiso   1.00
S563   S     0.97771   0.82710   0.49558   0.00000  Uiso   1.00
Zn564  Zn    0.86005   0.80661   0.28734   0.00000  Uiso   1.00
Zn565  Zn    0.80046   0.79124   0.21876   0.00000  Uiso   1.00
Zn566  Zn    0.87723   0.86442   0.20657   0.00000  Uiso   1.00
Zn567  Zn    0.79560   0.87106   0.28734   0.00000  Uiso   1.00
C568   C     0.05268   0.15927   0.76082   0.00000  Uiso   1.00
C569   C     0.16894   0.15483   0.55821   0.00000  Uiso   1.00
C570   C     0.23848   0.13796   0.55814   0.00000  Uiso   1.00
C571   C     0.28106   0.17376   0.73947   0.00000  Uiso   1.00
C572   C     0.14334   0.19378   0.91984   0.00000  Uiso   1.00
C573   C     0.32751   0.17625   0.73335   0.00000  Uiso   1.00
C574   C     0.00785   0.15859   0.76340   0.00000  Uiso   1.00
C575   C     0.18072   0.32261   0.73609   0.00000  Uiso   1.00
C576   C     0.15234   0.01178   0.76399   0.00000  Uiso   1.00
C577   C     0.15639   0.05591   0.76011   0.00000  Uiso   1.00
C578   C     0.17672   0.27800   0.74004   0.00000  Uiso   1.00
C579   C     0.09508   0.21301   0.99095   0.00000  Uiso   1.00
C580   C     0.18554   0.14863   0.62929   0.00000  Uiso   1.00
C581   C     0.14992   0.18574   0.87076   0.00000  Uiso   1.00
C582   C     0.25459   0.14560   0.51297   0.00000  Uiso   1.00
C583   C     0.19613   0.14272   0.58070   0.00000  Uiso   1.00
C584   C     0.10587   0.21028   0.94447   0.00000  Uiso   1.00
C585   C     0.02350   0.19804   0.69410   0.00000  Uiso   1.00
C586   C     0.11988   0.19704   0.51372   0.00000  Uiso   1.00
C587   C     0.15795   0.17995   0.99022   0.00000  Uiso   1.00
C588   C     0.17164   0.18208   0.94302   0.00000  Uiso   1.00
C589   C     0.18378   0.16276   0.51243   0.00000  Uiso   1.00
C590   C     0.22585   0.15345   0.98835   0.00000  Uiso   1.00
C591   C     0.23768   0.15386   0.94113   0.00000  Uiso   1.00
C592   C     0.21276   0.17174   0.92018   0.00000  Uiso   1.00
H593   H     0.26023   0.13264   0.57734   0.00000  Uiso   1.00
H594   H     0.27524   0.08411   0.84318   0.00000  Uiso   1.00
H595   H     0.00708   0.15473   0.54928   0.00000  Uiso   1.00
H596   H     0.01008   0.20915   0.66973   0.00000  Uiso   1.00
H597   H     0.31869   0.14401   0.79193   0.00000  Uiso   1.00
H598   H     0.20693   0.00392   0.71033   0.00000  Uiso   1.00
H599   H     0.12588   0.33123   0.78997   0.00000  Uiso   1.00
H600   H     0.13687   0.15924   0.57776   0.00000  Uiso   1.00
H601   H     0.08432   0.22047   0.92779   0.00000  Uiso   1.00
H602   H     0.10934   0.20014   0.54980   0.00000  Uiso   1.00
H603   H     0.06670   0.22684   0.50951   0.00000  Uiso   1.00
H604   H     0.22653   0.17676   0.88518   0.00000  Uiso   1.00
O605   O     0.16667   0.16667   0.75000   0.00000  Uiso   1.00
O606   O     0.15451   0.12637   0.65459   0.00000  Uiso   1.00
O607   O     0.12940   0.20391   0.84968   0.00000  Uiso   1.00
O608   O     0.20824   0.17759   0.64606   0.00000  Uiso   1.00
O609   O     0.17451   0.15880   0.84968   0.00000  Uiso   1.00
O610   O     0.31744   0.14496   0.88903   0.00000  Uiso   1.00
O611   O     0.27662   0.08439   0.92977   0.00000  Uiso   1.00
O612   O     0.25483   0.10319   0.86082   0.00000  Uiso   1.00
O613   O     0.00061   0.12392   0.97321   0.00000  Uiso   1.00
O614   O     0.32140   0.19474   0.96394   0.00000  Uiso   1.00
O615   O     0.32905   0.17847   0.54079   0.00000  Uiso   1.00
O616   O     0.17930   0.08019   0.78214   0.00000  Uiso   1.00
O617   O     0.06242   0.20419   0.68838   0.00000  Uiso   1.00
O618   O     0.14632   0.26085   0.77014   0.00000  Uiso   1.00
O619   O     0.07412   0.13291   0.73413   0.00000  Uiso   1.00
O620   O     0.26693   0.19272   0.71361   0.00000  Uiso   1.00
O621   O     0.07071   0.18878   0.78213   0.00000  Uiso   1.00
O622   O     0.25491   0.15226   0.77014   0.00000  Uiso   1.00
O623   O     0.13760   0.06944   0.73413   0.00000  Uiso   1.00
O624   O     0.20345   0.25620   0.71361   0.00000  Uiso   1.00
S625   S     0.27367   0.12108   0.90550   0.00000  Uiso   1.00
S626   S     0.31104   0.16043   0.99558   0.00000  Uiso   1.00
Zn627  Zn    0.19338   0.13994   0.78734   0.00000  Uiso   1.00
Zn628  Zn    0.13379   0.12458   0.71876   0.00000  Uiso   1.00
Zn629  Zn    0.21056   0.19775   0.70657   0.00000  Uiso   1.00
Zn630  Zn    0.12893   0.20439   0.78734   0.00000  Uiso   1.00
C631   C     0.38601   0.15927   0.76082   0.00000  Uiso   1.00
C632   C     0.50228   0.15483   0.55821   0.00000  Uiso   1.00
C633   C     0.57182   0.13796   0.55814   0.00000  Uiso   1.00
C634   C     0.61439   0.17376   0.73947   0.00000  Uiso   1.00
C635   C     0.47667   0.19378   0.91984   0.00000  Uiso   1.00
C636   C     0.66084   0.17625   0.73335   0.00000  Uiso   1.00
C637   C     0.34118   0.15859   0.76340   0.00000  Uiso   1.00
C638   C     0.51405   0.32261   0.73609   0.00000  Uiso   1.00
C639   C     0.48567   0.01178   0.76399   0.00000  Uiso   1.00
C640   C     0.48973   0.05591   0.76011   0.00000  Uiso   1.00
C641   C     0.51005   0.27800   0.74004   0.00000  Uiso   1.00
C642   C     0.42842   0.21301   0.99095   0.00000  Uiso   1.00
C643   C     0.51887   0.14863   0.62929   0.00000  Uiso   1.00
C644   C     0.48325   0.18574   0.87076   0.00000  Uiso   1.00
C645   C     0.58792   0.14560   0.51297   0.00000  Uiso   1.00
C646   C     0.52946   0.14272   0.58070   0.00000  Uiso   1.00
C647   C     0.43921   0.21028   0.94447   0.00000  Uiso   1.00
C648   C     0.35683   0.19804   0.69410   0.00000  Uiso   1.00
C649   C     0.45322   0.19704   0.51372   0.00000  Uiso   1.00
C650   C     0.49128   0.17995   0.99022   0.00000  Uiso   1.00
C651   C     0.50497   0.18208   0.94302   0.00000  Uiso   1.00
C652   C     0.51711   0.16276   0.51243   0.00000  Uiso   1.00
C653   C     0.55918   0.15345   0.98835   0.00000  Uiso   1.00
C654   C     0.57102   0.15386   0.94113   0.00000  Uiso   1.00
C655   C     0.54610   0.17174   0.92018   0.00000  Uiso   1.00
H656   H     0.59357   0.13264   0.57734   0.00000  Uiso   1.00
H657   H     0.60857   0.08411   0.84318   0.00000  Uiso   1.00
H658   H     0.34041   0.15473   0.54928   0.00000  Uiso   1.00
H659   H     0.34341   0.20915   0.66973   0.00000  Uiso   1.00
H660   H     0.65202   0.14401   0.79193   0.00000  Uiso   1.00
H661   H     0.54027   0.00392   0.71033   0.00000  Uiso   1.00
H662   H     0.45921   0.33123   0.78997   0.00000  Uiso   1.00
H663   H     0.47020   0.15924   0.57776   0.00000  Uiso   1.00
H664   H     0.41766   0.22047   0.92779   0.00000  Uiso   1.00
H665   H     0.44268   0.20014   0.54980   0.00000  Uiso   1.00
H666   H     0.40003   0.22684   0.50951   0.00000  Uiso   1.00
H667   H     0.55986   0.17676   0.88518   0.00000  Uiso   1.00
O668   O     0.50000   0.16667   0.75000   0.00000  Uiso   1.00
O669   O     0.48784   0.12637   0.65459   0.00000  Uiso   1.00
O670   O     0.46274   0.20391   0.84968   0.00000  Uiso   1.00
O671   O     0.54157   0.17759   0.64606   0.00000  Uiso   1.00
O672   O     0.50785   0.15880   0.84968   0.00000  Uiso   1.00
O673   O     0.65077   0.14496   0.88903   0.00000  Uiso   1.00
O674   O     0.60996   0.08439   0.92977   0.00000  Uiso   1.00
O675   O     0.58816   0.10319   0.86082   0.00000  Uiso   1.00
O676   O     0.33395   0.12392   0.97321   0.00000  Uiso   1.00
O677   O     0.65473   0.19474   0.96394   0.00000  Uiso   1.00
O678   O     0.66238   0.17847   0.54079   0.00000  Uiso   1.00
O679   O     0.51264   0.08019   0.78214   0.00000  Uiso   1.00
O680   O     0.39575   0.20419   0.68838   0.00000  Uiso   1.00
O681   O     0.47965   0.26085   0.77014   0.00000  Uiso   1.00
O682   O     0.40745   0.13291   0.73413   0.00000  Uiso   1.00
O683   O     0.60026   0.19272   0.71361   0.00000  Uiso   1.00
O684   O     0.40405   0.18878   0.78213   0.00000  Uiso   1.00
O685   O     0.58824   0.15226   0.77014   0.00000  Uiso   1.00
O686   O     0.47093   0.06944   0.73413   0.00000  Uiso   1.00
O687   O     0.53678   0.25620   0.71361   0.00000  Uiso   1.00
S688   S     0.60700   0.12108   0.90550   0.00000  Uiso   1.00
S689   S     0.64437   0.16043   0.99558   0.00000  Uiso   1.00
Zn690  Zn    0.52672   0.13994   0.78734   0.00000  Uiso   1.00
Zn691  Zn    0.46713   0.12458   0.71876   0.00000  Uiso   1.00
Zn692  Zn    0.54389   0.19775   0.70657   0.00000  Uiso   1.00
Zn693  Zn    0.46226   0.20439   0.78734   0.00000  Uiso   1.00
C694   C     0.71935   0.15927   0.76082   0.00000  Uiso   1.00
C695   C     0.83561   0.15483   0.55821   0.00000  Uiso   1.00
C696   C     0.90515   0.13796   0.55814   0.00000  Uiso   1.00
C697   C     0.94772   0.17376   0.73947   0.00000  Uiso   1.00
C698   C     0.81000   0.19378   0.91984   0.00000  Uiso   1.00
C699   C     0.99418   0.17625   0.73335   0.00000  Uiso   1.00
C700   C     0.67452   0.15859   0.76340   0.00000  Uiso   1.00
C701   C     0.84739   0.32261   0.73609   0.00000  Uiso   1.00
C702   C     0.81901   0.01178   0.76399   0.00000  Uiso   1.00
C703   C     0.82306   0.05591   0.76011   0.00000  Uiso   1.00
C704   C     0.84338   0.27800   0.74004   0.00000  Uiso   1.00
C705   C     0.76175   0.21301   0.99095   0.00000  Uiso   1.00
C706   C     0.85220   0.14863   0.62929   0.00000  Uiso   1.00
C707   C     0.81659   0.18574   0.87076   0.00000  Uiso   1.00
C708   C     0.92125   0.14560   0.51297   0.00000  Uiso   1.00
C709   C     0.86279   0.14272   0.58070   0.00000  Uiso   1.00
C710   C     0.77254   0.21028   0.94447   0.00000  Uiso   1.00
C711   C     0.69017   0.19804   0.69410   0.00000  Uiso   1.00
C712   C     0.78655   0.19704   0.51372   0.00000  Uiso   1.00
C713   C     0.82461   0.17995   0.99022   0.00000  Uiso   1.00
C714   C     0.83830   0.18208   0.94302   0.00000  Uiso   1.00
C715   C     0.85044   0.16276   0.51243   0.00000  Uiso   1.00
C716   C     0.89252   0.15345   0.98835   0.00000  Uiso   1.00
C717   C     0.90435   0.15386   0.94113   0.00000  Uiso   1.00
C718   C     0.87943   0.17174   0.92018   0.00000  Uiso   1.00
H719   H     0.92690   0.13264   0.57734   0.00000  Uiso   1.00
H720   H     0.94190   0.08411   0.84318   0.00000  Uiso   1.00
H721   H     0.67374   0.15473   0.54928   0.00000  Uiso   1.00
H722   H     0.67674   0.20915   0.66973   0.00000  Uiso   1.00
H723   H     0.98536   0.14401   0.79193   0.00000  Uiso   1.00
H724   H     0.87360   0.00392   0.71033   0.00000  Uiso   1.00
H725   H     0.79255   0.33123   0.78997   0.00000  Uiso   1.00
H726   H     0.80353   0.15924   0.57776   0.00000  Uiso   1.00
H727   H     0.75099   0.22047   0.92779   0.00000  Uiso   1.00
H728   H     0.77601   0.20014   0.54980   0.00000  Uiso   1.00
H729   H     0.73337   0.22684   0.50951   0.00000  Uiso   1.00
H730   H     0.89319   0.17676   0.88518   0.00000  Uiso   1.00
O731   O     0.83333   0.16667   0.75000   0.00000  Uiso   1.00
O732   O     0.82118   0.12637   0.65459   0.00000  Uiso   1.00
O733   O     0.79607   0.20391   0.84968   0.00000  Uiso   1.00
O734   O     0.87491   0.17759   0.64606   0.00000  Uiso   1.00
O735   O     0.84118   0.15880   0.84968   0.00000  Uiso   1.00
O736   O     0.98410   0.14496   0.88903   0.00000  Uiso   1.00
O737   O     0.94329   0.08439   0.92977   0.00000  Uiso   1.00
O738   O     0.92149   0.10319   0.86082   0.00000  Uiso   1.00
O739   O     0.66728   0.12392   0.97321   0.00000  Uiso   1.00
O740   O     0.98807   0.19474   0.96394   0.00000  Uiso   1.00
O741   O     0.99572   0.17847   0.54079   0.00000  Uiso   1.00
O742   O     0.84597   0.08019   0.78214   0.00000  Uiso   1.00
O743   O     0.72909   0.20419   0.68838   0.00000  Uiso   1.00
O744   O     0.81298   0.26085   0.77014   0.00000  Uiso   1.00
O745   O     0.74078   0.13291   0.73413   0.00000  Uiso   1.00
O746   O     0.93360   0.19272   0.71361   0.00000  Uiso   1.00
O747   O     0.73738   0.18878   0.78213   0.00000  Uiso   1.00
O748   O     0.92158   0.15226   0.77014   0.00000  Uiso   1.00
O749   O     0.80426   0.06944   0.73413   0.00000  Uiso   1.00
O750   O     0.87012   0.25620   0.71361   0.00000  Uiso   1.00
S751   S     0.94034   0.12108   0.90550   0.00000  Uiso   1.00
S752   S     0.97771   0.16043   0.99558   0.00000  Uiso   1.00
Zn753  Zn    0.86005   0.13994   0.78734   0.00000  Uiso   1.00
Zn754  Zn    0.80046   0.12458   0.71876   0.00000  Uiso   1.00
Zn755  Zn    0.87723   0.19775   0.70657   0.00000  Uiso   1.00
Zn756  Zn    0.79560   0.20439   0.78734   0.00000  Uiso   1.00
C757   C     0.05268   0.49260   0.76082   0.00000  Uiso   1.00
C758   C     0.16894   0.48816   0.55821   0.00000  Uiso   1.00
C759   C     0.23848   0.47129   0.55814   0.00000  Uiso   1.00
C760   C     0.28106   0.50709   0.73947   0.00000  Uiso   1.00
C761   C     0.14334   0.52711   0.91984   0.00000  Uiso   1.00
C762   C     0.32751   0.50958   0.73335   0.00000  Uiso   1.00
C763   C     0.00785   0.49192   0.76340   0.00000  Uiso   1.00
C764   C     0.18072   0.65595   0.73609   0.00000  Uiso   1.00
C765   C     0.15234   0.34511   0.76399   0.00000  Uiso   1.00
C766   C     0.15639   0.38924   0.76011   0.00000  Uiso   1.00
C767   C     0.17672   0.61133   0.74004   0.00000  Uiso   1.00
C768   C     0.09508   0.54634   0.99095   0.00000  Uiso   1.00
C769   C     0.18554   0.48196   0.62929   0.00000  Uiso   1.00
C770   C     0.14992   0.51907   0.87076   0.00000  Uiso   1.00
C771   C     0.25459   0.47893   0.51297   0.00000  Uiso   1.00
C772   C     0.19613   0.47605   0.58070   0.00000  Uiso   1.00
C773   C     0.10587   0.54361   0.94447   0.00000  Uiso   1.00
C774   C     0.02350   0.53137   0.69410   0.00000  Uiso   1.00
C775   C     0.11988   0.53037   0.51372   0.00000  Uiso   1.00
C776   C     0.15795   0.51329   0.99022   0.00000  Uiso   1.00
C777   C     0.17164   0.51541   0.94302   0.00000  Uiso   1.00
C778   C     0.18378   0.49609   0.51243   0.00000  Uiso   1.00
C779   C     0.22585   0.48678   0.98835   0.00000  Uiso   1.00
C780   C     0.23768   0.48719   0.94113   0.00000  Uiso   1.00
C781   C     0.21276   0.50507   0.92018   0.00000  Uiso   1.00
H782   H     0.26023   0.46597   0.57734   0.00000  Uiso   1.00
H783   H     0.27524   0.41744   0.84318   0.00000  Uiso   1.00
H784   H     0.00708   0.48806   0.54928   0.00000  Uiso   1.00
H785   H     0.01008   0.54248   0.66973   0.00000  Uiso   1.00
H786   H     0.31869   0.47735   0.79193   0.00000  Uiso   1.00
H787   H     0.20693   0.33725   0.71033   0.00000  Uiso   1.00
H788   H     0.12588   0.66456   0.78997   0.00000  Uiso   1.00
H789   H     0.13687   0.49258   0.57776   0.00000  Uiso   1.00
H790   H     0.08432   0.55380   0.92779   0.00000  Uiso   1.00
H791   H     0.10934   0.53347   0.54980   0.00000  Uiso   1.00
H792   H     0.06670   0.56017   0.50951   0.00000  Uiso   1.00
H793   H     0.22653   0.51009   0.88518   0.00000  Uiso   1.00
O794   O     0.16667   0.50000   0.75000   0.00000  Uiso   1.00
O795   O     0.15451   0.45970   0.65459   0.00000  Uiso   1.00
O796   O     0.12940   0.53724   0.84968   0.00000  Uiso   1.00
O797   O     0.20824   0.51092   0.64606   0.00000  Uiso   1.00
O798   O     0.17451   0.49213   0.84968   0.00000  Uiso   1.00
O799   O     0.31744   0.47829   0.88903   0.00000  Uiso   1.00
O800   O     0.27662   0.41773   0.92977   0.00000  Uiso   1.00
O801   O     0.25483   0.43652   0.86082   0.00000  Uiso   1.00
O802   O     0.00061   0.45725   0.97321   0.00000  Uiso   1.00
O803   O     0.32140   0.52807   0.96394   0.00000  Uiso   1.00
O804   O     0.32905   0.51180   0.54079   0.00000  Uiso   1.00
O805   O     0.17930   0.41352   0.78214   0.00000  Uiso   1.00
O806   O     0.06242   0.53753   0.68838   0.00000  Uiso   1.00
O807   O     0.14632   0.59418   0.77014   0.00000  Uiso   1.00
O808   O     0.07412   0.46625   0.73413   0.00000  Uiso   1.00
O809   O     0.26693   0.52605   0.71361   0.00000  Uiso   1.00
O810   O     0.07071   0.52211   0.78213   0.00000  Uiso   1.00
O811   O     0.25491   0.48559   0.77014   0.00000  Uiso   1.00
O812   O     0.13760   0.40277   0.73413   0.00000  Uiso   1.00
O813   O     0.20345   0.58953   0.71361   0.00000  Uiso   1.00
S814   S     0.27367   0.45442   0.90550   0.00000  Uiso   1.00
S815   S     0.31104   0.49377   0.99558   0.00000  Uiso   1.00
Zn816  Zn    0.19338   0.47327   0.78734   0.00000  Uiso   1.00
Zn817  Zn    0.13379   0.45791   0.71876   0.00000  Uiso   1.00
Zn818  Zn    0.21056   0.53109   0.70657   0.00000  Uiso   1.00
Zn819  Zn    0.12893   0.53773   0.78734   0.00000  Uiso   1.00
C820   C     0.38601   0.49260   0.76082   0.00000  Uiso   1.00
C821   C     0.50228   0.48816   0.55821   0.00000  Uiso   1.00
C822   C     0.57182   0.47129   0.55814   0.00000  Uiso   1.00
C823   C     0.61439   0.50709   0.73947   0.00000  Uiso   1.00
C824   C     0.47667   0.52711   0.91984   0.00000  Uiso   1.00
C825   C     0.66084   0.50958   0.73335   0.00000  Uiso   1.00
C826   C     0.34118   0.49192   0.76340   0.00000  Uiso   1.00
C827   C     0.51405   0.65595   0.73609   0.00000  Uiso   1.00
C828   C     0.48567   0.34511   0.76399   0.00000  Uiso   1.00
C829   C     0.48973   0.38924   0.76011   0.00000  Uiso   1.00
C830   C     0.51005   0.61133   0.74004   0.00000  Uiso   1.00
C831   C     0.42842   0.54634   0.99095   0.00000  Uiso   1.00
C832   C     0.51887   0.48196   0.62929   0.00000  Uiso   1.00
C833   C     0.48325   0.51907   0.87076   0.00000  Uiso   1.00
C834   C     0.58792   0.47893   0.51297   0.00000  Uiso   1.00
C835   C     0.52946   0.47605   0.58070   0.00000  Uiso   1.00
C836   C     0.43921   0.54361   0.94447   0.00000  Uiso   1.00
C837   C     0.35683   0.53137   0.69410   0.00000  Uiso   1.00
C838   C     0.45322   0.53037   0.51372   0.00000  Uiso   1.00
C839   C     0.49128   0.51329   0.99022   0.00000  Uiso   1.00
C840   C     0.50497   0.51541   0.94302   0.00000  Uiso   1.00
C841   C     0.51711   0.49609   0.51243   0.00000  Uiso   1.00
C842   C     0.55918   0.48678   0.98835   0.00000  Uiso   1.00
C843   C     0.57102   0.48719   0.94113   0.00000  Uiso   1.00
C844   C     0.54610   0.50507   0.92018   0.00000  Uiso   1.00
H845   H     0.59357   0.46597   0.57734   0.00000  Uiso   1.00
H846   H     0.60857   0.41744   0.84318   0.00000  Uiso   1.00
H847   H     0.34041   0.48806   0.54928   0.00000  Uiso   1.00
H848   H     0.34341   0.54248   0.66973   0.00000  Uiso   1.00
H849   H     0.65202   0.47735   0.79193   0.00000  Uiso   1.00
H850   H     0.54027   0.33725   0.71033   0.00000  Uiso   1.00
H851   H     0.45921   0.66456   0.78997   0.00000  Uiso   1.00
H852   H     0.47020   0.49258   0.57776   0.00000  Uiso   1.00
H853   H     0.41766   0.55380   0.92779   0.00000  Uiso   1.00
H854   H     0.44268   0.53347   0.54980   0.00000  Uiso   1.00
H855   H     0.40003   0.56017   0.50951   0.00000  Uiso   1.00
H856   H     0.55986   0.51009   0.88518   0.00000  Uiso   1.00
O857   O     0.50000   0.50000   0.75000   0.00000  Uiso   1.00
O858   O     0.48784   0.45970   0.65459   0.00000  Uiso   1.00
O859   O     0.46274   0.53724   0.84968   0.00000  Uiso   1.00
O860   O     0.54157   0.51092   0.64606   0.00000  Uiso   1.00
O861   O     0.50785   0.49213   0.84968   0.00000  Uiso   1.00
O862   O     0.65077   0.47829   0.88903   0.00000  Uiso   1.00
O863   O     0.60996   0.41773   0.92977   0.00000  Uiso   1.00
O864   O     0.58816   0.43652   0.86082   0.00000  Uiso   1.00
O865   O     0.33395   0.45725   0.97321   0.00000  Uiso   1.00
O866   O     0.65473   0.52807   0.96394   0.00000  Uiso   1.00
O867   O     0.66238   0.51180   0.54079   0.00000  Uiso   1.00
O868   O     0.51264   0.41352   0.78214   0.00000  Uiso   1.00
O869   O     0.39575   0.53753   0.68838   0.00000  Uiso   1.00
O870   O     0.47965   0.59418   0.77014   0.00000  Uiso   1.00
O871   O     0.40745   0.46625   0.73413   0.00000  Uiso   1.00
O872   O     0.60026   0.52605   0.71361   0.00000  Uiso   1.00
O873   O     0.40405   0.52211   0.78213   0.00000  Uiso   1.00
O874   O     0.58824   0.48559   0.77014   0.00000  Uiso   1.00
O875   O     0.47093   0.40277   0.73413   0.00000  Uiso   1.00
O876   O     0.53678   0.58953   0.71361   0.00000  Uiso   1.00
S877   S     0.60700   0.45442   0.90550   0.00000  Uiso   1.00
S878   S     0.64437   0.49377   0.99558   0.00000  Uiso   1.00
Zn879  Zn    0.52672   0.47327   0.78734   0.00000  Uiso   1.00
Zn880  Zn    0.46713   0.45791   0.71876   0.00000  Uiso   1.00
Zn881  Zn    0.54389   0.53109   0.70657   0.00000  Uiso   1.00
Zn882  Zn    0.46226   0.53773   0.78734   0.00000  Uiso   1.00
C883   C     0.71935   0.49260   0.76082   0.00000  Uiso   1.00
C884   C     0.83561   0.48816   0.55821   0.00000  Uiso   1.00
C885   C     0.90515   0.47129   0.55814   0.00000  Uiso   1.00
C886   C     0.94772   0.50709   0.73947   0.00000  Uiso   1.00
C887   C     0.81000   0.52711   0.91984   0.00000  Uiso   1.00
C888   C     0.99418   0.50958   0.73335   0.00000  Uiso   1.00
C889   C     0.67452   0.49192   0.76340   0.00000  Uiso   1.00
C890   C     0.84739   0.65595   0.73609   0.00000  Uiso   1.00
C891   C     0.81901   0.34511   0.76399   0.00000  Uiso   1.00
C892   C     0.82306   0.38924   0.76011   0.00000  Uiso   1.00
C893   C     0.84338   0.61133   0.74004   0.00000  Uiso   1.00
C894   C     0.76175   0.54634   0.99095   0.00000  Uiso   1.00
C895   C     0.85220   0.48196   0.62929   0.00000  Uiso   1.00
C896   C     0.81659   0.51907   0.87076   0.00000  Uiso   1.00
C897   C     0.92125   0.47893   0.51297   0.00000  Uiso   1.00
C898   C     0.86279   0.47605   0.58070   0.00000  Uiso   1.00
C899   C     0.77254   0.54361   0.94447   0.00000  Uiso   1.00
C900   C     0.69017   0.53137   0.69410   0.00000  Uiso   1.00
C901   C     0.78655   0.53037   0.51372   0.00000  Uiso   1.00
C902   C     0.82461   0.51329   0.99022   0.00000  Uiso   1.00
C903   C     0.83830   0.51541   0.94302   0.00000  Uiso   1.00
C904   C     0.85044   0.49609   0.51243   0.00000  Uiso   1.00
C905   C     0.89252   0.48678   0.98835   0.00000  Uiso   1.00
C906   C     0.90435   0.48719   0.94113   0.00000  Uiso   1.00
C907   C     0.87943   0.50507   0.92018   0.00000  Uiso   1.00
H908   H     0.92690   0.46597   0.57734   0.00000  Uiso   1.00
H909   H     0.94190   0.41744   0.84318   0.00000  Uiso   1.00
H910   H     0.67374   0.48806   0.54928   0.00000  Uiso   1.00
H911   H     0.67674   0.54248   0.66973   0.00000  Uiso   1.00
H912   H     0.98536   0.47735   0.79193   0.00000  Uiso   1.00
H913   H     0.87360   0.33725   0.71033   0.00000  Uiso   1.00
H914   H     0.79255   0.66456   0.78997   0.00000  Uiso   1.00
H915   H     0.80353   0.49258   0.57776   0.00000  Uiso   1.00
H916   H     0.75099   0.55380   0.92779   0.00000  Uiso   1.00
H917   H     0.77601   0.53347   0.54980   0.00000  Uiso   1.00
H918   H     0.73337   0.56017   0.50951   0.00000  Uiso   1.00
H919   H     0.89319   0.51009   0.88518   0.00000  Uiso   1.00
O920   O     0.83333   0.50000   0.75000   0.00000  Uiso   1.00
O921   O     0.82118   0.45970   0.65459   0.00000  Uiso   1.00
O922   O     0.79607   0.53724   0.84968   0.00000  Uiso   1.00
O923   O     0.87491   0.51092   0.64606   0.00000  Uiso   1.00
O924   O     0.84118   0.49213   0.84968   0.00000  Uiso   1.00
O925   O     0.98410   0.47829   0.88903   0.00000  Uiso   1.00
O926   O     0.94329   0.41773   0.92977   0.00000  Uiso   1.00
O927   O     0.92149   0.43652   0.86082   0.00000  Uiso   1.00
O928   O     0.66728   0.45725   0.97321   0.00000  Uiso   1.00
O929   O     0.98807   0.52807   0.96394   0.00000  Uiso   1.00
O930   O     0.99572   0.51180   0.54079   0.00000  Uiso   1.00
O931   O     0.84597   0.41352   0.78214   0.00000  Uiso   1.00
O932   O     0.72909   0.53753   0.68838   0.00000  Uiso   1.00
O933   O     0.81298   0.59418   0.77014   0.00000  Uiso   1.00
O934   O     0.74078   0.46625   0.73413   0.00000  Uiso   1.00
O935   O     0.93360   0.52605   0.71361   0.00000  Uiso   1.00
O936   O     0.73738   0.52211   0.78213   0.00000  Uiso   1.00
O937   O     0.92158   0.48559   0.77014   0.00000  Uiso   1.00
O938   O     0.80426   0.40277   0.73413   0.00000  Uiso   1.00
O939   O     0.87012   0.58953   0.71361   0.00000  Uiso   1.00
S940   S     0.94034   0.45442   0.90550   0.00000  Uiso   1.00
S941   S     0.97771   0.49377   0.99558   0.00000  Uiso   1.00
Zn942  Zn    0.86005   0.47327   0.78734   0.00000  Uiso   1.00
Zn943  Zn    0.80046   0.45791   0.71876   0.00000  Uiso   1.00
Zn944  Zn    0.87723   0.53109   0.70657   0.00000  Uiso   1.00
Zn945  Zn    0.79560   0.53773   0.78734   0.00000  Uiso   1.00
C946   C     0.05268   0.82594   0.76082   0.00000  Uiso   1.00
C947   C     0.16894   0.82149   0.55821   0.00000  Uiso   1.00
C948   C     0.23848   0.80462   0.55814   0.00000  Uiso   1.00
C949   C     0.28106   0.84042   0.73947   0.00000  Uiso   1.00
C950   C     0.14334   0.86044   0.91984   0.00000  Uiso   1.00
C951   C     0.32751   0.84292   0.73335   0.00000  Uiso   1.00
C952   C     0.00785   0.82525   0.76340   0.00000  Uiso   1.00
C953   C     0.18072   0.98928   0.73609   0.00000  Uiso   1.00
C954   C     0.15234   0.67844   0.76399   0.00000  Uiso   1.00
C955   C     0.15639   0.72257   0.76011   0.00000  Uiso   1.00
C956   C     0.17672   0.94466   0.74004   0.00000  Uiso   1.00
C957   C     0.09508   0.87968   0.99095   0.00000  Uiso   1.00
C958   C     0.18554   0.81530   0.62929   0.00000  Uiso   1.00
C959   C     0.14992   0.85241   0.87076   0.00000  Uiso   1.00
C960   C     0.25459   0.81226   0.51297   0.00000  Uiso   1.00
C961   C     0.19613   0.80938   0.58070   0.00000  Uiso   1.00
C962   C     0.10587   0.87695   0.94447   0.00000  Uiso   1.00
C963   C     0.02350   0.86471   0.69410   0.00000  Uiso   1.00
C964   C     0.11988   0.86370   0.51372   0.00000  Uiso   1.00
C965   C     0.15795   0.84662   0.99022   0.00000  Uiso   1.00
C966   C     0.17164   0.84874   0.94302   0.00000  Uiso   1.00
C967   C     0.18378   0.82942   0.51243   0.00000  Uiso   1.00
C968   C     0.22585   0.82011   0.98835   0.00000  Uiso   1.00
C969   C     0.23768   0.82053   0.94113   0.00000  Uiso   1.00
C970   C     0.21276   0.83840   0.92018   0.00000  Uiso   1.00
H971   H     0.26023   0.79931   0.57734   0.00000  Uiso   1.00
H972   H     0.27524   0.75078   0.84318   0.00000  Uiso   1.00
H973   H     0.00708   0.82140   0.54928   0.00000  Uiso   1.00
H974   H     0.01008   0.87581   0.66973   0.00000  Uiso   1.00
H975   H     0.31869   0.81068   0.79193   0.00000  Uiso   1.00
H976   H     0.20693   0.67058   0.71033   0.00000  Uiso   1.00
H977   H     0.12588   0.99790   0.78997   0.00000  Uiso   1.00
H978   H     0.13687   0.82591   0.57776   0.00000  Uiso   1.00
H979   H     0.08432   0.88714   0.92779   0.00000  Uiso   1.00
H980   H     0.10934   0.86680   0.54980   0.00000  Uiso   1.00
H981   H     0.06670   0.89350   0.50951   0.00000  Uiso   1.00
H982   H     0.22653   0.84343   0.88518   0.00000  Uiso   1.00
O983   O     0.16667   0.83333   0.75000   0.00000  Uiso   1.00
O984   O     0.15451   0.79304   0.65459   0.00000  Uiso   1.00
O985   O     0.12940   0.87058   0.84968   0.00000  Uiso   1.00
O986   O     0.20824   0.84425   0.64606   0.00000  Uiso   1.00
O987   O     0.17451   0.82546   0.84968   0.00000  Uiso   1.00
O988   O     0.31744   0.81163   0.88903   0.00000  Uiso   1.00
O989   O     0.27662   0.75106   0.92977   0.00000  Uiso   1.00
O990   O     0.25483   0.76986   0.86082   0.00000  Uiso   1.00
O991   O     0.00061   0.79059   0.97321   0.00000  Uiso   1.00
O992   O     0.32140   0.86140   0.96394   0.00000  Uiso   1.00
O993   O     0.32905   0.84513   0.54079   0.00000  Uiso   1.00
O994   O     0.17930   0.74686   0.78214   0.00000  Uiso   1.00
O995   O     0.06242   0.87086   0.68838   0.00000  Uiso   1.00
O996   O     0.14632   0.92751   0.77014   0.00000  Uiso   1.00
O997   O     0.07412   0.79958   0.73413   0.00000  Uiso   1.00
O998   O     0.26693   0.85939   0.71361   0.00000  Uiso   1.00
O999   O     0.07071   0.85544   0.78213   0.00000  Uiso   1.00
O1000  O     0.25491   0.81892   0.77014   0.00000  Uiso   1.00
O1001  O     0.13760   0.73610   0.73413   0.00000  Uiso   1.00
O1002  O     0.20345   0.92286   0.71361   0.00000  Uiso   1.00
S1003  S     0.27367   0.78775   0.90550   0.00000  Uiso   1.00
S1004  S     0.31104   0.82710   0.99558   0.00000  Uiso   1.00
Zn1005 Zn    0.19338   0.80661   0.78734   0.00000  Uiso   1.00
Zn1006 Zn    0.13379   0.79124   0.71876   0.00000  Uiso   1.00
Zn1007 Zn    0.21056   0.86442   0.70657   0.00000  Uiso   1.00
Zn1008 Zn    0.12893   0.87106   0.78734   0.00000  Uiso   1.00
C1009  C     0.38601   0.82594   0.76082   0.00000  Uiso   1.00
C1010  C     0.50228   0.82149   0.55821   0.00000  Uiso   1.00
C1011  C     0.57182   0.80462   0.55814   0.00000  Uiso   1.00
C1012  C     0.61439   0.84042   0.73947   0.00000  Uiso   1.00
C1013  C     0.47667   0.86044   0.91984   0.00000  Uiso   1.00
C1014  C     0.66084   0.84292   0.73335   0.00000  Uiso   1.00
C1015  C     0.34118   0.82525   0.76340   0.00000  Uiso   1.00
C1016  C     0.51405   0.98928   0.73609   0.00000  Uiso   1.00
C1017  C     0.48567   0.67844   0.76399   0.00000  Uiso   1.00
C1018  C     0.48973   0.72257   0.76011   0.00000  Uiso   1.00
C1019  C     0.51005   0.94466   0.74004   0.00000  Uiso   1.00
C1020  C     0.42842   0.87968   0.99095   0.00000  Uiso   1.00
C1021  C     0.51887   0.81530   0.62929   0.00000  Uiso   1.00
C1022  C     0.48325   0.85241   0.87076   0.00000  Uiso   1.00
C1023  C     0.58792   0.81226   0.51297   0.00000  Uiso   1.00
C1024  C     0.52946   0.80938   0.58070   0.00000  Uiso   1.00
C1025  C     0.43921   0.87695   0.94447   0.00000  Uiso   1.00
C1026  C     0.35683   0.86471   0.69410   0.00000  Uiso   1.00
C1027  C     0.45322   0.86370   0.51372   0.00000  Uiso   1.00
C1028  C     0.49128   0.84662   0.99022   0.00000  Uiso   1.00
C1029  C     0.50497   0.84874   0.94302   0.00000  Uiso   1.00
C1030  C     0.51711   0.82942   0.51243   0.00000  Uiso   1.00
C1031  C     0.55918   0.82011   0.98835   0.00000  Uiso   1.00
C1032  C     0.57102   0.82053   0.94113   0.00000  Uiso   1.00
C1033  C     0.54610   0.83840   0.92018   0.00000  Uiso   1.00
H1034  H     0.59357   0.79931   0.57734   0.00000  Uiso   1.00
H1035  H     0.60857   0.75078   0.84318   0.00000  Uiso   1.00
H1036  H     0.34041   0.82140   0.54928   0.00000  Uiso   1.00
H1037  H     0.34341   0.87581   0.66973   0.00000  Uiso   1.00
H1038  H     0.65202   0.81068   0.79193   0.00000  Uiso   1.00
H1039  H     0.54027   0.67058   0.71033   0.00000  Uiso   1.00
H1040  H     0.45921   0.99790   0.78997   0.00000  Uiso   1.00
H1041  H     0.47020   0.82591   0.57776   0.00000  Uiso   1.00
H1042  H     0.41766   0.88714   0.92779   0.00000  Uiso   1.00
H1043  H     0.44268   0.86680   0.54980   0.00000  Uiso   1.00
H1044  H     0.40003   0.89350   0.50951   0.00000  Uiso   1.00
H1045  H     0.55986   0.84343   0.88518   0.00000  Uiso   1.00
O1046  O     0.50000   0.83333   0.75000   0.00000  Uiso   1.00
O1047  O     0.48784   0.79304   0.65459   0.00000  Uiso   1.00
O1048  O     0.46274   0.87058   0.84968   0.00000  Uiso   1.00
O1049  O     0.54157   0.84425   0.64606   0.00000  Uiso   1.00
O1050  O     0.50785   0.82546   0.84968   0.00000  Uiso   1.00
O1051  O     0.65077   0.81163   0.88903   0.00000  Uiso   1.00
O1052  O     0.60996   0.75106   0.92977   0.00000  Uiso   1.00
O1053  O     0.58816   0.76986   0.86082   0.00000  Uiso   1.00
O1054  O     0.33395   0.79059   0.97321   0.00000  Uiso   1.00
O1055  O     0.65473   0.86140   0.96394   0.00000  Uiso   1.00
O1056  O     0.66238   0.84513   0.54079   0.00000  Uiso   1.00
O1057  O     0.51264   0.74686   0.78214   0.00000  Uiso   1.00
O1058  O     0.39575   0.87086   0.68838   0.00000  Uiso   1.00
O1059  O     0.47965   0.92751   0.77014   0.00000  Uiso   1.00
O1060  O     0.40745   0.79958   0.73413   0.00000  Uiso   1.00
O1061  O     0.60026   0.85939   0.71361   0.00000  Uiso   1.00
O1062  O     0.40405   0.85544   0.78213   0.00000  Uiso   1.00
O1063  O     0.58824   0.81892   0.77014   0.00000  Uiso   1.00
O1064  O     0.47093   0.73610   0.73413   0.00000  Uiso   1.00
O1065  O     0.53678   0.92286   0.71361   0.00000  Uiso   1.00
S1066  S     0.60700   0.78775   0.90550   0.00000  Uiso   1.00
S1067  S     0.64437   0.82710   0.99558   0.00000  Uiso   1.00
Zn1068 Zn    0.52672   0.80661   0.78734   0.00000  Uiso   1.00
Zn1069 Zn    0.46713   0.79124   0.71876   0.00000  Uiso   1.00
Zn1070 Zn    0.54389   0.86442   0.70657   0.00000  Uiso   1.00
Zn1071 Zn    0.46226   0.87106   0.78734   0.00000  Uiso   1.00
C1072  C     0.71935   0.82594   0.76082   0.00000  Uiso   1.00
C1073  C     0.83561   0.82149   0.55821   0.00000  Uiso   1.00
C1074  C     0.90515   0.80462   0.55814   0.00000  Uiso   1.00
C1075  C     0.94772   0.84042   0.73947   0.00000  Uiso   1.00
C1076  C     0.81000   0.86044   0.91984   0.00000  Uiso   1.00
C1077  C     0.99418   0.84292   0.73335   0.00000  Uiso   1.00
C1078  C     0.67452   0.82525   0.76340   0.00000  Uiso   1.00
C1079  C     0.84739   0.98928   0.73609   0.00000  Uiso   1.00
C1080  C     0.81901   0.67844   0.76399   0.00000  Uiso   1.00
C1081  C     0.82306   0.72257   0.76011   0.00000  Uiso   1.00
C1082  C     0.84338   0.94466   0.74004   0.00000  Uiso   1.00
C1083  C     0.76175   0.87968   0.99095   0.00000  Uiso   1.00
C1084  C     0.85220   0.81530   0.62929   0.00000  Uiso   1.00
C1085  C     0.81659   0.85241   0.87076   0.00000  Uiso   1.00
C1086  C     0.92125   0.81226   0.51297   0.00000  Uiso   1.00
C1087  C     0.86279   0.80938   0.58070   0.00000  Uiso   1.00
C1088  C     0.77254   0.87695   0.94447   0.00000  Uiso   1.00
C1089  C     0.69017   0.86471   0.69410   0.00000  Uiso   1.00
C1090  C     0.78655   0.86370   0.51372   0.00000  Uiso   1.00
C1091  C     0.82461   0.84662   0.99022   0.00000  Uiso   1.00
C1092  C     0.83830   0.84874   0.94302   0.00000  Uiso   1.00
C1093  C     0.85044   0.82942   0.51243   0.00000  Uiso   1.00
C1094  C     0.89252   0.82011   0.98835   0.00000  Uiso   1.00
C1095  C     0.90435   0.82053   0.94113   0.00000  Uiso   1.00
C1096  C     0.87943   0.83840   0.92018   0.00000  Uiso   1.00
H1097  H     0.92690   0.79931   0.57734   0.00000  Uiso   1.00
H1098  H     0.94190   0.75078   0.84318   0.00000  Uiso   1.00
H1099  H     0.67374   0.82140   0.54928   0.00000  Uiso   1.00
H1100  H     0.67674   0.87581   0.66973   0.00000  Uiso   1.00
H1101  H     0.98536   0.81068   0.79193   0.00000  Uiso   1.00
H1102  H     0.87360   0.67058   0.71033   0.00000  Uiso   1.00
H1103  H     0.79255   0.99790   0.78997   0.00000  Uiso   1.00
H1104  H     0.80353   0.82591   0.57776   0.00000  Uiso   1.00
H1105  H     0.75099   0.88714   0.92779   0.00000  Uiso   1.00
H1106  H     0.77601   0.86680   0.54980   0.00000  Uiso   1.00
H1107  H     0.73337   0.89350   0.50951   0.00000  Uiso   1.00
H1108  H     0.89319   0.84343   0.88518   0.00000  Uiso   1.00
O1109  O     0.83333   0.83333   0.75000   0.00000  Uiso   1.00
O1110  O     0.82118   0.79304   0.65459   0.00000  Uiso   1.00
O1111  O     0.79607   0.87058   0.84968   0.00000  Uiso   1.00
O1112  O     0.87491   0.84425   0.64606   0.00000  Uiso   1.00
O1113  O     0.84118   0.82546   0.84968   0.00000  Uiso   1.00
O1114  O     0.98410   0.81163   0.88903   0.00000  Uiso   1.00
O1115  O     0.94329   0.75106   0.92977   0.00000  Uiso   1.00
O1116  O     0.92149   0.76986   0.86082   0.00000  Uiso   1.00
O1117  O     0.66728   0.79059   0.97321   0.00000  Uiso   1.00
O1118  O     0.98807   0.86140   0.96394   0.00000  Uiso   1.00
O1119  O     0.99572   0.84513   0.54079   0.00000  Uiso   1.00
O1120  O     0.84597   0.74686   0.78214   0.00000  Uiso   1.00
O1121  O     0.72909   0.87086   0.68838   0.00000  Uiso   1.00
O1122  O     0.81298   0.92751   0.77014   0.00000  Uiso   1.00
O1123  O     0.74078   0.79958   0.73413   0.00000  Uiso   1.00
O1124  O     0.93360   0.85939   0.71361   0.00000  Uiso   1.00
O1125  O     0.73738   0.85544   0.78213   0.00000  Uiso   1.00
O1126  O     0.92158   0.81892   0.77014   0.00000  Uiso   1.00
O1127  O     0.80426   0.73610   0.73413   0.00000  Uiso   1.00
O1128  O     0.87012   0.92286   0.71361   0.00000  Uiso   1.00
S1129  S     0.94034   0.78775   0.90550   0.00000  Uiso   1.00
S1130  S     0.97771   0.82710   0.99558   0.00000  Uiso   1.00
Zn1131 Zn    0.86005   0.80661   0.78734   0.00000  Uiso   1.00
Zn1132 Zn    0.80046   0.79124   0.71876   0.00000  Uiso   1.00
Zn1133 Zn    0.87723   0.86442   0.70657   0.00000  Uiso   1.00
Zn1134 Zn    0.79560   0.87106   0.78734   0.00000  Uiso   1.00
loop_
_geom_bond_atom_site_label_1
_geom_bond_atom_site_label_2
_geom_bond_distance
_geom_bond_site_symmetry_2
_ccdc_geom_bond_type
C1     O54     1.272   .     A
C1     C7      1.438   .     S
C1     O52     1.275   .     A
C2     C22     1.410   .     A
C2     C16     1.387   .     A
C2     H33     1.079   .     S
C3     C15     1.392   .     A
C3     H26     1.084   .     S
C3     C16     1.391   .     A
C4     O53     1.274   .     A
C4     C6      1.465   .     S
C4     O55     1.281   .     A
C5     C17     1.402   .     A
C5     C14     1.481   .     S
C5     C21     1.426   .     A
C6     C70     1.346   .     S
C6     C81     1.499   .     S
C7     C132    1.346   1_455 S
C7     H156    1.085   1_455 S
C8     C11     1.452   .     S
C8     C198    1.332   .     S
C8     H220    1.088   .     S
C9     C10     1.436   .     S
C9     C386    1.332   1_545 S
C9     H410    1.086   1_545 S
C10    O56     1.281   .     A
C10    O49     1.281   .     A
C11    O51     1.268   .     A
C11    O57     1.268   .     A
C12    C17     1.386   .     A
C12    C586    1.390   .     S
C12    H603    1.082   .     S
C13    O39     1.278   .     A
C13    C16     1.453   .     S
C13    O41     1.268   .     A
C14    O42     1.281   .     A
C14    O40     1.288   .     A
C15    C590    1.424   1_554 S
C15    S626    1.778   1_554 S
C17    H34     1.083   .     S
C18    O50     1.221   .     D
C18    H29     1.085   .     S
C18    C132    1.499   1_455 S
C19    H35     1.078   .     S
C19    C579    1.390   1_554 S
C19    C587    1.417   1_554 S
C20    C21     1.417   .     A
C20    C586    1.417   .     S
C20    C589    1.425   .     S
C21    C25     1.407   .     A
C22    C587    1.425   1_554 S
C22    C590    1.432   1_554 S
C23    C24     1.412   .     A
C23    C582    1.424   .     S
C23    C589    1.432   .     S
C24    C25     1.387   .     A
C24    S58     1.777   .     S
C25    H37     1.077   .     S
H27    O45     0.991   .     S
H28    O174    0.991   1_455 S
H30    C70     1.085   .     S
H31    C386    1.088   1_545 S
H32    C198    1.086   .     S
H36    C579    1.082   1_554 S
O38    Zn61    1.954   .     S
O38    Zn60    1.959   .     S
O38    Zn63    1.934   .     S
O38    Zn62    1.922   .     S
O39    Zn61    1.927   .     S
O40    Zn63    1.942   .     S
O41    Zn62    1.943   .     S
O42    Zn60    1.929   .     S
O43    S58     1.502   .     D
O44    S58     1.503   .     D
O45    S58     1.683   .     S
O46    S185    1.503   1_455 S
O47    S59     1.502   .     D
O48    H91     0.991   .     S
O48    S626    1.684   1_554 S
O49    Zn60    1.929   .     S
O51    Zn63    1.925   .     S
O52    Zn61    1.926   .     S
O53    Zn62    1.940   .     S
O54    Zn63    1.936   .     S
O55    Zn60    1.921   .     S
O56    Zn61    1.931   .     S
O57    Zn62    1.931   .     S
S59    O615    1.684   .     S
S59    C582    1.778   .     S
S59    O109    1.503   .     S
C64    O117    1.272   .     A
C64    C70     1.438   .     S
C64    O115    1.275   .     A
C65    C85     1.410   .     A
C65    C79     1.387   .     A
C65    H96     1.079   .     S
C66    C78     1.392   .     A
C66    H89     1.084   .     S
C66    C79     1.391   .     A
C67    O116    1.274   .     A
C67    C69     1.465   .     S
C67    O118    1.281   .     A
C68    C80     1.402   .     A
C68    C77     1.481   .     S
C68    C84     1.426   .     A
C69    C133    1.346   .     S
C69    C144    1.499   .     S
C71    C74     1.452   .     S
C71    C261    1.332   .     S
C71    H283    1.088   .     S
C72    C73     1.436   .     S
C72    C449    1.332   1_545 S
C72    H473    1.086   1_545 S
C73    O119    1.281   .     A
C73    O112    1.281   .     A
C74    O114    1.268   .     A
C74    O120    1.268   .     A
C75    C80     1.386   .     A
C75    C649    1.390   .     S
C75    H666    1.082   .     S
C76    O102    1.278   .     A
C76    C79     1.453   .     S
C76    O104    1.268   .     A
C77    O105    1.281   .     A
C77    O103    1.288   .     A
C78    C653    1.424   1_554 S
C78    S689    1.778   1_554 S
C80    H97     1.083   .     S
C81    O113    1.221   .     D
C81    H92     1.085   .     S
C82    H98     1.078   .     S
C82    C642    1.390   1_554 S
C82    C650    1.417   1_554 S
C83    C84     1.417   .     A
C83    C649    1.417   .     S
C83    C652    1.425   .     S
C84    C88     1.407   .     A
C85    C650    1.425   1_554 S
C85    C653    1.432   1_554 S
C86    C87     1.412   .     A
C86    C645    1.424   .     S
C86    C652    1.432   .     S
C87    C88     1.387   .     A
C87    S121    1.777   .     S
C88    H100    1.077   .     S
H90    O108    0.991   .     S
H93    C133    1.085   .     S
H94    C449    1.088   1_545 S
H95    C261    1.086   .     S
H99    C642    1.082   1_554 S
O101   Zn124   1.954   .     S
O101   Zn123   1.959   .     S
O101   Zn126   1.934   .     S
O101   Zn125   1.922   .     S
O102   Zn124   1.927   .     S
O103   Zn126   1.942   .     S
O104   Zn125   1.943   .     S
O105   Zn123   1.929   .     S
O106   S121    1.502   .     D
O107   S121    1.503   .     D
O108   S121    1.683   .     S
O110   S122    1.502   .     D
O111   H154    0.991   .     S
O111   S689    1.684   1_554 S
O112   Zn123   1.929   .     S
O114   Zn126   1.925   .     S
O115   Zn124   1.926   .     S
O116   Zn125   1.940   .     S
O117   Zn126   1.936   .     S
O118   Zn123   1.921   .     S
O119   Zn124   1.931   .     S
O120   Zn125   1.931   .     S
S122   O678    1.684   .     S
S122   C645    1.778   .     S
S122   O172    1.503   .     S
C127   O180    1.272   .     A
C127   C133    1.438   .     S
C127   O178    1.275   .     A
C128   C148    1.410   .     A
C128   C142    1.387   .     A
C128   H159    1.079   .     S
C129   C141    1.392   .     A
C129   H152    1.084   .     S
C129   C142    1.391   .     A
C130   O179    1.274   .     A
C130   C132    1.465   .     S
C130   O181    1.281   .     A
C131   C143    1.402   .     A
C131   C140    1.481   .     S
C131   C147    1.426   .     A
C132   C7      1.346   1_655 S
C132   C18     1.499   1_655 S
C134   C137    1.452   .     S
C134   C324    1.332   .     S
C134   H346    1.088   .     S
C135   C136    1.436   .     S
C135   C512    1.332   1_545 S
C135   H536    1.086   1_545 S
C136   O182    1.281   .     A
C136   O175    1.281   .     A
C137   O177    1.268   .     A
C137   O183    1.268   .     A
C138   C143    1.386   .     A
C138   C712    1.390   .     S
C138   H729    1.082   .     S
C139   O165    1.278   .     A
C139   C142    1.453   .     S
C139   O167    1.268   .     A
C140   O168    1.281   .     A
C140   O166    1.288   .     A
C141   C716    1.424   1_554 S
C141   S752    1.778   1_554 S
C143   H160    1.083   .     S
C144   O176    1.221   .     D
C144   H155    1.085   .     S
C145   H161    1.078   .     S
C145   C705    1.390   1_554 S
C145   C713    1.417   1_554 S
C146   C147    1.417   .     A
C146   C712    1.417   .     S
C146   C715    1.425   .     S
C147   C151    1.407   .     A
C148   C713    1.425   1_554 S
C148   C716    1.432   1_554 S
C149   C150    1.412   .     A
C149   C708    1.424   .     S
C149   C715    1.432   .     S
C150   C151    1.387   .     A
C150   S184    1.777   .     S
C151   H163    1.077   .     S
H153   O171    0.991   .     S
H156   C7      1.085   1_655 S
H157   C512    1.088   1_545 S
H158   C324    1.086   .     S
H162   C705    1.082   1_554 S
O164   Zn187   1.954   .     S
O164   Zn186   1.959   .     S
O164   Zn189   1.934   .     S
O164   Zn188   1.922   .     S
O165   Zn187   1.927   .     S
O166   Zn189   1.942   .     S
O167   Zn188   1.943   .     S
O168   Zn186   1.929   .     S
O169   S184    1.502   .     D
O170   S184    1.503   .     D
O171   S184    1.683   .     S
O173   S185    1.502   .     D
O174   H28     0.991   1_655 S
O174   S752    1.684   1_554 S
O175   Zn186   1.929   .     S
O177   Zn189   1.925   .     S
O178   Zn187   1.926   .     S
O179   Zn188   1.940   .     S
O180   Zn189   1.936   .     S
O181   Zn186   1.921   .     S
O182   Zn187   1.931   .     S
O183   Zn188   1.931   .     S
S185   O741    1.684   .     S
S185   C708    1.778   .     S
S185   O46     1.503   1_655 S
C190   O243    1.272   .     A
C190   C196    1.438   .     S
C190   O241    1.275   .     A
C191   C211    1.410   .     A
C191   C205    1.387   .     A
C191   H222    1.079   .     S
C192   C204    1.392   .     A
C192   H215    1.084   .     S
C192   C205    1.391   .     A
C193   O242    1.274   .     A
C193   C195    1.465   .     S
C193   O244    1.281   .     A
C194   C206    1.402   .     A
C194   C203    1.481   .     S
C194   C210    1.426   .     A
C195   C259    1.346   .     S
C195   C270    1.499   .     S
C196   C321    1.346   1_455 S
C196   H345    1.085   1_455 S
C197   C200    1.452   .     S
C197   C387    1.332   .     S
C197   H409    1.088   .     S
C198   C199    1.436   .     S
C199   O245    1.281   .     A
C199   O238    1.281   .     A
C200   O240    1.268   .     A
C200   O246    1.268   .     A
C201   C206    1.386   .     A
C201   C775    1.390   .     S
C201   H792    1.082   .     S
C202   O228    1.278   .     A
C202   C205    1.453   .     S
C202   O230    1.268   .     A
C203   O231    1.281   .     A
C203   O229    1.288   .     A
C204   C779    1.424   1_554 S
C204   S815    1.778   1_554 S
C206   H223    1.083   .     S
C207   O239    1.221   .     D
C207   H218    1.085   .     S
C207   C321    1.499   1_455 S
C208   H224    1.078   .     S
C208   C768    1.390   1_554 S
C208   C776    1.417   1_554 S
C209   C210    1.417   .     A
C209   C775    1.417   .     S
C209   C778    1.425   .     S
C210   C214    1.407   .     A
C211   C776    1.425   1_554 S
C211   C779    1.432   1_554 S
C212   C213    1.412   .     A
C212   C771    1.424   .     S
C212   C778    1.432   .     S
C213   C214    1.387   .     A
C213   S247    1.777   .     S
C214   H226    1.077   .     S
H216   O234    0.991   .     S
H217   O363    0.991   1_455 S
H219   C259    1.085   .     S
H221   C387    1.086   .     S
H225   C768    1.082   1_554 S
O227   Zn250   1.954   .     S
O227   Zn249   1.959   .     S
O227   Zn252   1.934   .     S
O227   Zn251   1.922   .     S
O228   Zn250   1.927   .     S
O229   Zn252   1.942   .     S
O230   Zn251   1.943   .     S
O231   Zn249   1.929   .     S
O232   S247    1.502   .     D
O233   S247    1.503   .     D
O234   S247    1.683   .     S
O235   S374    1.503   1_455 S
O236   S248    1.502   .     D
O237   H280    0.991   .     S
O237   S815    1.684   1_554 S
O238   Zn249   1.929   .     S
O240   Zn252   1.925   .     S
O241   Zn250   1.926   .     S
O242   Zn251   1.940   .     S
O243   Zn252   1.936   .     S
O244   Zn249   1.921   .     S
O245   Zn250   1.931   .     S
O246   Zn251   1.931   .     S
S248   O804    1.684   .     S
S248   C771    1.778   .     S
S248   O298    1.503   .     S
C253   O306    1.272   .     A
C253   C259    1.438   .     S
C253   O304    1.275   .     A
C254   C274    1.410   .     A
C254   C268    1.387   .     A
C254   H285    1.079   .     S
C255   C267    1.392   .     A
C255   H278    1.084   .     S
C255   C268    1.391   .     A
C256   O305    1.274   .     A
C256   C258    1.465   .     S
C256   O307    1.281   .     A
C257   C269    1.402   .     A
C257   C266    1.481   .     S
C257   C273    1.426   .     A
C258   C322    1.346   .     S
C258   C333    1.499   .     S
C260   C263    1.452   .     S
C260   C450    1.332   .     S
C260   H472    1.088   .     S
C261   C262    1.436   .     S
C262   O308    1.281   .     A
C262   O301    1.281   .     A
C263   O303    1.268   .     A
C263   O309    1.268   .     A
C264   C269    1.386   .     A
C264   C838    1.390   .     S
C264   H855    1.082   .     S
C265   O291    1.278   .     A
C265   C268    1.453   .     S
C265   O293    1.268   .     A
C266   O294    1.281   .     A
C266   O292    1.288   .     A
C267   C842    1.424   1_554 S
C267   S878    1.778   1_554 S
C269   H286    1.083   .     S
C270   O302    1.221   .     D
C270   H281    1.085   .     S
C271   H287    1.078   .     S
C271   C831    1.390   1_554 S
C271   C839    1.417   1_554 S
C272   C273    1.417   .     A
C272   C838    1.417   .     S
C272   C841    1.425   .     S
C273   C277    1.407   .     A
C274   C839    1.425   1_554 S
C274   C842    1.432   1_554 S
C275   C276    1.412   .     A
C275   C834    1.424   .     S
C275   C841    1.432   .     S
C276   C277    1.387   .     A
C276   S310    1.777   .     S
C277   H289    1.077   .     S
H279   O297    0.991   .     S
H282   C322    1.085   .     S
H284   C450    1.086   .     S
H288   C831    1.082   1_554 S
O290   Zn313   1.954   .     S
O290   Zn312   1.959   .     S
O290   Zn315   1.934   .     S
O290   Zn314   1.922   .     S
O291   Zn313   1.927   .     S
O292   Zn315   1.942   .     S
O293   Zn314   1.943   .     S
O294   Zn312   1.929   .     S
O295   S310    1.502   .     D
O296   S310    1.503   .     D
O297   S310    1.683   .     S
O299   S311    1.502   .     D
O300   H343    0.991   .     S
O300   S878    1.684   1_554 S
O301   Zn312   1.929   .     S
O303   Zn315   1.925   .     S
O304   Zn313   1.926   .     S
O305   Zn314   1.940   .     S
O306   Zn315   1.936   .     S
O307   Zn312   1.921   .     S
O308   Zn313   1.931   .     S
O309   Zn314   1.931   .     S
S311   O867    1.684   .     S
S311   C834    1.778   .     S
S311   O361    1.503   .     S
C316   O369    1.272   .     A
C316   C322    1.438   .     S
C316   O367    1.275   .     A
C317   C337    1.410   .     A
C317   C331    1.387   .     A
C317   H348    1.079   .     S
C318   C330    1.392   .     A
C318   H341    1.084   .     S
C318   C331    1.391   .     A
C319   O368    1.274   .     A
C319   C321    1.465   .     S
C319   O370    1.281   .     A
C320   C332    1.402   .     A
C320   C329    1.481   .     S
C320   C336    1.426   .     A
C321   C196    1.346   1_655 S
C321   C207    1.499   1_655 S
C323   C326    1.452   .     S
C323   C513    1.332   .     S
C323   H535    1.088   .     S
C324   C325    1.436   .     S
C325   O371    1.281   .     A
C325   O364    1.281   .     A
C326   O366    1.268   .     A
C326   O372    1.268   .     A
C327   C332    1.386   .     A
C327   C901    1.390   .     S
C327   H918    1.082   .     S
C328   O354    1.278   .     A
C328   C331    1.453   .     S
C328   O356    1.268   .     A
C329   O357    1.281   .     A
C329   O355    1.288   .     A
C330   C905    1.424   1_554 S
C330   S941    1.778   1_554 S
C332   H349    1.083   .     S
C333   O365    1.221   .     D
C333   H344    1.085   .     S
C334   H350    1.078   .     S
C334   C894    1.390   1_554 S
C334   C902    1.417   1_554 S
C335   C336    1.417   .     A
C335   C901    1.417   .     S
C335   C904    1.425   .     S
C336   C340    1.407   .     A
C337   C902    1.425   1_554 S
C337   C905    1.432   1_554 S
C338   C339    1.412   .     A
C338   C897    1.424   .     S
C338   C904    1.432   .     S
C339   C340    1.387   .     A
C339   S373    1.777   .     S
C340   H352    1.077   .     S
H342   O360    0.991   .     S
H345   C196    1.085   1_655 S
H347   C513    1.086   .     S
H351   C894    1.082   1_554 S
O353   Zn376   1.954   .     S
O353   Zn375   1.959   .     S
O353   Zn378   1.934   .     S
O353   Zn377   1.922   .     S
O354   Zn376   1.927   .     S
O355   Zn378   1.942   .     S
O356   Zn377   1.943   .     S
O357   Zn375   1.929   .     S
O358   S373    1.502   .     D
O359   S373    1.503   .     D
O360   S373    1.683   .     S
O362   S374    1.502   .     D
O363   H217    0.991   1_655 S
O363   S941    1.684   1_554 S
O364   Zn375   1.929   .     S
O366   Zn378   1.925   .     S
O367   Zn376   1.926   .     S
O368   Zn377   1.940   .     S
O369   Zn378   1.936   .     S
O370   Zn375   1.921   .     S
O371   Zn376   1.931   .     S
O372   Zn377   1.931   .     S
S374   O930    1.684   .     S
S374   C897    1.778   .     S
S374   O235    1.503   1_655 S
C379   O432    1.272   .     A
C379   C385    1.438   .     S
C379   O430    1.275   .     A
C380   C400    1.410   .     A
C380   C394    1.387   .     A
C380   H411    1.079   .     S
C381   C393    1.392   .     A
C381   H404    1.084   .     S
C381   C394    1.391   .     A
C382   O431    1.274   .     A
C382   C384    1.465   .     S
C382   O433    1.281   .     A
C383   C395    1.402   .     A
C383   C392    1.481   .     S
C383   C399    1.426   .     A
C384   C448    1.346   .     S
C384   C459    1.499   .     S
C385   C510    1.346   1_455 S
C385   H534    1.085   1_455 S
C386   C389    1.452   .     S
C386   C9      1.332   1_565 S
C386   H31     1.088   1_565 S
C387   C388    1.436   .     S
C388   O434    1.281   .     A
C388   O427    1.281   .     A
C389   O429    1.268   .     A
C389   O435    1.268   .     A
C390   C395    1.386   .     A
C390   C964    1.390   .     S
C390   H981    1.082   .     S
C391   O417    1.278   .     A
C391   C394    1.453   .     S
C391   O419    1.268   .     A
C392   O420    1.281   .     A
C392   O418    1.288   .     A
C393   C968    1.424   1_554 S
C393   S1004   1.778   1_554 S
C395   H412    1.083   .     S
C396   O428    1.221   .     D
C396   H407    1.085   .     S
C396   C510    1.499   1_455 S
C397   H413    1.078   .     S
C397   C957    1.390   1_554 S
C397   C965    1.417   1_554 S
C398   C399    1.417   .     A
C398   C964    1.417   .     S
C398   C967    1.425   .     S
C399   C403    1.407   .     A
C400   C965    1.425   1_554 S
C400   C968    1.432   1_554 S
C401   C402    1.412   .     A
C401   C960    1.424   .     S
C401   C967    1.432   .     S
C402   C403    1.387   .     A
C402   S436    1.777   .     S
C403   H415    1.077   .     S
H405   O423    0.991   .     S
H406   O552    0.991   1_455 S
H408   C448    1.085   .     S
H410   C9      1.086   1_565 S
H414   C957    1.082   1_554 S
O416   Zn439   1.954   .     S
O416   Zn438   1.959   .     S
O416   Zn441   1.934   .     S
O416   Zn440   1.922   .     S
O417   Zn439   1.927   .     S
O418   Zn441   1.942   .     S
O419   Zn440   1.943   .     S
O420   Zn438   1.929   .     S
O421   S436    1.502   .     D
O422   S436    1.503   .     D
O423   S436    1.683   .     S
O424   S563    1.503   1_455 S
O425   S437    1.502   .     D
O426   H469    0.991   .     S
O426   S1004   1.684   1_554 S
O427   Zn438   1.929   .     S
O429   Zn441   1.925   .     S
O430   Zn439   1.926   .     S
O431   Zn440   1.940   .     S
O432   Zn441   1.936   .     S
O433   Zn438   1.921   .     S
O434   Zn439   1.931   .     S
O435   Zn440   1.931   .     S
S437   O993    1.684   .     S
S437   C960    1.778   .     S
S437   O487    1.503   .     S
C442   O495    1.272   .     A
C442   C448    1.438   .     S
C442   O493    1.275   .     A
C443   C463    1.410   .     A
C443   C457    1.387   .     A
C443   H474    1.079   .     S
C444   C456    1.392   .     A
C444   H467    1.084   .     S
C444   C457    1.391   .     A
C445   O494    1.274   .     A
C445   C447    1.465   .     S
C445   O496    1.281   .     A
C446   C458    1.402   .     A
C446   C455    1.481   .     S
C446   C462    1.426   .     A
C447   C511    1.346   .     S
C447   C522    1.499   .     S
C449   C452    1.452   .     S
C449   C72     1.332   1_565 S
C449   H94     1.088   1_565 S
C450   C451    1.436   .     S
C451   O497    1.281   .     A
C451   O490    1.281   .     A
C452   O492    1.268   .     A
C452   O498    1.268   .     A
C453   C458    1.386   .     A
C453   C1027   1.390   .     S
C453   H1044   1.082   .     S
C454   O480    1.278   .     A
C454   C457    1.453   .     S
C454   O482    1.268   .     A
C455   O483    1.281   .     A
C455   O481    1.288   .     A
C456   C1031   1.424   1_554 S
C456   S1067   1.778   1_554 S
C458   H475    1.083   .     S
C459   O491    1.221   .     D
C459   H470    1.085   .     S
C460   H476    1.078   .     S
C460   C1020   1.390   1_554 S
C460   C1028   1.417   1_554 S
C461   C462    1.417   .     A
C461   C1027   1.417   .     S
C461   C1030   1.425   .     S
C462   C466    1.407   .     A
C463   C1028   1.425   1_554 S
C463   C1031   1.432   1_554 S
C464   C465    1.412   .     A
C464   C1023   1.424   .     S
C464   C1030   1.432   .     S
C465   C466    1.387   .     A
C465   S499    1.777   .     S
C466   H478    1.077   .     S
H468   O486    0.991   .     S
H471   C511    1.085   .     S
H473   C72     1.086   1_565 S
H477   C1020   1.082   1_554 S
O479   Zn502   1.954   .     S
O479   Zn501   1.959   .     S
O479   Zn504   1.934   .     S
O479   Zn503   1.922   .     S
O480   Zn502   1.927   .     S
O481   Zn504   1.942   .     S
O482   Zn503   1.943   .     S
O483   Zn501   1.929   .     S
O484   S499    1.502   .     D
O485   S499    1.503   .     D
O486   S499    1.683   .     S
O488   S500    1.502   .     D
O489   H532    0.991   .     S
O489   S1067   1.684   1_554 S
O490   Zn501   1.929   .     S
O492   Zn504   1.925   .     S
O493   Zn502   1.926   .     S
O494   Zn503   1.940   .     S
O495   Zn504   1.936   .     S
O496   Zn501   1.921   .     S
O497   Zn502   1.931   .     S
O498   Zn503   1.931   .     S
S500   O1056   1.684   .     S
S500   C1023   1.778   .     S
S500   O550    1.503   .     S
C505   O558    1.272   .     A
C505   C511    1.438   .     S
C505   O556    1.275   .     A
C506   C526    1.410   .     A
C506   C520    1.387   .     A
C506   H537    1.079   .     S
C507   C519    1.392   .     A
C507   H530    1.084   .     S
C507   C520    1.391   .     A
C508   O557    1.274   .     A
C508   C510    1.465   .     S
C508   O559    1.281   .     A
C509   C521    1.402   .     A
C509   C518    1.481   .     S
C509   C525    1.426   .     A
C510   C385    1.346   1_655 S
C510   C396    1.499   1_655 S
C512   C515    1.452   .     S
C512   C135    1.332   1_565 S
C512   H157    1.088   1_565 S
C513   C514    1.436   .     S
C514   O560    1.281   .     A
C514   O553    1.281   .     A
C515   O555    1.268   .     A
C515   O561    1.268   .     A
C516   C521    1.386   .     A
C516   C1090   1.390   .     S
C516   H1107   1.082   .     S
C517   O543    1.278   .     A
C517   C520    1.453   .     S
C517   O545    1.268   .     A
C518   O546    1.281   .     A
C518   O544    1.288   .     A
C519   C1094   1.424   1_554 S
C519   S1130   1.778   1_554 S
C521   H538    1.083   .     S
C522   O554    1.221   .     D
C522   H533    1.085   .     S
C523   H539    1.078   .     S
C523   C1083   1.390   1_554 S
C523   C1091   1.417   1_554 S
C524   C525    1.417   .     A
C524   C1090   1.417   .     S
C524   C1093   1.425   .     S
C525   C529    1.407   .     A
C526   C1091   1.425   1_554 S
C526   C1094   1.432   1_554 S
C527   C528    1.412   .     A
C527   C1086   1.424   .     S
C527   C1093   1.432   .     S
C528   C529    1.387   .     A
C528   S562    1.777   .     S
C529   H541    1.077   .     S
H531   O549    0.991   .     S
H534   C385    1.085   1_655 S
H536   C135    1.086   1_565 S
H540   C1083   1.082   1_554 S
O542   Zn565   1.954   .     S
O542   Zn564   1.959   .     S
O542   Zn567   1.934   .     S
O542   Zn566   1.922   .     S
O543   Zn565   1.927   .     S
O544   Zn567   1.942   .     S
O545   Zn566   1.943   .     S
O546   Zn564   1.929   .     S
O547   S562    1.502   .     D
O548   S562    1.503   .     D
O549   S562    1.683   .     S
O551   S563    1.502   .     D
O552   H406    0.991   1_655 S
O552   S1130   1.684   1_554 S
O553   Zn564   1.929   .     S
O555   Zn567   1.925   .     S
O556   Zn565   1.926   .     S
O557   Zn566   1.940   .     S
O558   Zn567   1.936   .     S
O559   Zn564   1.921   .     S
O560   Zn565   1.931   .     S
O561   Zn566   1.931   .     S
S563   O1119   1.684   .     S
S563   C1086   1.778   .     S
S563   O424    1.503   1_655 S
C568   O621    1.272   .     A
C568   C574    1.438   .     S
C568   O619    1.275   .     A
C569   C589    1.410   .     A
C569   C583    1.387   .     A
C569   H600    1.079   .     S
C570   C582    1.392   .     A
C570   H593    1.084   .     S
C570   C583    1.391   .     A
C571   O620    1.274   .     A
C571   C573    1.465   .     S
C571   O622    1.281   .     A
C572   C584    1.402   .     A
C572   C581    1.481   .     S
C572   C588    1.426   .     A
C573   C637    1.346   .     S
C573   C648    1.499   .     S
C574   C699    1.346   1_455 S
C574   H723    1.085   1_455 S
C575   C578    1.452   .     S
C575   C765    1.332   .     S
C575   H787    1.088   .     S
C576   C577    1.436   .     S
C576   C953    1.332   1_545 S
C576   H977    1.086   1_545 S
C577   O623    1.281   .     A
C577   O616    1.281   .     A
C578   O618    1.268   .     A
C578   O624    1.268   .     A
C579   C584    1.386   .     A
C579   C19     1.390   1_556 S
C579   H36     1.082   1_556 S
C580   O606    1.278   .     A
C580   C583    1.453   .     S
C580   O608    1.268   .     A
C581   O609    1.281   .     A
C581   O607    1.288   .     A
C584   H601    1.083   .     S
C585   O617    1.221   .     D
C585   H596    1.085   .     S
C585   C699    1.499   1_455 S
C586   H602    1.078   .     S
C587   C588    1.417   .     A
C587   C19     1.417   1_556 S
C587   C22     1.425   1_556 S
C588   C592    1.407   .     A
C590   C591    1.412   .     A
C590   C15     1.424   1_556 S
C590   C22     1.432   1_556 S
C591   C592    1.387   .     A
C591   S625    1.777   .     S
C592   H604    1.077   .     S
H594   O612    0.991   .     S
H595   O741    0.991   1_455 S
H597   C637    1.085   .     S
H598   C953    1.088   1_545 S
H599   C765    1.086   .     S
O605   Zn628   1.954   .     S
O605   Zn627   1.959   .     S
O605   Zn630   1.934   .     S
O605   Zn629   1.922   .     S
O606   Zn628   1.927   .     S
O607   Zn630   1.942   .     S
O608   Zn629   1.943   .     S
O609   Zn627   1.929   .     S
O610   S625    1.502   .     D
O611   S625    1.503   .     D
O612   S625    1.683   .     S
O613   S752    1.503   1_455 S
O614   S626    1.502   .     D
O615   H658    0.991   .     S
O616   Zn627   1.929   .     S
O618   Zn630   1.925   .     S
O619   Zn628   1.926   .     S
O620   Zn629   1.940   .     S
O621   Zn630   1.936   .     S
O622   Zn627   1.921   .     S
O623   Zn628   1.931   .     S
O624   Zn629   1.931   .     S
S626   O48     1.684   1_556 S
S626   C15     1.778   1_556 S
S626   O676    1.503   .     S
C631   O684    1.272   .     A
C631   C637    1.438   .     S
C631   O682    1.275   .     A
C632   C652    1.410   .     A
C632   C646    1.387   .     A
C632   H663    1.079   .     S
C633   C645    1.392   .     A
C633   H656    1.084   .     S
C633   C646    1.391   .     A
C634   O683    1.274   .     A
C634   C636    1.465   .     S
C634   O685    1.281   .     A
C635   C647    1.402   .     A
C635   C644    1.481   .     S
C635   C651    1.426   .     A
C636   C700    1.346   .     S
C636   C711    1.499   .     S
C638   C641    1.452   .     S
C638   C828    1.332   .     S
C638   H850    1.088   .     S
C639   C640    1.436   .     S
C639   C1016   1.332   1_545 S
C639   H1040   1.086   1_545 S
C640   O686    1.281   .     A
C640   O679    1.281   .     A
C641   O681    1.268   .     A
C641   O687    1.268   .     A
C642   C647    1.386   .     A
C642   C82     1.390   1_556 S
C642   H99     1.082   1_556 S
C643   O669    1.278   .     A
C643   C646    1.453   .     S
C643   O671    1.268   .     A
C644   O672    1.281   .     A
C644   O670    1.288   .     A
C647   H664    1.083   .     S
C648   O680    1.221   .     D
C648   H659    1.085   .     S
C649   H665    1.078   .     S
C650   C651    1.417   .     A
C650   C82     1.417   1_556 S
C650   C85     1.425   1_556 S
C651   C655    1.407   .     A
C653   C654    1.412   .     A
C653   C78     1.424   1_556 S
C653   C85     1.432   1_556 S
C654   C655    1.387   .     A
C654   S688    1.777   .     S
C655   H667    1.077   .     S
H657   O675    0.991   .     S
H660   C700    1.085   .     S
H661   C1016   1.088   1_545 S
H662   C828    1.086   .     S
O668   Zn691   1.954   .     S
O668   Zn690   1.959   .     S
O668   Zn693   1.934   .     S
O668   Zn692   1.922   .     S
O669   Zn691   1.927   .     S
O670   Zn693   1.942   .     S
O671   Zn692   1.943   .     S
O672   Zn690   1.929   .     S
O673   S688    1.502   .     D
O674   S688    1.503   .     D
O675   S688    1.683   .     S
O677   S689    1.502   .     D
O678   H721    0.991   .     S
O679   Zn690   1.929   .     S
O681   Zn693   1.925   .     S
O682   Zn691   1.926   .     S
O683   Zn692   1.940   .     S
O684   Zn693   1.936   .     S
O685   Zn690   1.921   .     S
O686   Zn691   1.931   .     S
O687   Zn692   1.931   .     S
S689   O111    1.684   1_556 S
S689   C78     1.778   1_556 S
S689   O739    1.503   .     S
C694   O747    1.272   .     A
C694   C700    1.438   .     S
C694   O745    1.275   .     A
C695   C715    1.410   .     A
C695   C709    1.387   .     A
C695   H726    1.079   .     S
C696   C708    1.392   .     A
C696   H719    1.084   .     S
C696   C709    1.391   .     A
C697   O746    1.274   .     A
C697   C699    1.465   .     S
C697   O748    1.281   .     A
C698   C710    1.402   .     A
C698   C707    1.481   .     S
C698   C714    1.426   .     A
C699   C574    1.346   1_655 S
C699   C585    1.499   1_655 S
C701   C704    1.452   .     S
C701   C891    1.332   .     S
C701   H913    1.088   .     S
C702   C703    1.436   .     S
C702   C1079   1.332   1_545 S
C702   H1103   1.086   1_545 S
C703   O749    1.281   .     A
C703   O742    1.281   .     A
C704   O744    1.268   .     A
C704   O750    1.268   .     A
C705   C710    1.386   .     A
C705   C145    1.390   1_556 S
C705   H162    1.082   1_556 S
C706   O732    1.278   .     A
C706   C709    1.453   .     S
C706   O734    1.268   .     A
C707   O735    1.281   .     A
C707   O733    1.288   .     A
C710   H727    1.083   .     S
C711   O743    1.221   .     D
C711   H722    1.085   .     S
C712   H728    1.078   .     S
C713   C714    1.417   .     A
C713   C145    1.417   1_556 S
C713   C148    1.425   1_556 S
C714   C718    1.407   .     A
C716   C717    1.412   .     A
C716   C141    1.424   1_556 S
C716   C148    1.432   1_556 S
C717   C718    1.387   .     A
C717   S751    1.777   .     S
C718   H730    1.077   .     S
H720   O738    0.991   .     S
H723   C574    1.085   1_655 S
H724   C1079   1.088   1_545 S
H725   C891    1.086   .     S
O731   Zn754   1.954   .     S
O731   Zn753   1.959   .     S
O731   Zn756   1.934   .     S
O731   Zn755   1.922   .     S
O732   Zn754   1.927   .     S
O733   Zn756   1.942   .     S
O734   Zn755   1.943   .     S
O735   Zn753   1.929   .     S
O736   S751    1.502   .     D
O737   S751    1.503   .     D
O738   S751    1.683   .     S
O740   S752    1.502   .     D
O741   H595    0.991   1_655 S
O742   Zn753   1.929   .     S
O744   Zn756   1.925   .     S
O745   Zn754   1.926   .     S
O746   Zn755   1.940   .     S
O747   Zn756   1.936   .     S
O748   Zn753   1.921   .     S
O749   Zn754   1.931   .     S
O750   Zn755   1.931   .     S
S752   O174    1.684   1_556 S
S752   C141    1.778   1_556 S
S752   O613    1.503   1_655 S
C757   O810    1.272   .     A
C757   C763    1.438   .     S
C757   O808    1.275   .     A
C758   C778    1.410   .     A
C758   C772    1.387   .     A
C758   H789    1.079   .     S
C759   C771    1.392   .     A
C759   H782    1.084   .     S
C759   C772    1.391   .     A
C760   O809    1.274   .     A
C760   C762    1.465   .     S
C760   O811    1.281   .     A
C761   C773    1.402   .     A
C761   C770    1.481   .     S
C761   C777    1.426   .     A
C762   C826    1.346   .     S
C762   C837    1.499   .     S
C763   C888    1.346   1_455 S
C763   H912    1.085   1_455 S
C764   C767    1.452   .     S
C764   C954    1.332   .     S
C764   H976    1.088   .     S
C765   C766    1.436   .     S
C766   O812    1.281   .     A
C766   O805    1.281   .     A
C767   O807    1.268   .     A
C767   O813    1.268   .     A
C768   C773    1.386   .     A
C768   C208    1.390   1_556 S
C768   H225    1.082   1_556 S
C769   O795    1.278   .     A
C769   C772    1.453   .     S
C769   O797    1.268   .     A
C770   O798    1.281   .     A
C770   O796    1.288   .     A
C773   H790    1.083   .     S
C774   O806    1.221   .     D
C774   H785    1.085   .     S
C774   C888    1.499   1_455 S
C775   H791    1.078   .     S
C776   C777    1.417   .     A
C776   C208    1.417   1_556 S
C776   C211    1.425   1_556 S
C777   C781    1.407   .     A
C779   C780    1.412   .     A
C779   C204    1.424   1_556 S
C779   C211    1.432   1_556 S
C780   C781    1.387   .     A
C780   S814    1.777   .     S
C781   H793    1.077   .     S
H783   O801    0.991   .     S
H784   O930    0.991   1_455 S
H786   C826    1.085   .     S
H788   C954    1.086   .     S
O794   Zn817   1.954   .     S
O794   Zn816   1.959   .     S
O794   Zn819   1.934   .     S
O794   Zn818   1.922   .     S
O795   Zn817   1.927   .     S
O796   Zn819   1.942   .     S
O797   Zn818   1.943   .     S
O798   Zn816   1.929   .     S
O799   S814    1.502   .     D
O800   S814    1.503   .     D
O801   S814    1.683   .     S
O802   S941    1.503   1_455 S
O803   S815    1.502   .     D
O804   H847    0.991   .     S
O805   Zn816   1.929   .     S
O807   Zn819   1.925   .     S
O808   Zn817   1.926   .     S
O809   Zn818   1.940   .     S
O810   Zn819   1.936   .     S
O811   Zn816   1.921   .     S
O812   Zn817   1.931   .     S
O813   Zn818   1.931   .     S
S815   O237    1.684   1_556 S
S815   C204    1.778   1_556 S
S815   O865    1.503   .     S
C820   O873    1.272   .     A
C820   C826    1.438   .     S
C820   O871    1.275   .     A
C821   C841    1.410   .     A
C821   C835    1.387   .     A
C821   H852    1.079   .     S
C822   C834    1.392   .     A
C822   H845    1.084   .     S
C822   C835    1.391   .     A
C823   O872    1.274   .     A
C823   C825    1.465   .     S
C823   O874    1.281   .     A
C824   C836    1.402   .     A
C824   C833    1.481   .     S
C824   C840    1.426   .     A
C825   C889    1.346   .     S
C825   C900    1.499   .     S
C827   C830    1.452   .     S
C827   C1017   1.332   .     S
C827   H1039   1.088   .     S
C828   C829    1.436   .     S
C829   O875    1.281   .     A
C829   O868    1.281   .     A
C830   O870    1.268   .     A
C830   O876    1.268   .     A
C831   C836    1.386   .     A
C831   C271    1.390   1_556 S
C831   H288    1.082   1_556 S
C832   O858    1.278   .     A
C832   C835    1.453   .     S
C832   O860    1.268   .     A
C833   O861    1.281   .     A
C833   O859    1.288   .     A
C836   H853    1.083   .     S
C837   O869    1.221   .     D
C837   H848    1.085   .     S
C838   H854    1.078   .     S
C839   C840    1.417   .     A
C839   C271    1.417   1_556 S
C839   C274    1.425   1_556 S
C840   C844    1.407   .     A
C842   C843    1.412   .     A
C842   C267    1.424   1_556 S
C842   C274    1.432   1_556 S
C843   C844    1.387   .     A
C843   S877    1.777   .     S
C844   H856    1.077   .     S
H846   O864    0.991   .     S
H849   C889    1.085   .     S
H851   C1017   1.086   .     S
O857   Zn880   1.954   .     S
O857   Zn879   1.959   .     S
O857   Zn882   1.934   .     S
O857   Zn881   1.922   .     S
O858   Zn880   1.927   .     S
O859   Zn882   1.942   .     S
O860   Zn881   1.943   .     S
O861   Zn879   1.929   .     S
O862   S877    1.502   .     D
O863   S877    1.503   .     D
O864   S877    1.683   .     S
O866   S878    1.502   .     D
O867   H910    0.991   .     S
O868   Zn879   1.929   .     S
O870   Zn882   1.925   .     S
O871   Zn880   1.926   .     S
O872   Zn881   1.940   .     S
O873   Zn882   1.936   .     S
O874   Zn879   1.921   .     S
O875   Zn880   1.931   .     S
O876   Zn881   1.931   .     S
S878   O300    1.684   1_556 S
S878   C267    1.778   1_556 S
S878   O928    1.503   .     S
C883   O936    1.272   .     A
C883   C889    1.438   .     S
C883   O934    1.275   .     A
C884   C904    1.410   .     A
C884   C898    1.387   .     A
C884   H915    1.079   .     S
C885   C897    1.392   .     A
C885   H908    1.084   .     S
C885   C898    1.391   .     A
C886   O935    1.274   .     A
C886   C888    1.465   .     S
C886   O937    1.281   .     A
C887   C899    1.402   .     A
C887   C896    1.481   .     S
C887   C903    1.426   .     A
C888   C763    1.346   1_655 S
C888   C774    1.499   1_655 S
C890   C893    1.452   .     S
C890   C1080   1.332   .     S
C890   H1102   1.088   .     S
C891   C892    1.436   .     S
C892   O938    1.281   .     A
C892   O931    1.281   .     A
C893   O933    1.268   .     A
C893   O939    1.268   .     A
C894   C899    1.386   .     A
C894   C334    1.390   1_556 S
C894   H351    1.082   1_556 S
C895   O921    1.278   .     A
C895   C898    1.453   .     S
C895   O923    1.268   .     A
C896   O924    1.281   .     A
C896   O922    1.288   .     A
C899   H916    1.083   .     S
C900   O932    1.221   .     D
C900   H911    1.085   .     S
C901   H917    1.078   .     S
C902   C903    1.417   .     A
C902   C334    1.417   1_556 S
C902   C337    1.425   1_556 S
C903   C907    1.407   .     A
C905   C906    1.412   .     A
C905   C330    1.424   1_556 S
C905   C337    1.432   1_556 S
C906   C907    1.387   .     A
C906   S940    1.777   .     S
C907   H919    1.077   .     S
H909   O927    0.991   .     S
H912   C763    1.085   1_655 S
H914   C1080   1.086   .     S
O920   Zn943   1.954   .     S
O920   Zn942   1.959   .     S
O920   Zn945   1.934   .     S
O920   Zn944   1.922   .     S
O921   Zn943   1.927   .     S
O922   Zn945   1.942   .     S
O923   Zn944   1.943   .     S
O924   Zn942   1.929   .     S
O925   S940    1.502   .     D
O926   S940    1.503   .     D
O927   S940    1.683   .     S
O929   S941    1.502   .     D
O930   H784    0.991   1_655 S
O931   Zn942   1.929   .     S
O933   Zn945   1.925   .     S
O934   Zn943   1.926   .     S
O935   Zn944   1.940   .     S
O936   Zn945   1.936   .     S
O937   Zn942   1.921   .     S
O938   Zn943   1.931   .     S
O939   Zn944   1.931   .     S
S941   O363    1.684   1_556 S
S941   C330    1.778   1_556 S
S941   O802    1.503   1_655 S
C946   O999    1.272   .     A
C946   C952    1.438   .     S
C946   O997    1.275   .     A
C947   C967    1.410   .     A
C947   C961    1.387   .     A
C947   H978    1.079   .     S
C948   C960    1.392   .     A
C948   H971    1.084   .     S
C948   C961    1.391   .     A
C949   O998    1.274   .     A
C949   C951    1.465   .     S
C949   O1000   1.281   .     A
C950   C962    1.402   .     A
C950   C959    1.481   .     S
C950   C966    1.426   .     A
C951   C1015   1.346   .     S
C951   C1026   1.499   .     S
C952   C1077   1.346   1_455 S
C952   H1101   1.085   1_455 S
C953   C956    1.452   .     S
C953   C576    1.332   1_565 S
C953   H598    1.088   1_565 S
C954   C955    1.436   .     S
C955   O1001   1.281   .     A
C955   O994    1.281   .     A
C956   O996    1.268   .     A
C956   O1002   1.268   .     A
C957   C962    1.386   .     A
C957   C397    1.390   1_556 S
C957   H414    1.082   1_556 S
C958   O984    1.278   .     A
C958   C961    1.453   .     S
C958   O986    1.268   .     A
C959   O987    1.281   .     A
C959   O985    1.288   .     A
C962   H979    1.083   .     S
C963   O995    1.221   .     D
C963   H974    1.085   .     S
C963   C1077   1.499   1_455 S
C964   H980    1.078   .     S
C965   C966    1.417   .     A
C965   C397    1.417   1_556 S
C965   C400    1.425   1_556 S
C966   C970    1.407   .     A
C968   C969    1.412   .     A
C968   C393    1.424   1_556 S
C968   C400    1.432   1_556 S
C969   C970    1.387   .     A
C969   S1003   1.777   .     S
C970   H982    1.077   .     S
H972   O990    0.991   .     S
H973   O1119   0.991   1_455 S
H975   C1015   1.085   .     S
H977   C576    1.086   1_565 S
O983   Zn1006  1.954   .     S
O983   Zn1005  1.959   .     S
O983   Zn1008  1.934   .     S
O983   Zn1007  1.922   .     S
O984   Zn1006  1.927   .     S
O985   Zn1008  1.942   .     S
O986   Zn1007  1.943   .     S
O987   Zn1005  1.929   .     S
O988   S1003   1.502   .     D
O989   S1003   1.503   .     D
O990   S1003   1.683   .     S
O991   S1130   1.503   1_455 S
O992   S1004   1.502   .     D
O993   H1036   0.991   .     S
O994   Zn1005  1.929   .     S
O996   Zn1008  1.925   .     S
O997   Zn1006  1.926   .     S
O998   Zn1007  1.940   .     S
O999   Zn1008  1.936   .     S
O1000  Zn1005  1.921   .     S
O1001  Zn1006  1.931   .     S
O1002  Zn1007  1.931   .     S
S1004  O426    1.684   1_556 S
S1004  C393    1.778   1_556 S
S1004  O1054   1.503   .     S
C1009  O1062   1.272   .     A
C1009  C1015   1.438   .     S
C1009  O1060   1.275   .     A
C1010  C1030   1.410   .     A
C1010  C1024   1.387   .     A
C1010  H1041   1.079   .     S
C1011  C1023   1.392   .     A
C1011  H1034   1.084   .     S
C1011  C1024   1.391   .     A
C1012  O1061   1.274   .     A
C1012  C1014   1.465   .     S
C1012  O1063   1.281   .     A
C1013  C1025   1.402   .     A
C1013  C1022   1.481   .     S
C1013  C1029   1.426   .     A
C1014  C1078   1.346   .     S
C1014  C1089   1.499   .     S
C1016  C1019   1.452   .     S
C1016  C639    1.332   1_565 S
C1016  H661    1.088   1_565 S
C1017  C1018   1.436   .     S
C1018  O1064   1.281   .     A
C1018  O1057   1.281   .     A
C1019  O1059   1.268   .     A
C1019  O1065   1.268   .     A
C1020  C1025   1.386   .     A
C1020  C460    1.390   1_556 S
C1020  H477    1.082   1_556 S
C1021  O1047   1.278   .     A
C1021  C1024   1.453   .     S
C1021  O1049   1.268   .     A
C1022  O1050   1.281   .     A
C1022  O1048   1.288   .     A
C1025  H1042   1.083   .     S
C1026  O1058   1.221   .     D
C1026  H1037   1.085   .     S
C1027  H1043   1.078   .     S
C1028  C1029   1.417   .     A
C1028  C460    1.417   1_556 S
C1028  C463    1.425   1_556 S
C1029  C1033   1.407   .     A
C1031  C1032   1.412   .     A
C1031  C456    1.424   1_556 S
C1031  C463    1.432   1_556 S
C1032  C1033   1.387   .     A
C1032  S1066   1.777   .     S
C1033  H1045   1.077   .     S
H1035  O1053   0.991   .     S
H1038  C1078   1.085   .     S
H1040  C639    1.086   1_565 S
O1046  Zn1069  1.954   .     S
O1046  Zn1068  1.959   .     S
O1046  Zn1071  1.934   .     S
O1046  Zn1070  1.922   .     S
O1047  Zn1069  1.927   .     S
O1048  Zn1071  1.942   .     S
O1049  Zn1070  1.943   .     S
O1050  Zn1068  1.929   .     S
O1051  S1066   1.502   .     D
O1052  S1066   1.503   .     D
O1053  S1066   1.683   .     S
O1055  S1067   1.502   .     D
O1056  H1099   0.991   .     S
O1057  Zn1068  1.929   .     S
O1059  Zn1071  1.925   .     S
O1060  Zn1069  1.926   .     S
O1061  Zn1070  1.940   .     S
O1062  Zn1071  1.936   .     S
O1063  Zn1068  1.921   .     S
O1064  Zn1069  1.931   .     S
O1065  Zn1070  1.931   .     S
S1067  O489    1.684   1_556 S
S1067  C456    1.778   1_556 S
S1067  O1117   1.503   .     S
C1072  O1125   1.272   .     A
C1072  C1078   1.438   .     S
C1072  O1123   1.275   .     A
C1073  C1093   1.410   .     A
C1073  C1087   1.387   .     A
C1073  H1104   1.079   .     S
C1074  C1086   1.392   .     A
C1074  H1097   1.084   .     S
C1074  C1087   1.391   .     A
C1075  O1124   1.274   .     A
C1075  C1077   1.465   .     S
C1075  O1126   1.281   .     A
C1076  C1088   1.402   .     A
C1076  C1085   1.481   .     S
C1076  C1092   1.426   .     A
C1077  C952    1.346   1_655 S
C1077  C963    1.499   1_655 S
C1079  C1082   1.452   .     S
C1079  C702    1.332   1_565 S
C1079  H724    1.088   1_565 S
C1080  C1081   1.436   .     S
C1081  O1127   1.281   .     A
C1081  O1120   1.281   .     A
C1082  O1122   1.268   .     A
C1082  O1128   1.268   .     A
C1083  C1088   1.386   .     A
C1083  C523    1.390   1_556 S
C1083  H540    1.082   1_556 S
C1084  O1110   1.278   .     A
C1084  C1087   1.453   .     S
C1084  O1112   1.268   .     A
C1085  O1113   1.281   .     A
C1085  O1111   1.288   .     A
C1088  H1105   1.083   .     S
C1089  O1121   1.221   .     D
C1089  H1100   1.085   .     S
C1090  H1106   1.078   .     S
C1091  C1092   1.417   .     A
C1091  C523    1.417   1_556 S
C1091  C526    1.425   1_556 S
C1092  C1096   1.407   .     A
C1094  C1095   1.412   .     A
C1094  C519    1.424   1_556 S
C1094  C526    1.432   1_556 S
C1095  C1096   1.387   .     A
C1095  S1129   1.777   .     S
C1096  H1108   1.077   .     S
H1098  O1116   0.991   .     S
H1101  C952    1.085   1_655 S
H1103  C702    1.086   1_565 S
O1109  Zn1132  1.954   .     S
O1109  Zn1131  1.959   .     S
O1109  Zn1134  1.934   .     S
O1109  Zn1133  1.922   .     S
O1110  Zn1132  1.927   .     S
O1111  Zn1134  1.942   .     S
O1112  Zn1133  1.943   .     S
O1113  Zn1131  1.929   .     S
O1114  S1129   1.502   .     D
O1115  S1129   1.503   .     D
O1116  S1129   1.683   .     S
O1118  S1130   1.502   .     D
O1119  H973    0.991   1_655 S
O1120  Zn1131  1.929   .     S
O1122  Zn1134  1.925   .     S
O1123  Zn1132  1.926   .     S
O1124  Zn1133  1.940   .     S
O1125  Zn1134  1.936   .     S
O1126  Zn1131  1.921   .     S
O1127  Zn1132  1.931   .     S
O1128  Zn1133  1.931   .     S
S1130  O552    1.684   1_556 S
S1130  C519    1.778   1_556 S
S1130  O991    1.503   1_655 S
