data_str_m1_o1_o2_pcu_sym.53
_audit_creation_date              2020-01-03
_audit_creation_method            'Materials Studio'
_symmetry_space_group_name_H-M    'P1'
_symmetry_Int_Tables_number       1
_symmetry_cell_setting            triclinic
loop_
_symmetry_equiv_pos_as_xyz
  x,y,z
_cell_length_a                    36.6797
_cell_length_b                    36.6808
_cell_length_c                    34.4940
_cell_angle_alpha                 90.0053
_cell_angle_beta                  90.0028
_cell_angle_gamma                 90.0055
loop_
_atom_site_label
_atom_site_type_symbol
_atom_site_fract_x
_atom_site_fract_y
_atom_site_fract_z
_atom_site_U_iso_or_equiv
_atom_site_adp_type
_atom_site_occupancy
C1     C     0.22100   0.01530   0.04164   0.00000  Uiso   1.00
C2     C     0.02845   0.26750   0.45850   0.00000  Uiso   1.00
C3     C     0.34814   0.40186   0.75000   0.00000  Uiso   1.00
C4     C     0.40186   0.15186   0.25000   0.00000  Uiso   1.00
C5     C     0.09814   0.34814   0.75000   0.00000  Uiso   1.00
C6     C     0.34814   0.40186   0.25000   0.00000  Uiso   1.00
C7     C     0.15186   0.09814   0.75000   0.00000  Uiso   1.00
C8     C     0.09814   0.15186   0.75000   0.00000  Uiso   1.00
C9     C     0.40186   0.34814   0.25000   0.00000  Uiso   1.00
C10    C     0.15186   0.40186   0.75000   0.00000  Uiso   1.00
C11    C     0.34814   0.09814   0.25000   0.00000  Uiso   1.00
C12    C     0.40186   0.34814   0.75000   0.00000  Uiso   1.00
C13    C     0.23541   0.47065   0.54156   0.00000  Uiso   1.00
C14    C     0.09814   0.15186   0.25000   0.00000  Uiso   1.00
C15    C     0.34814   0.09814   0.75000   0.00000  Uiso   1.00
C16    C     0.15186   0.40186   0.25000   0.00000  Uiso   1.00
C17    C     0.24998   0.49950   0.10248   0.00000  Uiso   1.00
C18    C     0.25003   0.49964   0.89753   0.00000  Uiso   1.00
C19    C     0.00036   0.24997   0.10247   0.00000  Uiso   1.00
C20    C     0.00050   0.25002   0.89752   0.00000  Uiso   1.00
C21    C     0.49999   0.24977   0.60244   0.00000  Uiso   1.00
C22    C    -0.00000   0.25007   0.39757   0.00000  Uiso   1.00
C23    C     0.25050   0.49998   0.60247   0.00000  Uiso   1.00
C24    C     0.23526   0.02920   0.45840   0.00000  Uiso   1.00
C25    C     0.25063   0.00005   0.39752   0.00000  Uiso   1.00
C26    C     0.19843   0.06719   0.01471   0.00000  Uiso   1.00
C27    C     0.16393   0.08489   0.99912   0.00000  Uiso   1.00
C28    C     0.30369   0.06600   0.98503   0.00000  Uiso   1.00
C29    C     0.33881   0.08273   0.00033   0.00000  Uiso   1.00
C30    C     0.43399   0.19631   0.01497   0.00000  Uiso   1.00
C31    C     0.41727   0.16120   0.99967   0.00000  Uiso   1.00
C32    C     0.43281   0.30157   0.98529   0.00000  Uiso   1.00
C33    C     0.41511   0.33607   0.00088   0.00000  Uiso   1.00
C34    C     0.30797   0.42730   0.03118   0.00000  Uiso   1.00
C35    C     0.02823   0.23182   0.54158   0.00000  Uiso   1.00
C36    C     0.32952   0.40728   0.00010   0.00000  Uiso   1.00
C37    C     0.19821   0.42831   0.97810   0.00000  Uiso   1.00
C38    C     0.16891   0.41049   0.00289   0.00000  Uiso   1.00
C39    C     0.07169   0.30177   0.02187   0.00000  Uiso   1.00
C40    C     0.08951   0.33108   0.99710   0.00000  Uiso   1.00
C41    C     0.07270   0.19202   0.96880   0.00000  Uiso   1.00
C42    C     0.09273   0.17048   0.99988   0.00000  Uiso   1.00
C43    C     0.45115   0.32203   0.52053   0.00000  Uiso   1.00
C44    C     0.42288   0.34054   0.49499   0.00000  Uiso   1.00
C45    C     0.05989   0.32099   0.46853   0.00000  Uiso   1.00
C46    C     0.47169   0.23264   0.45830   0.00000  Uiso   1.00
C47    C     0.07947   0.34140   0.50077   0.00000  Uiso   1.00
C48    C     0.18407   0.44719   0.51427   0.00000  Uiso   1.00
C49    C     0.16699   0.41233   0.49880   0.00000  Uiso   1.00
C50    C     0.18356   0.05224   0.48530   0.00000  Uiso   1.00
C51    C     0.16618   0.08692   0.50086   0.00000  Uiso   1.00
C52    C     0.05869   0.17787   0.53137   0.00000  Uiso   1.00
C53    C     0.07857   0.15740   0.49938   0.00000  Uiso   1.00
C54    C     0.44985   0.17801   0.47861   0.00000  Uiso   1.00
C55    C     0.42120   0.15975   0.50388   0.00000  Uiso   1.00
C56    C     0.32243   0.05120   0.52197   0.00000  Uiso   1.00
C57    C     0.26797   0.02875   0.54200   0.00000  Uiso   1.00
C58    C     0.34055   0.08053   0.49747   0.00000  Uiso   1.00
C59    C     0.32267   0.44149   0.46851   0.00000  Uiso   1.00
C60    C     0.34266   0.41977   0.49947   0.00000  Uiso   1.00
C61    C     0.26865   0.47151   0.45811   0.00000  Uiso   1.00
C62    C     0.22075   0.01467   0.08204   0.00000  Uiso   1.00
C63    C     0.27962   0.01418   0.91795   0.00000  Uiso   1.00
C64    C     0.48582   0.22038   0.08205   0.00000  Uiso   1.00
C65    C     0.27951   0.01470   0.95838   0.00000  Uiso   1.00
C66    C     0.48532   0.27924   0.91796   0.00000  Uiso   1.00
C67    C     0.27898   0.48347   0.08241   0.00000  Uiso   1.00
C68    C     0.22069   0.48429   0.91767   0.00000  Uiso   1.00
C69    C     0.01571   0.27931   0.08233   0.00000  Uiso   1.00
C70    C     0.01653   0.22102   0.91759   0.00000  Uiso   1.00
C71    C     0.47133   0.26614   0.58210   0.00000  Uiso   1.00
C72    C     0.02884   0.26624   0.41786   0.00000  Uiso   1.00
C73    C     0.23581   0.47051   0.58199   0.00000  Uiso   1.00
C74    C     0.23574   0.02940   0.41800   0.00000  Uiso   1.00
C75    C     0.02865   0.23322   0.58221   0.00000  Uiso   1.00
C76    C     0.48530   0.22049   0.04162   0.00000  Uiso   1.00
C77    C     0.47118   0.23392   0.41786   0.00000  Uiso   1.00
C78    C     0.26613   0.02922   0.58240   0.00000  Uiso   1.00
C79    C     0.26657   0.47097   0.41757   0.00000  Uiso   1.00
C80    C     0.24993   0.49854   0.02135   0.00000  Uiso   1.00
C81    C     0.25023   0.49858   0.97869   0.00000  Uiso   1.00
C82    C     0.00142   0.24977   0.02131   0.00000  Uiso   1.00
C83    C     0.00146   0.25007   0.97865   0.00000  Uiso   1.00
C84    C     0.00011   0.24969   0.52133   0.00000  Uiso   1.00
C85    C     0.00014   0.24985   0.47869   0.00000  Uiso   1.00
C86    C     0.25180   0.49982   0.52132   0.00000  Uiso   1.00
C87    C     0.48470   0.27900   0.95836   0.00000  Uiso   1.00
C88    C     0.25189   0.00017   0.47865   0.00000  Uiso   1.00
C89    C     0.25004   0.00000   0.35519   0.00000  Uiso   1.00
C90    C     0.25003  -0.00000   0.64481   0.00000  Uiso   1.00
C91    C     0.00000   0.25001   0.35521   0.00000  Uiso   1.00
C92    C    -0.00000   0.24997   0.64480   0.00000  Uiso   1.00
C93    C     0.00002   0.25000   0.85519   0.00000  Uiso   1.00
C94    C     0.00001   0.25000   0.14481   0.00000  Uiso   1.00
C95    C     0.25000   0.49999   0.85519   0.00000  Uiso   1.00
C96    C     0.25000   0.49997   0.14481   0.00000  Uiso   1.00
C97    C     0.17992   0.07008   0.25000   0.00000  Uiso   1.00
C98    C     0.27847   0.48153   0.04186   0.00000  Uiso   1.00
C99    C     0.32008   0.42992   0.75000   0.00000  Uiso   1.00
C100   C     0.42992   0.17992   0.25000   0.00000  Uiso   1.00
C101   C     0.07008   0.32008   0.75000   0.00000  Uiso   1.00
C102   C     0.32008   0.42992   0.25000   0.00000  Uiso   1.00
C103   C     0.17992   0.07008   0.75000   0.00000  Uiso   1.00
C104   C     0.07008   0.32008   0.25000   0.00000  Uiso   1.00
C105   C     0.42992   0.17992   0.75000   0.00000  Uiso   1.00
C106   C     0.17992   0.42992   0.75000   0.00000  Uiso   1.00
C107   C     0.32008   0.07008   0.25000   0.00000  Uiso   1.00
C108   C     0.42992   0.32008   0.75000   0.00000  Uiso   1.00
C109   C     0.22116   0.48257   0.95808   0.00000  Uiso   1.00
C110   C     0.07008   0.17992   0.25000   0.00000  Uiso   1.00
C111   C     0.32008   0.07008   0.75000   0.00000  Uiso   1.00
C112   C     0.17992   0.42992   0.25000   0.00000  Uiso   1.00
C113   C     0.07008   0.17992   0.75000   0.00000  Uiso   1.00
C114   C     0.42992   0.32008   0.25000   0.00000  Uiso   1.00
C115   C     0.12194   0.40477   0.22490   0.00000  Uiso   1.00
C116   C     0.37807   0.09521   0.77507   0.00000  Uiso   1.00
C117   C     0.09520   0.12192   0.22494   0.00000  Uiso   1.00
C118   C     0.40480   0.37808   0.77507   0.00000  Uiso   1.00
C119   C     0.37807   0.09520   0.22493   0.00000  Uiso   1.00
C120   C     0.01743   0.27884   0.04192   0.00000  Uiso   1.00
C121   C     0.12193   0.40479   0.77508   0.00000  Uiso   1.00
C122   C     0.40476   0.37804   0.22489   0.00000  Uiso   1.00
C123   C     0.09523   0.12196   0.77511   0.00000  Uiso   1.00
C124   C     0.12195   0.09523   0.77511   0.00000  Uiso   1.00
C125   C     0.37804   0.40476   0.22488   0.00000  Uiso   1.00
C126   C     0.09521   0.37807   0.77508   0.00000  Uiso   1.00
C127   C     0.40479   0.12193   0.22493   0.00000  Uiso   1.00
C128   C     0.37808   0.40480   0.77507   0.00000  Uiso   1.00
C129   C     0.12192   0.09520   0.22494   0.00000  Uiso   1.00
C130   C     0.40479   0.12193   0.77507   0.00000  Uiso   1.00
C131   C     0.01847   0.22153   0.95814   0.00000  Uiso   1.00
C132   C     0.09522   0.37805   0.22490   0.00000  Uiso   1.00
C133   C     0.37193   0.15479   0.72492   0.00000  Uiso   1.00
C134   C     0.12805   0.34523   0.27510   0.00000  Uiso   1.00
C135   C     0.34520   0.37192   0.72493   0.00000  Uiso   1.00
C136   C     0.15480   0.12808   0.27506   0.00000  Uiso   1.00
C137   C     0.12807   0.34520   0.72493   0.00000  Uiso   1.00
C138   C     0.37193   0.15479   0.27508   0.00000  Uiso   1.00
C139   C     0.15477   0.12804   0.72489   0.00000  Uiso   1.00
C140   C     0.34524   0.37196   0.27512   0.00000  Uiso   1.00
C141   C     0.37196   0.34524   0.27512   0.00000  Uiso   1.00
C142   C     0.47184   0.26726   0.54166   0.00000  Uiso   1.00
C143   C     0.12804   0.15477   0.72489   0.00000  Uiso   1.00
C144   C     0.34521   0.12807   0.27508   0.00000  Uiso   1.00
C145   C     0.15479   0.37193   0.72493   0.00000  Uiso   1.00
C146   C     0.12808   0.15480   0.27506   0.00000  Uiso   1.00
C147   C     0.37192   0.34520   0.72493   0.00000  Uiso   1.00
C148   C     0.15478   0.37195   0.27510   0.00000  Uiso   1.00
C149   C     0.34521   0.12806   0.72492   0.00000  Uiso   1.00
C150   C     0.09814   0.34814   0.25000   0.00000  Uiso   1.00
C151   C     0.40186   0.15186   0.75000   0.00000  Uiso   1.00
C152   C     0.15186   0.09814   0.25000   0.00000  Uiso   1.00
H153   H     0.11915   0.42765   0.20527   0.00000  Uiso   1.00
H154   H     0.38082   0.42763   0.20524   0.00000  Uiso   1.00
H155   H     0.18115   0.46856   0.49164   0.00000  Uiso   1.00
H156   H     0.16897   0.39036   0.52086   0.00000  Uiso   1.00
H157   H     0.13781   0.41715   0.49194   0.00000  Uiso   1.00
H158   H     0.18128   0.40353   0.47199   0.00000  Uiso   1.00
H159   H     0.16860   0.04405   0.45853   0.00000  Uiso   1.00
H160   H     0.18056   0.03071   0.50775   0.00000  Uiso   1.00
H161   H     0.16825   0.10904   0.47899   0.00000  Uiso   1.00
H162   H     0.13696   0.08192   0.50738   0.00000  Uiso   1.00
H163   H     0.18018   0.09561   0.52788   0.00000  Uiso   1.00
H164   H     0.07463   0.17492   0.55860   0.00000  Uiso   1.00
H165   H     0.07232   0.38087   0.79469   0.00000  Uiso   1.00
H166   H     0.03137   0.16495   0.53516   0.00000  Uiso   1.00
H167   H     0.08085   0.12811   0.50715   0.00000  Uiso   1.00
H168   H     0.06325   0.15986   0.47172   0.00000  Uiso   1.00
H169   H     0.10637   0.16880   0.49544   0.00000  Uiso   1.00
H170   H     0.44785   0.16642   0.44885   0.00000  Uiso   1.00
H171   H     0.47720   0.17162   0.49098   0.00000  Uiso   1.00
H172   H     0.39355   0.16504   0.49203   0.00000  Uiso   1.00
H173   H     0.42595   0.12985   0.50457   0.00000  Uiso   1.00
H174   H     0.42279   0.17056   0.53392   0.00000  Uiso   1.00
H175   H     0.33399   0.05258   0.55179   0.00000  Uiso   1.00
H176   H     0.42768   0.11913   0.20531   0.00000  Uiso   1.00
H177   H     0.32899   0.02419   0.50890   0.00000  Uiso   1.00
H178   H     0.33507   0.10787   0.51004   0.00000  Uiso   1.00
H179   H     0.37047   0.07599   0.49670   0.00000  Uiso   1.00
H180   H     0.32976   0.07957   0.46739   0.00000  Uiso   1.00
H181   H     0.32625   0.42730   0.44028   0.00000  Uiso   1.00
H182   H     0.33546   0.46906   0.46692   0.00000  Uiso   1.00
H183   H     0.33128   0.39177   0.50129   0.00000  Uiso   1.00
H184   H     0.37208   0.41800   0.49211   0.00000  Uiso   1.00
H185   H     0.33969   0.43339   0.52806   0.00000  Uiso   1.00
H186   H     0.38089   0.42770   0.79467   0.00000  Uiso   1.00
H187   H     0.11911   0.07230   0.20533   0.00000  Uiso   1.00
H188   H     0.42768   0.11914   0.79469   0.00000  Uiso   1.00
H189   H     0.07234   0.38083   0.20527   0.00000  Uiso   1.00
H190   H     0.36913   0.17767   0.70531   0.00000  Uiso   1.00
H191   H     0.13084   0.32235   0.29474   0.00000  Uiso   1.00
H192   H     0.32231   0.36912   0.70532   0.00000  Uiso   1.00
H193   H     0.38087   0.07232   0.79469   0.00000  Uiso   1.00
H194   H     0.17770   0.13089   0.29467   0.00000  Uiso   1.00
H195   H     0.13087   0.32231   0.70532   0.00000  Uiso   1.00
H196   H     0.36914   0.17768   0.29469   0.00000  Uiso   1.00
H197   H     0.17764   0.13082   0.70525   0.00000  Uiso   1.00
H198   H     0.32237   0.36919   0.29476   0.00000  Uiso   1.00
H199   H     0.36918   0.32237   0.29476   0.00000  Uiso   1.00
H200   H     0.13082   0.17763   0.70524   0.00000  Uiso   1.00
H201   H     0.32232   0.13087   0.29469   0.00000  Uiso   1.00
H202   H     0.17768   0.36913   0.70532   0.00000  Uiso   1.00
H203   H     0.13089   0.17770   0.29467   0.00000  Uiso   1.00
H204   H     0.07230   0.11911   0.20533   0.00000  Uiso   1.00
H205   H     0.36912   0.32231   0.70532   0.00000  Uiso   1.00
H206   H     0.17765   0.36917   0.29473   0.00000  Uiso   1.00
H207   H     0.32232   0.13086   0.70530   0.00000  Uiso   1.00
H208   H     0.19804   0.02688   0.09737   0.00000  Uiso   1.00
H209   H     0.30259   0.02586   0.90260   0.00000  Uiso   1.00
H210   H     0.47414   0.19741   0.09740   0.00000  Uiso   1.00
H211   H     0.47312   0.30196   0.90263   0.00000  Uiso   1.00
H212   H     0.30166   0.47183   0.09824   0.00000  Uiso   1.00
H213   H     0.19781   0.47269   0.90209   0.00000  Uiso   1.00
H214   H     0.02731   0.30219   0.09791   0.00000  Uiso   1.00
H215   H     0.42769   0.38088   0.79467   0.00000  Uiso   1.00
H216   H     0.02817   0.19834   0.90176   0.00000  Uiso   1.00
H217   H     0.44906   0.27901   0.59753   0.00000  Uiso   1.00
H218   H     0.05132   0.27833   0.40210   0.00000  Uiso   1.00
H219   H     0.22391   0.44762   0.59730   0.00000  Uiso   1.00
H220   H     0.22364   0.05218   0.40269   0.00000  Uiso   1.00
H221   H     0.05100   0.22094   0.59801   0.00000  Uiso   1.00
H222   H     0.44874   0.22138   0.40238   0.00000  Uiso   1.00
H223   H     0.27786   0.05200   0.59804   0.00000  Uiso   1.00
H224   H     0.27799   0.44819   0.40172   0.00000  Uiso   1.00
H225   H     0.20676   0.08211   0.04147   0.00000  Uiso   1.00
H226   H     0.38087   0.07231   0.20531   0.00000  Uiso   1.00
H227   H     0.22000   0.06996   0.99227   0.00000  Uiso   1.00
H228   H     0.14179   0.08308   0.02100   0.00000  Uiso   1.00
H229   H     0.16922   0.11404   0.99255   0.00000  Uiso   1.00
H230   H     0.15510   0.07092   0.97213   0.00000  Uiso   1.00
H231   H     0.29571   0.08101   0.95821   0.00000  Uiso   1.00
H232   H     0.28231   0.06957   0.00755   0.00000  Uiso   1.00
H233   H     0.36080   0.08000   0.97839   0.00000  Uiso   1.00
H234   H     0.33450   0.11211   0.00662   0.00000  Uiso   1.00
H235   H     0.34727   0.06873   0.02742   0.00000  Uiso   1.00
H236   H     0.41899   0.20429   0.04179   0.00000  Uiso   1.00
H237   H     0.11914   0.42768   0.79469   0.00000  Uiso   1.00
H238   H     0.43043   0.21769   0.99245   0.00000  Uiso   1.00
H239   H     0.42000   0.13920   0.02161   0.00000  Uiso   1.00
H240   H     0.38789   0.16550   0.99338   0.00000  Uiso   1.00
H241   H     0.43127   0.15273   0.97258   0.00000  Uiso   1.00
H242   H     0.41789   0.29324   0.95853   0.00000  Uiso   1.00
H243   H     0.43004   0.28000   0.00773   0.00000  Uiso   1.00
H244   H     0.41692   0.35821   0.97900   0.00000  Uiso   1.00
H245   H     0.38595   0.33078   0.00746   0.00000  Uiso   1.00
H246   H     0.42907   0.34490   0.02787   0.00000  Uiso   1.00
H247   H     0.32207   0.42338   0.05940   0.00000  Uiso   1.00
H248   H     0.42763   0.38082   0.20524   0.00000  Uiso   1.00
H249   H     0.28027   0.41479   0.03262   0.00000  Uiso   1.00
H250   H     0.35770   0.41828   0.99851   0.00000  Uiso   1.00
H251   H     0.33084   0.37778   0.00717   0.00000  Uiso   1.00
H252   H     0.31606   0.41070   0.97149   0.00000  Uiso   1.00
H253   H     0.19643   0.41679   0.94829   0.00000  Uiso   1.00
H254   H     0.22527   0.42144   0.99088   0.00000  Uiso   1.00
H255   H     0.14152   0.41624   0.99059   0.00000  Uiso   1.00
H256   H     0.17317   0.38053   0.00363   0.00000  Uiso   1.00
H257   H     0.17024   0.42127   0.03296   0.00000  Uiso   1.00
H258   H     0.08322   0.30353   0.05169   0.00000  Uiso   1.00
H259   H     0.07236   0.11918   0.79476   0.00000  Uiso   1.00
H260   H     0.07854   0.27472   0.00908   0.00000  Uiso   1.00
H261   H     0.08377   0.35846   0.00942   0.00000  Uiso   1.00
H262   H     0.11947   0.32681   0.99634   0.00000  Uiso   1.00
H263   H     0.07872   0.32977   0.96704   0.00000  Uiso   1.00
H264   H     0.07660   0.17790   0.94059   0.00000  Uiso   1.00
H265   H     0.08521   0.21971   0.96733   0.00000  Uiso   1.00
H266   H     0.08172   0.14231   0.00151   0.00000  Uiso   1.00
H267   H     0.12223   0.16916   0.99281   0.00000  Uiso   1.00
H268   H     0.08932   0.18397   0.02849   0.00000  Uiso   1.00
H269   H     0.44955   0.33417   0.55008   0.00000  Uiso   1.00
H270   H     0.11917   0.07237   0.79475   0.00000  Uiso   1.00
H271   H     0.47860   0.32757   0.50795   0.00000  Uiso   1.00
H272   H     0.39515   0.33623   0.50710   0.00000  Uiso   1.00
H273   H     0.42844   0.37027   0.49361   0.00000  Uiso   1.00
H274   H     0.42403   0.32910   0.46520   0.00000  Uiso   1.00
H275   H     0.07643   0.32342   0.44165   0.00000  Uiso   1.00
H276   H     0.03289   0.33434   0.46398   0.00000  Uiso   1.00
H277   H     0.10699   0.32957   0.50546   0.00000  Uiso   1.00
H278   H     0.08240   0.37057   0.49278   0.00000  Uiso   1.00
H279   H     0.06356   0.33942   0.52810   0.00000  Uiso   1.00
H280   H     0.16884   0.45547   0.54084   0.00000  Uiso   1.00
O281   O     0.25000  -0.00000   0.25000   0.00000  Uiso   1.00
O282   O     0.25000   0.46964   0.66317   0.00000  Uiso   1.00
O283   O     0.46964   0.25000   0.33683   0.00000  Uiso   1.00
O284   O     0.03036   0.25000   0.66317   0.00000  Uiso   1.00
O285   O    -0.00000   0.21964   0.83683   0.00000  Uiso   1.00
O286   O     0.00000   0.28036   0.16317   0.00000  Uiso   1.00
O287   O     0.28036  -0.00000   0.83683   0.00000  Uiso   1.00
O288   O     0.21964  -0.00000   0.16317   0.00000  Uiso   1.00
O289   O    -0.00000   0.28036   0.83683   0.00000  Uiso   1.00
O290   O     0.00000   0.21964   0.16317   0.00000  Uiso   1.00
O291   O     0.21964  -0.00000   0.83683   0.00000  Uiso   1.00
O292   O     0.25000  -0.00000   0.75000   0.00000  Uiso   1.00
O293   O     0.28036  -0.00000   0.16317   0.00000  Uiso   1.00
O294   O     0.20725   0.07307   0.27282   0.00000  Uiso   1.00
O295   O     0.29274   0.42693   0.72718   0.00000  Uiso   1.00
O296   O     0.42693   0.20725   0.27282   0.00000  Uiso   1.00
O297   O     0.07307   0.29274   0.72718   0.00000  Uiso   1.00
O298   O     0.29274   0.42693   0.27282   0.00000  Uiso   1.00
O299   O     0.20725   0.07307   0.72718   0.00000  Uiso   1.00
O300   O     0.07307   0.29274   0.27282   0.00000  Uiso   1.00
O301   O     0.42693   0.20725   0.72718   0.00000  Uiso   1.00
O302   O     0.20725   0.42693   0.72718   0.00000  Uiso   1.00
O303   O     0.00000   0.25000   0.25000   0.00000  Uiso   1.00
O304   O     0.29274   0.07307   0.27282   0.00000  Uiso   1.00
O305   O     0.42693   0.29274   0.72718   0.00000  Uiso   1.00
O306   O     0.07307   0.20725   0.27282   0.00000  Uiso   1.00
O307   O     0.29274   0.07307   0.72718   0.00000  Uiso   1.00
O308   O     0.20725   0.42693   0.27282   0.00000  Uiso   1.00
O309   O     0.07307   0.20725   0.72718   0.00000  Uiso   1.00
O310   O     0.42693   0.29274   0.27282   0.00000  Uiso   1.00
O311   O     0.45725   0.32307   0.77282   0.00000  Uiso   1.00
O312   O     0.04274   0.17693   0.22718   0.00000  Uiso   1.00
O313   O     0.17693   0.45725   0.77282   0.00000  Uiso   1.00
O314   O    -0.00000   0.25000   0.75000   0.00000  Uiso   1.00
O315   O     0.32307   0.04274   0.22718   0.00000  Uiso   1.00
O316   O     0.04274   0.17693   0.77282   0.00000  Uiso   1.00
O317   O     0.45725   0.32307   0.22718   0.00000  Uiso   1.00
O318   O     0.32307   0.04274   0.77282   0.00000  Uiso   1.00
O319   O     0.17693   0.45725   0.22718   0.00000  Uiso   1.00
O320   O     0.45725   0.17693   0.22718   0.00000  Uiso   1.00
O321   O     0.04274   0.32307   0.77282   0.00000  Uiso   1.00
O322   O     0.17693   0.04274   0.22718   0.00000  Uiso   1.00
O323   O     0.32307   0.45725   0.77282   0.00000  Uiso   1.00
O324   O     0.04274   0.32307   0.22718   0.00000  Uiso   1.00
O325   O     0.25000   0.46964   0.33683   0.00000  Uiso   1.00
O326   O     0.45725   0.17693   0.77282   0.00000  Uiso   1.00
O327   O     0.32307   0.45725   0.22718   0.00000  Uiso   1.00
O328   O     0.17693   0.04274   0.77282   0.00000  Uiso   1.00
O329   O     0.19145   0.03005   0.02231   0.00000  Uiso   1.00
O330   O     0.30948   0.02862   0.97769   0.00000  Uiso   1.00
O331   O     0.47138   0.19052   0.02231   0.00000  Uiso   1.00
O332   O     0.46995   0.30855   0.97769   0.00000  Uiso   1.00
O333   O     0.30653   0.46474   0.02168   0.00000  Uiso   1.00
O334   O     0.19248   0.46635   0.97753   0.00000  Uiso   1.00
O335   O     0.03365   0.30752   0.02247   0.00000  Uiso   1.00
O336   O     0.25000   0.03036   0.66317   0.00000  Uiso   1.00
O337   O     0.03526   0.19348   0.97831   0.00000  Uiso   1.00
O338   O     0.44384   0.28428   0.52186   0.00000  Uiso   1.00
O339   O     0.05642   0.28394   0.47920   0.00000  Uiso   1.00
O340   O     0.22126   0.44081   0.52221   0.00000  Uiso   1.00
O341   O     0.22078   0.05887   0.47777   0.00000  Uiso   1.00
O342   O     0.05605   0.21505   0.52098   0.00000  Uiso   1.00
O343   O     0.44347   0.21595   0.47807   0.00000  Uiso   1.00
O344   O     0.28446   0.05733   0.52263   0.00000  Uiso   1.00
O345   O     0.28530   0.44336   0.47828   0.00000  Uiso   1.00
O346   O     0.03036   0.25000   0.33683   0.00000  Uiso   1.00
O347   O     0.46964   0.25000   0.66317   0.00000  Uiso   1.00
O348   O     0.25000   0.03036   0.33683   0.00000  Uiso   1.00
Zn349  Zn    0.20660  -0.00000   0.21760   0.00000  Uiso   1.00
Zn350  Zn    0.04340   0.25000   0.28240   0.00000  Uiso   1.00
Zn351  Zn    0.25000   0.45660   0.71760   0.00000  Uiso   1.00
Zn352  Zn    0.25000   0.04340   0.28240   0.00000  Uiso   1.00
Zn353  Zn    0.04340   0.25000   0.71760   0.00000  Uiso   1.00
Zn354  Zn    0.45660   0.25000   0.28240   0.00000  Uiso   1.00
Zn355  Zn    0.25000   0.04340   0.71760   0.00000  Uiso   1.00
Zn356  Zn    0.25000   0.45660   0.28240   0.00000  Uiso   1.00
Zn357  Zn    0.29340  -0.00000   0.78240   0.00000  Uiso   1.00
Zn358  Zn   -0.00000   0.20660   0.21760   0.00000  Uiso   1.00
Zn359  Zn    0.00000   0.29340   0.78240   0.00000  Uiso   1.00
Zn360  Zn    0.29340  -0.00000   0.21760   0.00000  Uiso   1.00
Zn361  Zn    0.20660  -0.00000   0.78240   0.00000  Uiso   1.00
Zn362  Zn    0.00000   0.29340   0.21760   0.00000  Uiso   1.00
Zn363  Zn    0.00000   0.20660   0.78240   0.00000  Uiso   1.00
Zn364  Zn    0.45660   0.25000   0.71760   0.00000  Uiso   1.00
C365   C     0.72100   0.01530   0.04164   0.00000  Uiso   1.00
C366   C     0.52845   0.26750   0.45850   0.00000  Uiso   1.00
C367   C     0.84814   0.40186   0.75000   0.00000  Uiso   1.00
C368   C     0.90186   0.15186   0.25000   0.00000  Uiso   1.00
C369   C     0.59814   0.34814   0.75000   0.00000  Uiso   1.00
C370   C     0.84814   0.40186   0.25000   0.00000  Uiso   1.00
C371   C     0.65186   0.09814   0.75000   0.00000  Uiso   1.00
C372   C     0.59814   0.15186   0.75000   0.00000  Uiso   1.00
C373   C     0.90186   0.34814   0.25000   0.00000  Uiso   1.00
C374   C     0.65186   0.40186   0.75000   0.00000  Uiso   1.00
C375   C     0.84814   0.09814   0.25000   0.00000  Uiso   1.00
C376   C     0.90186   0.34814   0.75000   0.00000  Uiso   1.00
C377   C     0.73541   0.47065   0.54156   0.00000  Uiso   1.00
C378   C     0.59814   0.15186   0.25000   0.00000  Uiso   1.00
C379   C     0.84814   0.09814   0.75000   0.00000  Uiso   1.00
C380   C     0.65186   0.40186   0.25000   0.00000  Uiso   1.00
C381   C     0.74998   0.49950   0.10248   0.00000  Uiso   1.00
C382   C     0.75003   0.49964   0.89753   0.00000  Uiso   1.00
C383   C     0.50036   0.24997   0.10247   0.00000  Uiso   1.00
C384   C     0.50050   0.25002   0.89752   0.00000  Uiso   1.00
C385   C     0.99999   0.24977   0.60244   0.00000  Uiso   1.00
C386   C     0.50000   0.25007   0.39757   0.00000  Uiso   1.00
C387   C     0.75050   0.49998   0.60247   0.00000  Uiso   1.00
C388   C     0.73526   0.02920   0.45840   0.00000  Uiso   1.00
C389   C     0.75063   0.00005   0.39752   0.00000  Uiso   1.00
C390   C     0.69843   0.06719   0.01471   0.00000  Uiso   1.00
C391   C     0.66393   0.08489   0.99912   0.00000  Uiso   1.00
C392   C     0.80369   0.06600   0.98503   0.00000  Uiso   1.00
C393   C     0.83881   0.08273   0.00033   0.00000  Uiso   1.00
C394   C     0.93399   0.19631   0.01497   0.00000  Uiso   1.00
C395   C     0.91727   0.16120   0.99967   0.00000  Uiso   1.00
C396   C     0.93281   0.30157   0.98529   0.00000  Uiso   1.00
C397   C     0.91511   0.33607   0.00088   0.00000  Uiso   1.00
C398   C     0.80797   0.42730   0.03118   0.00000  Uiso   1.00
C399   C     0.52823   0.23182   0.54158   0.00000  Uiso   1.00
C400   C     0.82952   0.40728   0.00010   0.00000  Uiso   1.00
C401   C     0.69821   0.42831   0.97810   0.00000  Uiso   1.00
C402   C     0.66891   0.41049   0.00289   0.00000  Uiso   1.00
C403   C     0.57169   0.30177   0.02187   0.00000  Uiso   1.00
C404   C     0.58951   0.33108   0.99710   0.00000  Uiso   1.00
C405   C     0.57270   0.19202   0.96880   0.00000  Uiso   1.00
C406   C     0.59273   0.17048   0.99988   0.00000  Uiso   1.00
C407   C     0.95115   0.32203   0.52053   0.00000  Uiso   1.00
C408   C     0.92288   0.34054   0.49499   0.00000  Uiso   1.00
C409   C     0.55989   0.32099   0.46853   0.00000  Uiso   1.00
C410   C     0.97169   0.23264   0.45830   0.00000  Uiso   1.00
C411   C     0.57947   0.34140   0.50077   0.00000  Uiso   1.00
C412   C     0.68407   0.44719   0.51427   0.00000  Uiso   1.00
C413   C     0.66699   0.41233   0.49880   0.00000  Uiso   1.00
C414   C     0.68356   0.05224   0.48530   0.00000  Uiso   1.00
C415   C     0.66618   0.08692   0.50086   0.00000  Uiso   1.00
C416   C     0.55869   0.17787   0.53137   0.00000  Uiso   1.00
C417   C     0.57857   0.15740   0.49938   0.00000  Uiso   1.00
C418   C     0.94985   0.17801   0.47861   0.00000  Uiso   1.00
C419   C     0.92120   0.15975   0.50388   0.00000  Uiso   1.00
C420   C     0.82243   0.05120   0.52197   0.00000  Uiso   1.00
C421   C     0.76797   0.02875   0.54200   0.00000  Uiso   1.00
C422   C     0.84055   0.08053   0.49747   0.00000  Uiso   1.00
C423   C     0.82267   0.44149   0.46851   0.00000  Uiso   1.00
C424   C     0.84266   0.41977   0.49947   0.00000  Uiso   1.00
C425   C     0.76865   0.47151   0.45811   0.00000  Uiso   1.00
C426   C     0.72075   0.01467   0.08204   0.00000  Uiso   1.00
C427   C     0.77962   0.01418   0.91795   0.00000  Uiso   1.00
C428   C     0.98582   0.22038   0.08205   0.00000  Uiso   1.00
C429   C     0.77951   0.01470   0.95838   0.00000  Uiso   1.00
C430   C     0.98532   0.27924   0.91796   0.00000  Uiso   1.00
C431   C     0.77898   0.48347   0.08241   0.00000  Uiso   1.00
C432   C     0.72069   0.48429   0.91767   0.00000  Uiso   1.00
C433   C     0.51571   0.27931   0.08233   0.00000  Uiso   1.00
C434   C     0.51653   0.22102   0.91759   0.00000  Uiso   1.00
C435   C     0.97133   0.26614   0.58210   0.00000  Uiso   1.00
C436   C     0.52884   0.26624   0.41786   0.00000  Uiso   1.00
C437   C     0.73581   0.47051   0.58199   0.00000  Uiso   1.00
C438   C     0.73574   0.02940   0.41800   0.00000  Uiso   1.00
C439   C     0.52865   0.23322   0.58221   0.00000  Uiso   1.00
C440   C     0.98530   0.22049   0.04162   0.00000  Uiso   1.00
C441   C     0.97118   0.23392   0.41786   0.00000  Uiso   1.00
C442   C     0.76613   0.02922   0.58240   0.00000  Uiso   1.00
C443   C     0.76657   0.47097   0.41757   0.00000  Uiso   1.00
C444   C     0.74993   0.49854   0.02135   0.00000  Uiso   1.00
C445   C     0.75023   0.49858   0.97869   0.00000  Uiso   1.00
C446   C     0.50142   0.24977   0.02131   0.00000  Uiso   1.00
C447   C     0.50146   0.25007   0.97865   0.00000  Uiso   1.00
C448   C     0.50011   0.24969   0.52133   0.00000  Uiso   1.00
C449   C     0.50014   0.24985   0.47869   0.00000  Uiso   1.00
C450   C     0.75180   0.49982   0.52132   0.00000  Uiso   1.00
C451   C     0.98470   0.27900   0.95836   0.00000  Uiso   1.00
C452   C     0.75189   0.00017   0.47865   0.00000  Uiso   1.00
C453   C     0.75004   0.00000   0.35519   0.00000  Uiso   1.00
C454   C     0.75003  -0.00000   0.64481   0.00000  Uiso   1.00
C455   C     0.50000   0.25001   0.35521   0.00000  Uiso   1.00
C456   C     0.50000   0.24997   0.64480   0.00000  Uiso   1.00
C457   C     0.50002   0.25000   0.85519   0.00000  Uiso   1.00
C458   C     0.50001   0.25000   0.14481   0.00000  Uiso   1.00
C459   C     0.75000   0.49999   0.85519   0.00000  Uiso   1.00
C460   C     0.75000   0.49997   0.14481   0.00000  Uiso   1.00
C461   C     0.67992   0.07008   0.25000   0.00000  Uiso   1.00
C462   C     0.77847   0.48153   0.04186   0.00000  Uiso   1.00
C463   C     0.82008   0.42992   0.75000   0.00000  Uiso   1.00
C464   C     0.92992   0.17992   0.25000   0.00000  Uiso   1.00
C465   C     0.57008   0.32008   0.75000   0.00000  Uiso   1.00
C466   C     0.82008   0.42992   0.25000   0.00000  Uiso   1.00
C467   C     0.67992   0.07008   0.75000   0.00000  Uiso   1.00
C468   C     0.57008   0.32008   0.25000   0.00000  Uiso   1.00
C469   C     0.92992   0.17992   0.75000   0.00000  Uiso   1.00
C470   C     0.67992   0.42992   0.75000   0.00000  Uiso   1.00
C471   C     0.82008   0.07008   0.25000   0.00000  Uiso   1.00
C472   C     0.92992   0.32008   0.75000   0.00000  Uiso   1.00
C473   C     0.72116   0.48257   0.95808   0.00000  Uiso   1.00
C474   C     0.57008   0.17992   0.25000   0.00000  Uiso   1.00
C475   C     0.82008   0.07008   0.75000   0.00000  Uiso   1.00
C476   C     0.67992   0.42992   0.25000   0.00000  Uiso   1.00
C477   C     0.57008   0.17992   0.75000   0.00000  Uiso   1.00
C478   C     0.92992   0.32008   0.25000   0.00000  Uiso   1.00
C479   C     0.62194   0.40477   0.22490   0.00000  Uiso   1.00
C480   C     0.87807   0.09521   0.77507   0.00000  Uiso   1.00
C481   C     0.59520   0.12192   0.22494   0.00000  Uiso   1.00
C482   C     0.90480   0.37808   0.77507   0.00000  Uiso   1.00
C483   C     0.87807   0.09520   0.22493   0.00000  Uiso   1.00
C484   C     0.51743   0.27884   0.04192   0.00000  Uiso   1.00
C485   C     0.62193   0.40479   0.77508   0.00000  Uiso   1.00
C486   C     0.90476   0.37804   0.22489   0.00000  Uiso   1.00
C487   C     0.59523   0.12196   0.77511   0.00000  Uiso   1.00
C488   C     0.62195   0.09523   0.77511   0.00000  Uiso   1.00
C489   C     0.87804   0.40476   0.22488   0.00000  Uiso   1.00
C490   C     0.59521   0.37807   0.77508   0.00000  Uiso   1.00
C491   C     0.90479   0.12193   0.22493   0.00000  Uiso   1.00
C492   C     0.87808   0.40480   0.77507   0.00000  Uiso   1.00
C493   C     0.62192   0.09520   0.22494   0.00000  Uiso   1.00
C494   C     0.90479   0.12193   0.77507   0.00000  Uiso   1.00
C495   C     0.51847   0.22153   0.95814   0.00000  Uiso   1.00
C496   C     0.59522   0.37805   0.22490   0.00000  Uiso   1.00
C497   C     0.87193   0.15479   0.72492   0.00000  Uiso   1.00
C498   C     0.62805   0.34523   0.27510   0.00000  Uiso   1.00
C499   C     0.84520   0.37192   0.72493   0.00000  Uiso   1.00
C500   C     0.65480   0.12808   0.27506   0.00000  Uiso   1.00
C501   C     0.62807   0.34520   0.72493   0.00000  Uiso   1.00
C502   C     0.87193   0.15479   0.27508   0.00000  Uiso   1.00
C503   C     0.65477   0.12804   0.72489   0.00000  Uiso   1.00
C504   C     0.84524   0.37196   0.27512   0.00000  Uiso   1.00
C505   C     0.87196   0.34524   0.27512   0.00000  Uiso   1.00
C506   C     0.97184   0.26726   0.54166   0.00000  Uiso   1.00
C507   C     0.62804   0.15477   0.72489   0.00000  Uiso   1.00
C508   C     0.84521   0.12807   0.27508   0.00000  Uiso   1.00
C509   C     0.65479   0.37193   0.72493   0.00000  Uiso   1.00
C510   C     0.62808   0.15480   0.27506   0.00000  Uiso   1.00
C511   C     0.87192   0.34520   0.72493   0.00000  Uiso   1.00
C512   C     0.65478   0.37195   0.27510   0.00000  Uiso   1.00
C513   C     0.84521   0.12806   0.72492   0.00000  Uiso   1.00
C514   C     0.59814   0.34814   0.25000   0.00000  Uiso   1.00
C515   C     0.90186   0.15186   0.75000   0.00000  Uiso   1.00
C516   C     0.65186   0.09814   0.25000   0.00000  Uiso   1.00
H517   H     0.61915   0.42765   0.20527   0.00000  Uiso   1.00
H518   H     0.88082   0.42763   0.20524   0.00000  Uiso   1.00
H519   H     0.68115   0.46856   0.49164   0.00000  Uiso   1.00
H520   H     0.66897   0.39036   0.52086   0.00000  Uiso   1.00
H521   H     0.63781   0.41715   0.49194   0.00000  Uiso   1.00
H522   H     0.68128   0.40353   0.47199   0.00000  Uiso   1.00
H523   H     0.66860   0.04405   0.45853   0.00000  Uiso   1.00
H524   H     0.68056   0.03071   0.50775   0.00000  Uiso   1.00
H525   H     0.66825   0.10904   0.47899   0.00000  Uiso   1.00
H526   H     0.63696   0.08192   0.50738   0.00000  Uiso   1.00
H527   H     0.68018   0.09561   0.52788   0.00000  Uiso   1.00
H528   H     0.57463   0.17492   0.55860   0.00000  Uiso   1.00
H529   H     0.57232   0.38087   0.79469   0.00000  Uiso   1.00
H530   H     0.53137   0.16495   0.53516   0.00000  Uiso   1.00
H531   H     0.58085   0.12811   0.50715   0.00000  Uiso   1.00
H532   H     0.56325   0.15986   0.47172   0.00000  Uiso   1.00
H533   H     0.60637   0.16880   0.49544   0.00000  Uiso   1.00
H534   H     0.94785   0.16642   0.44885   0.00000  Uiso   1.00
H535   H     0.97720   0.17162   0.49098   0.00000  Uiso   1.00
H536   H     0.89355   0.16504   0.49203   0.00000  Uiso   1.00
H537   H     0.92595   0.12985   0.50457   0.00000  Uiso   1.00
H538   H     0.92279   0.17056   0.53392   0.00000  Uiso   1.00
H539   H     0.83399   0.05258   0.55179   0.00000  Uiso   1.00
H540   H     0.92768   0.11913   0.20531   0.00000  Uiso   1.00
H541   H     0.82899   0.02419   0.50890   0.00000  Uiso   1.00
H542   H     0.83507   0.10787   0.51004   0.00000  Uiso   1.00
H543   H     0.87047   0.07599   0.49670   0.00000  Uiso   1.00
H544   H     0.82976   0.07957   0.46739   0.00000  Uiso   1.00
H545   H     0.82625   0.42730   0.44028   0.00000  Uiso   1.00
H546   H     0.83546   0.46906   0.46692   0.00000  Uiso   1.00
H547   H     0.83128   0.39177   0.50129   0.00000  Uiso   1.00
H548   H     0.87208   0.41800   0.49211   0.00000  Uiso   1.00
H549   H     0.83969   0.43339   0.52806   0.00000  Uiso   1.00
H550   H     0.88089   0.42770   0.79467   0.00000  Uiso   1.00
H551   H     0.61911   0.07230   0.20533   0.00000  Uiso   1.00
H552   H     0.92768   0.11914   0.79469   0.00000  Uiso   1.00
H553   H     0.57234   0.38083   0.20527   0.00000  Uiso   1.00
H554   H     0.86913   0.17767   0.70531   0.00000  Uiso   1.00
H555   H     0.63084   0.32235   0.29474   0.00000  Uiso   1.00
H556   H     0.82231   0.36912   0.70532   0.00000  Uiso   1.00
H557   H     0.88087   0.07232   0.79469   0.00000  Uiso   1.00
H558   H     0.67770   0.13089   0.29467   0.00000  Uiso   1.00
H559   H     0.63087   0.32231   0.70532   0.00000  Uiso   1.00
H560   H     0.86914   0.17768   0.29469   0.00000  Uiso   1.00
H561   H     0.67764   0.13082   0.70525   0.00000  Uiso   1.00
H562   H     0.82237   0.36919   0.29476   0.00000  Uiso   1.00
H563   H     0.86918   0.32237   0.29476   0.00000  Uiso   1.00
H564   H     0.63082   0.17763   0.70524   0.00000  Uiso   1.00
H565   H     0.82232   0.13087   0.29469   0.00000  Uiso   1.00
H566   H     0.67768   0.36913   0.70532   0.00000  Uiso   1.00
H567   H     0.63089   0.17770   0.29467   0.00000  Uiso   1.00
H568   H     0.57230   0.11911   0.20533   0.00000  Uiso   1.00
H569   H     0.86912   0.32231   0.70532   0.00000  Uiso   1.00
H570   H     0.67765   0.36917   0.29473   0.00000  Uiso   1.00
H571   H     0.82232   0.13086   0.70530   0.00000  Uiso   1.00
H572   H     0.69804   0.02688   0.09737   0.00000  Uiso   1.00
H573   H     0.80259   0.02586   0.90260   0.00000  Uiso   1.00
H574   H     0.97414   0.19741   0.09740   0.00000  Uiso   1.00
H575   H     0.97312   0.30196   0.90263   0.00000  Uiso   1.00
H576   H     0.80166   0.47183   0.09824   0.00000  Uiso   1.00
H577   H     0.69781   0.47269   0.90209   0.00000  Uiso   1.00
H578   H     0.52731   0.30219   0.09791   0.00000  Uiso   1.00
H579   H     0.92769   0.38088   0.79467   0.00000  Uiso   1.00
H580   H     0.52817   0.19834   0.90176   0.00000  Uiso   1.00
H581   H     0.94906   0.27901   0.59753   0.00000  Uiso   1.00
H582   H     0.55132   0.27833   0.40210   0.00000  Uiso   1.00
H583   H     0.72391   0.44762   0.59730   0.00000  Uiso   1.00
H584   H     0.72364   0.05218   0.40269   0.00000  Uiso   1.00
H585   H     0.55100   0.22094   0.59801   0.00000  Uiso   1.00
H586   H     0.94874   0.22138   0.40238   0.00000  Uiso   1.00
H587   H     0.77786   0.05200   0.59804   0.00000  Uiso   1.00
H588   H     0.77799   0.44819   0.40172   0.00000  Uiso   1.00
H589   H     0.70676   0.08211   0.04147   0.00000  Uiso   1.00
H590   H     0.88087   0.07231   0.20531   0.00000  Uiso   1.00
H591   H     0.72000   0.06996   0.99227   0.00000  Uiso   1.00
H592   H     0.64179   0.08308   0.02100   0.00000  Uiso   1.00
H593   H     0.66922   0.11404   0.99255   0.00000  Uiso   1.00
H594   H     0.65510   0.07092   0.97213   0.00000  Uiso   1.00
H595   H     0.79571   0.08101   0.95821   0.00000  Uiso   1.00
H596   H     0.78231   0.06957   0.00755   0.00000  Uiso   1.00
H597   H     0.86080   0.08000   0.97839   0.00000  Uiso   1.00
H598   H     0.83450   0.11211   0.00662   0.00000  Uiso   1.00
H599   H     0.84727   0.06873   0.02742   0.00000  Uiso   1.00
H600   H     0.91899   0.20429   0.04179   0.00000  Uiso   1.00
H601   H     0.61914   0.42768   0.79469   0.00000  Uiso   1.00
H602   H     0.93043   0.21769   0.99245   0.00000  Uiso   1.00
H603   H     0.92000   0.13920   0.02161   0.00000  Uiso   1.00
H604   H     0.88789   0.16550   0.99338   0.00000  Uiso   1.00
H605   H     0.93127   0.15273   0.97258   0.00000  Uiso   1.00
H606   H     0.91789   0.29324   0.95853   0.00000  Uiso   1.00
H607   H     0.93004   0.28000   0.00773   0.00000  Uiso   1.00
H608   H     0.91692   0.35821   0.97900   0.00000  Uiso   1.00
H609   H     0.88595   0.33078   0.00746   0.00000  Uiso   1.00
H610   H     0.92907   0.34490   0.02787   0.00000  Uiso   1.00
H611   H     0.82207   0.42338   0.05940   0.00000  Uiso   1.00
H612   H     0.92763   0.38082   0.20524   0.00000  Uiso   1.00
H613   H     0.78027   0.41479   0.03262   0.00000  Uiso   1.00
H614   H     0.85770   0.41828   0.99851   0.00000  Uiso   1.00
H615   H     0.83084   0.37778   0.00717   0.00000  Uiso   1.00
H616   H     0.81606   0.41070   0.97149   0.00000  Uiso   1.00
H617   H     0.69643   0.41679   0.94829   0.00000  Uiso   1.00
H618   H     0.72527   0.42144   0.99088   0.00000  Uiso   1.00
H619   H     0.64152   0.41624   0.99059   0.00000  Uiso   1.00
H620   H     0.67317   0.38053   0.00363   0.00000  Uiso   1.00
H621   H     0.67024   0.42127   0.03296   0.00000  Uiso   1.00
H622   H     0.58322   0.30353   0.05169   0.00000  Uiso   1.00
H623   H     0.57236   0.11918   0.79476   0.00000  Uiso   1.00
H624   H     0.57854   0.27472   0.00908   0.00000  Uiso   1.00
H625   H     0.58377   0.35846   0.00942   0.00000  Uiso   1.00
H626   H     0.61947   0.32681   0.99634   0.00000  Uiso   1.00
H627   H     0.57872   0.32977   0.96704   0.00000  Uiso   1.00
H628   H     0.57660   0.17790   0.94059   0.00000  Uiso   1.00
H629   H     0.58521   0.21971   0.96733   0.00000  Uiso   1.00
H630   H     0.58172   0.14231   0.00151   0.00000  Uiso   1.00
H631   H     0.62223   0.16916   0.99281   0.00000  Uiso   1.00
H632   H     0.58932   0.18397   0.02849   0.00000  Uiso   1.00
H633   H     0.94955   0.33417   0.55008   0.00000  Uiso   1.00
H634   H     0.61917   0.07237   0.79475   0.00000  Uiso   1.00
H635   H     0.97860   0.32757   0.50795   0.00000  Uiso   1.00
H636   H     0.89515   0.33623   0.50710   0.00000  Uiso   1.00
H637   H     0.92844   0.37027   0.49361   0.00000  Uiso   1.00
H638   H     0.92403   0.32910   0.46520   0.00000  Uiso   1.00
H639   H     0.57643   0.32342   0.44165   0.00000  Uiso   1.00
H640   H     0.53289   0.33434   0.46398   0.00000  Uiso   1.00
H641   H     0.60699   0.32957   0.50546   0.00000  Uiso   1.00
H642   H     0.58240   0.37057   0.49278   0.00000  Uiso   1.00
H643   H     0.56356   0.33942   0.52810   0.00000  Uiso   1.00
H644   H     0.66884   0.45547   0.54084   0.00000  Uiso   1.00
O645   O     0.75000  -0.00000   0.25000   0.00000  Uiso   1.00
O646   O     0.75000   0.46964   0.66317   0.00000  Uiso   1.00
O647   O     0.96964   0.25000   0.33683   0.00000  Uiso   1.00
O648   O     0.53036   0.25000   0.66317   0.00000  Uiso   1.00
O649   O     0.50000   0.21964   0.83683   0.00000  Uiso   1.00
O650   O     0.50000   0.28036   0.16317   0.00000  Uiso   1.00
O651   O     0.78036  -0.00000   0.83683   0.00000  Uiso   1.00
O652   O     0.71964  -0.00000   0.16317   0.00000  Uiso   1.00
O653   O     0.50000   0.28036   0.83683   0.00000  Uiso   1.00
O654   O     0.50000   0.21964   0.16317   0.00000  Uiso   1.00
O655   O     0.71964  -0.00000   0.83683   0.00000  Uiso   1.00
O656   O     0.75000  -0.00000   0.75000   0.00000  Uiso   1.00
O657   O     0.78036  -0.00000   0.16317   0.00000  Uiso   1.00
O658   O     0.70725   0.07307   0.27282   0.00000  Uiso   1.00
O659   O     0.79274   0.42693   0.72718   0.00000  Uiso   1.00
O660   O     0.92693   0.20725   0.27282   0.00000  Uiso   1.00
O661   O     0.57307   0.29274   0.72718   0.00000  Uiso   1.00
O662   O     0.79274   0.42693   0.27282   0.00000  Uiso   1.00
O663   O     0.70725   0.07307   0.72718   0.00000  Uiso   1.00
O664   O     0.57307   0.29274   0.27282   0.00000  Uiso   1.00
O665   O     0.92693   0.20725   0.72718   0.00000  Uiso   1.00
O666   O     0.70725   0.42693   0.72718   0.00000  Uiso   1.00
O667   O     0.50000   0.25000   0.25000   0.00000  Uiso   1.00
O668   O     0.79274   0.07307   0.27282   0.00000  Uiso   1.00
O669   O     0.92693   0.29274   0.72718   0.00000  Uiso   1.00
O670   O     0.57307   0.20725   0.27282   0.00000  Uiso   1.00
O671   O     0.79274   0.07307   0.72718   0.00000  Uiso   1.00
O672   O     0.70725   0.42693   0.27282   0.00000  Uiso   1.00
O673   O     0.57307   0.20725   0.72718   0.00000  Uiso   1.00
O674   O     0.92693   0.29274   0.27282   0.00000  Uiso   1.00
O675   O     0.95725   0.32307   0.77282   0.00000  Uiso   1.00
O676   O     0.54274   0.17693   0.22718   0.00000  Uiso   1.00
O677   O     0.67693   0.45725   0.77282   0.00000  Uiso   1.00
O678   O     0.50000   0.25000   0.75000   0.00000  Uiso   1.00
O679   O     0.82307   0.04274   0.22718   0.00000  Uiso   1.00
O680   O     0.54274   0.17693   0.77282   0.00000  Uiso   1.00
O681   O     0.95725   0.32307   0.22718   0.00000  Uiso   1.00
O682   O     0.82307   0.04274   0.77282   0.00000  Uiso   1.00
O683   O     0.67693   0.45725   0.22718   0.00000  Uiso   1.00
O684   O     0.95725   0.17693   0.22718   0.00000  Uiso   1.00
O685   O     0.54274   0.32307   0.77282   0.00000  Uiso   1.00
O686   O     0.67693   0.04274   0.22718   0.00000  Uiso   1.00
O687   O     0.82307   0.45725   0.77282   0.00000  Uiso   1.00
O688   O     0.54274   0.32307   0.22718   0.00000  Uiso   1.00
O689   O     0.75000   0.46964   0.33683   0.00000  Uiso   1.00
O690   O     0.95725   0.17693   0.77282   0.00000  Uiso   1.00
O691   O     0.82307   0.45725   0.22718   0.00000  Uiso   1.00
O692   O     0.67693   0.04274   0.77282   0.00000  Uiso   1.00
O693   O     0.69145   0.03005   0.02231   0.00000  Uiso   1.00
O694   O     0.80948   0.02862   0.97769   0.00000  Uiso   1.00
O695   O     0.97138   0.19052   0.02231   0.00000  Uiso   1.00
O696   O     0.96995   0.30855   0.97769   0.00000  Uiso   1.00
O697   O     0.80653   0.46474   0.02168   0.00000  Uiso   1.00
O698   O     0.69248   0.46635   0.97753   0.00000  Uiso   1.00
O699   O     0.53365   0.30752   0.02247   0.00000  Uiso   1.00
O700   O     0.75000   0.03036   0.66317   0.00000  Uiso   1.00
O701   O     0.53526   0.19348   0.97831   0.00000  Uiso   1.00
O702   O     0.94384   0.28428   0.52186   0.00000  Uiso   1.00
O703   O     0.55642   0.28394   0.47920   0.00000  Uiso   1.00
O704   O     0.72126   0.44081   0.52221   0.00000  Uiso   1.00
O705   O     0.72078   0.05887   0.47777   0.00000  Uiso   1.00
O706   O     0.55605   0.21505   0.52098   0.00000  Uiso   1.00
O707   O     0.94347   0.21595   0.47807   0.00000  Uiso   1.00
O708   O     0.78446   0.05733   0.52263   0.00000  Uiso   1.00
O709   O     0.78530   0.44336   0.47828   0.00000  Uiso   1.00
O710   O     0.53036   0.25000   0.33683   0.00000  Uiso   1.00
O711   O     0.96964   0.25000   0.66317   0.00000  Uiso   1.00
O712   O     0.75000   0.03036   0.33683   0.00000  Uiso   1.00
Zn713  Zn    0.70660  -0.00000   0.21760   0.00000  Uiso   1.00
Zn714  Zn    0.54340   0.25000   0.28240   0.00000  Uiso   1.00
Zn715  Zn    0.75000   0.45660   0.71760   0.00000  Uiso   1.00
Zn716  Zn    0.75000   0.04340   0.28240   0.00000  Uiso   1.00
Zn717  Zn    0.54340   0.25000   0.71760   0.00000  Uiso   1.00
Zn718  Zn    0.95660   0.25000   0.28240   0.00000  Uiso   1.00
Zn719  Zn    0.75000   0.04340   0.71760   0.00000  Uiso   1.00
Zn720  Zn    0.75000   0.45660   0.28240   0.00000  Uiso   1.00
Zn721  Zn    0.79340  -0.00000   0.78240   0.00000  Uiso   1.00
Zn722  Zn    0.50000   0.20660   0.21760   0.00000  Uiso   1.00
Zn723  Zn    0.50000   0.29340   0.78240   0.00000  Uiso   1.00
Zn724  Zn    0.79340  -0.00000   0.21760   0.00000  Uiso   1.00
Zn725  Zn    0.70660  -0.00000   0.78240   0.00000  Uiso   1.00
Zn726  Zn    0.50000   0.29340   0.21760   0.00000  Uiso   1.00
Zn727  Zn    0.50000   0.20660   0.78240   0.00000  Uiso   1.00
Zn728  Zn    0.95660   0.25000   0.71760   0.00000  Uiso   1.00
C729   C     0.22100   0.51530   0.04164   0.00000  Uiso   1.00
C730   C     0.02845   0.76750   0.45850   0.00000  Uiso   1.00
C731   C     0.34814   0.90186   0.75000   0.00000  Uiso   1.00
C732   C     0.40186   0.65186   0.25000   0.00000  Uiso   1.00
C733   C     0.09814   0.84814   0.75000   0.00000  Uiso   1.00
C734   C     0.34814   0.90186   0.25000   0.00000  Uiso   1.00
C735   C     0.15186   0.59814   0.75000   0.00000  Uiso   1.00
C736   C     0.09814   0.65186   0.75000   0.00000  Uiso   1.00
C737   C     0.40186   0.84814   0.25000   0.00000  Uiso   1.00
C738   C     0.15186   0.90186   0.75000   0.00000  Uiso   1.00
C739   C     0.34814   0.59814   0.25000   0.00000  Uiso   1.00
C740   C     0.40186   0.84814   0.75000   0.00000  Uiso   1.00
C741   C     0.23541   0.97065   0.54156   0.00000  Uiso   1.00
C742   C     0.09814   0.65186   0.25000   0.00000  Uiso   1.00
C743   C     0.34814   0.59814   0.75000   0.00000  Uiso   1.00
C744   C     0.15186   0.90186   0.25000   0.00000  Uiso   1.00
C745   C     0.24998   0.99950   0.10248   0.00000  Uiso   1.00
C746   C     0.25003   0.99964   0.89753   0.00000  Uiso   1.00
C747   C     0.00036   0.74997   0.10247   0.00000  Uiso   1.00
C748   C     0.00050   0.75002   0.89752   0.00000  Uiso   1.00
C749   C     0.49999   0.74977   0.60244   0.00000  Uiso   1.00
C750   C    -0.00000   0.75007   0.39757   0.00000  Uiso   1.00
C751   C     0.25050   0.99998   0.60247   0.00000  Uiso   1.00
C752   C     0.23526   0.52920   0.45840   0.00000  Uiso   1.00
C753   C     0.25063   0.50005   0.39752   0.00000  Uiso   1.00
C754   C     0.19843   0.56719   0.01471   0.00000  Uiso   1.00
C755   C     0.16393   0.58489   0.99912   0.00000  Uiso   1.00
C756   C     0.30369   0.56600   0.98503   0.00000  Uiso   1.00
C757   C     0.33881   0.58273   0.00033   0.00000  Uiso   1.00
C758   C     0.43399   0.69631   0.01497   0.00000  Uiso   1.00
C759   C     0.41727   0.66120   0.99967   0.00000  Uiso   1.00
C760   C     0.43281   0.80157   0.98529   0.00000  Uiso   1.00
C761   C     0.41511   0.83607   0.00088   0.00000  Uiso   1.00
C762   C     0.30797   0.92730   0.03118   0.00000  Uiso   1.00
C763   C     0.02823   0.73182   0.54158   0.00000  Uiso   1.00
C764   C     0.32952   0.90728   0.00010   0.00000  Uiso   1.00
C765   C     0.19821   0.92831   0.97810   0.00000  Uiso   1.00
C766   C     0.16891   0.91049   0.00289   0.00000  Uiso   1.00
C767   C     0.07169   0.80177   0.02187   0.00000  Uiso   1.00
C768   C     0.08951   0.83108   0.99710   0.00000  Uiso   1.00
C769   C     0.07270   0.69202   0.96880   0.00000  Uiso   1.00
C770   C     0.09273   0.67048   0.99988   0.00000  Uiso   1.00
C771   C     0.45115   0.82203   0.52053   0.00000  Uiso   1.00
C772   C     0.42288   0.84054   0.49499   0.00000  Uiso   1.00
C773   C     0.05989   0.82099   0.46853   0.00000  Uiso   1.00
C774   C     0.47169   0.73264   0.45830   0.00000  Uiso   1.00
C775   C     0.07947   0.84140   0.50077   0.00000  Uiso   1.00
C776   C     0.18407   0.94719   0.51427   0.00000  Uiso   1.00
C777   C     0.16699   0.91233   0.49880   0.00000  Uiso   1.00
C778   C     0.18356   0.55224   0.48530   0.00000  Uiso   1.00
C779   C     0.16618   0.58692   0.50086   0.00000  Uiso   1.00
C780   C     0.05869   0.67787   0.53137   0.00000  Uiso   1.00
C781   C     0.07857   0.65740   0.49938   0.00000  Uiso   1.00
C782   C     0.44985   0.67801   0.47861   0.00000  Uiso   1.00
C783   C     0.42120   0.65975   0.50388   0.00000  Uiso   1.00
C784   C     0.32243   0.55120   0.52197   0.00000  Uiso   1.00
C785   C     0.26797   0.52875   0.54200   0.00000  Uiso   1.00
C786   C     0.34055   0.58053   0.49747   0.00000  Uiso   1.00
C787   C     0.32267   0.94149   0.46851   0.00000  Uiso   1.00
C788   C     0.34266   0.91977   0.49947   0.00000  Uiso   1.00
C789   C     0.26865   0.97151   0.45811   0.00000  Uiso   1.00
C790   C     0.22075   0.51467   0.08204   0.00000  Uiso   1.00
C791   C     0.27962   0.51418   0.91795   0.00000  Uiso   1.00
C792   C     0.48582   0.72038   0.08205   0.00000  Uiso   1.00
C793   C     0.27951   0.51470   0.95838   0.00000  Uiso   1.00
C794   C     0.48532   0.77924   0.91796   0.00000  Uiso   1.00
C795   C     0.27898   0.98347   0.08241   0.00000  Uiso   1.00
C796   C     0.22069   0.98429   0.91767   0.00000  Uiso   1.00
C797   C     0.01571   0.77931   0.08233   0.00000  Uiso   1.00
C798   C     0.01653   0.72102   0.91759   0.00000  Uiso   1.00
C799   C     0.47133   0.76614   0.58210   0.00000  Uiso   1.00
C800   C     0.02884   0.76624   0.41786   0.00000  Uiso   1.00
C801   C     0.23581   0.97051   0.58199   0.00000  Uiso   1.00
C802   C     0.23574   0.52940   0.41800   0.00000  Uiso   1.00
C803   C     0.02865   0.73322   0.58221   0.00000  Uiso   1.00
C804   C     0.48530   0.72049   0.04162   0.00000  Uiso   1.00
C805   C     0.47118   0.73392   0.41786   0.00000  Uiso   1.00
C806   C     0.26613   0.52922   0.58240   0.00000  Uiso   1.00
C807   C     0.26657   0.97097   0.41757   0.00000  Uiso   1.00
C808   C     0.24993   0.99854   0.02135   0.00000  Uiso   1.00
C809   C     0.25023   0.99858   0.97869   0.00000  Uiso   1.00
C810   C     0.00142   0.74977   0.02131   0.00000  Uiso   1.00
C811   C     0.00146   0.75007   0.97865   0.00000  Uiso   1.00
C812   C     0.00011   0.74969   0.52133   0.00000  Uiso   1.00
C813   C     0.00014   0.74985   0.47869   0.00000  Uiso   1.00
C814   C     0.25180   0.99982   0.52132   0.00000  Uiso   1.00
C815   C     0.48470   0.77900   0.95836   0.00000  Uiso   1.00
C816   C     0.25189   0.50017   0.47865   0.00000  Uiso   1.00
C817   C     0.25004   0.50000   0.35519   0.00000  Uiso   1.00
C818   C     0.25003   0.50000   0.64481   0.00000  Uiso   1.00
C819   C     0.00000   0.75001   0.35521   0.00000  Uiso   1.00
C820   C    -0.00000   0.74997   0.64480   0.00000  Uiso   1.00
C821   C     0.00002   0.75000   0.85519   0.00000  Uiso   1.00
C822   C     0.00001   0.75000   0.14481   0.00000  Uiso   1.00
C823   C     0.25000   0.99999   0.85519   0.00000  Uiso   1.00
C824   C     0.25000   0.99997   0.14481   0.00000  Uiso   1.00
C825   C     0.17992   0.57008   0.25000   0.00000  Uiso   1.00
C826   C     0.27847   0.98153   0.04186   0.00000  Uiso   1.00
C827   C     0.32008   0.92992   0.75000   0.00000  Uiso   1.00
C828   C     0.42992   0.67992   0.25000   0.00000  Uiso   1.00
C829   C     0.07008   0.82008   0.75000   0.00000  Uiso   1.00
C830   C     0.32008   0.92992   0.25000   0.00000  Uiso   1.00
C831   C     0.17992   0.57008   0.75000   0.00000  Uiso   1.00
C832   C     0.07008   0.82008   0.25000   0.00000  Uiso   1.00
C833   C     0.42992   0.67992   0.75000   0.00000  Uiso   1.00
C834   C     0.17992   0.92992   0.75000   0.00000  Uiso   1.00
C835   C     0.32008   0.57008   0.25000   0.00000  Uiso   1.00
C836   C     0.42992   0.82008   0.75000   0.00000  Uiso   1.00
C837   C     0.22116   0.98257   0.95808   0.00000  Uiso   1.00
C838   C     0.07008   0.67992   0.25000   0.00000  Uiso   1.00
C839   C     0.32008   0.57008   0.75000   0.00000  Uiso   1.00
C840   C     0.17992   0.92992   0.25000   0.00000  Uiso   1.00
C841   C     0.07008   0.67992   0.75000   0.00000  Uiso   1.00
C842   C     0.42992   0.82008   0.25000   0.00000  Uiso   1.00
C843   C     0.12194   0.90477   0.22490   0.00000  Uiso   1.00
C844   C     0.37807   0.59521   0.77507   0.00000  Uiso   1.00
C845   C     0.09520   0.62192   0.22494   0.00000  Uiso   1.00
C846   C     0.40480   0.87808   0.77507   0.00000  Uiso   1.00
C847   C     0.37807   0.59520   0.22493   0.00000  Uiso   1.00
C848   C     0.01743   0.77884   0.04192   0.00000  Uiso   1.00
C849   C     0.12193   0.90479   0.77508   0.00000  Uiso   1.00
C850   C     0.40476   0.87804   0.22489   0.00000  Uiso   1.00
C851   C     0.09523   0.62196   0.77511   0.00000  Uiso   1.00
C852   C     0.12195   0.59523   0.77511   0.00000  Uiso   1.00
C853   C     0.37804   0.90476   0.22488   0.00000  Uiso   1.00
C854   C     0.09521   0.87807   0.77508   0.00000  Uiso   1.00
C855   C     0.40479   0.62193   0.22493   0.00000  Uiso   1.00
C856   C     0.37808   0.90480   0.77507   0.00000  Uiso   1.00
C857   C     0.12192   0.59520   0.22494   0.00000  Uiso   1.00
C858   C     0.40479   0.62193   0.77507   0.00000  Uiso   1.00
C859   C     0.01847   0.72153   0.95814   0.00000  Uiso   1.00
C860   C     0.09522   0.87805   0.22490   0.00000  Uiso   1.00
C861   C     0.37193   0.65479   0.72492   0.00000  Uiso   1.00
C862   C     0.12805   0.84523   0.27510   0.00000  Uiso   1.00
C863   C     0.34520   0.87192   0.72493   0.00000  Uiso   1.00
C864   C     0.15480   0.62808   0.27506   0.00000  Uiso   1.00
C865   C     0.12807   0.84520   0.72493   0.00000  Uiso   1.00
C866   C     0.37193   0.65479   0.27508   0.00000  Uiso   1.00
C867   C     0.15477   0.62804   0.72489   0.00000  Uiso   1.00
C868   C     0.34524   0.87196   0.27512   0.00000  Uiso   1.00
C869   C     0.37196   0.84524   0.27512   0.00000  Uiso   1.00
C870   C     0.47184   0.76726   0.54166   0.00000  Uiso   1.00
C871   C     0.12804   0.65477   0.72489   0.00000  Uiso   1.00
C872   C     0.34521   0.62807   0.27508   0.00000  Uiso   1.00
C873   C     0.15479   0.87193   0.72493   0.00000  Uiso   1.00
C874   C     0.12808   0.65480   0.27506   0.00000  Uiso   1.00
C875   C     0.37192   0.84520   0.72493   0.00000  Uiso   1.00
C876   C     0.15478   0.87195   0.27510   0.00000  Uiso   1.00
C877   C     0.34521   0.62806   0.72492   0.00000  Uiso   1.00
C878   C     0.09814   0.84814   0.25000   0.00000  Uiso   1.00
C879   C     0.40186   0.65186   0.75000   0.00000  Uiso   1.00
C880   C     0.15186   0.59814   0.25000   0.00000  Uiso   1.00
H881   H     0.11915   0.92765   0.20527   0.00000  Uiso   1.00
H882   H     0.38082   0.92763   0.20524   0.00000  Uiso   1.00
H883   H     0.18115   0.96856   0.49164   0.00000  Uiso   1.00
H884   H     0.16897   0.89036   0.52086   0.00000  Uiso   1.00
H885   H     0.13781   0.91715   0.49194   0.00000  Uiso   1.00
H886   H     0.18128   0.90353   0.47199   0.00000  Uiso   1.00
H887   H     0.16860   0.54405   0.45853   0.00000  Uiso   1.00
H888   H     0.18056   0.53071   0.50775   0.00000  Uiso   1.00
H889   H     0.16825   0.60904   0.47899   0.00000  Uiso   1.00
H890   H     0.13696   0.58192   0.50738   0.00000  Uiso   1.00
H891   H     0.18018   0.59561   0.52788   0.00000  Uiso   1.00
H892   H     0.07463   0.67492   0.55860   0.00000  Uiso   1.00
H893   H     0.07232   0.88087   0.79469   0.00000  Uiso   1.00
H894   H     0.03137   0.66495   0.53516   0.00000  Uiso   1.00
H895   H     0.08085   0.62811   0.50715   0.00000  Uiso   1.00
H896   H     0.06325   0.65986   0.47172   0.00000  Uiso   1.00
H897   H     0.10637   0.66880   0.49544   0.00000  Uiso   1.00
H898   H     0.44785   0.66642   0.44885   0.00000  Uiso   1.00
H899   H     0.47720   0.67162   0.49098   0.00000  Uiso   1.00
H900   H     0.39355   0.66504   0.49203   0.00000  Uiso   1.00
H901   H     0.42595   0.62985   0.50457   0.00000  Uiso   1.00
H902   H     0.42279   0.67056   0.53392   0.00000  Uiso   1.00
H903   H     0.33399   0.55258   0.55179   0.00000  Uiso   1.00
H904   H     0.42768   0.61913   0.20531   0.00000  Uiso   1.00
H905   H     0.32899   0.52419   0.50890   0.00000  Uiso   1.00
H906   H     0.33507   0.60787   0.51004   0.00000  Uiso   1.00
H907   H     0.37047   0.57599   0.49670   0.00000  Uiso   1.00
H908   H     0.32976   0.57957   0.46739   0.00000  Uiso   1.00
H909   H     0.32625   0.92730   0.44028   0.00000  Uiso   1.00
H910   H     0.33546   0.96906   0.46692   0.00000  Uiso   1.00
H911   H     0.33128   0.89177   0.50129   0.00000  Uiso   1.00
H912   H     0.37208   0.91800   0.49211   0.00000  Uiso   1.00
H913   H     0.33969   0.93339   0.52806   0.00000  Uiso   1.00
H914   H     0.38089   0.92770   0.79467   0.00000  Uiso   1.00
H915   H     0.11911   0.57230   0.20533   0.00000  Uiso   1.00
H916   H     0.42768   0.61914   0.79469   0.00000  Uiso   1.00
H917   H     0.07234   0.88083   0.20527   0.00000  Uiso   1.00
H918   H     0.36913   0.67767   0.70531   0.00000  Uiso   1.00
H919   H     0.13084   0.82235   0.29474   0.00000  Uiso   1.00
H920   H     0.32231   0.86912   0.70532   0.00000  Uiso   1.00
H921   H     0.38087   0.57232   0.79469   0.00000  Uiso   1.00
H922   H     0.17770   0.63089   0.29467   0.00000  Uiso   1.00
H923   H     0.13087   0.82231   0.70532   0.00000  Uiso   1.00
H924   H     0.36914   0.67768   0.29469   0.00000  Uiso   1.00
H925   H     0.17764   0.63082   0.70525   0.00000  Uiso   1.00
H926   H     0.32237   0.86919   0.29476   0.00000  Uiso   1.00
H927   H     0.36918   0.82237   0.29476   0.00000  Uiso   1.00
H928   H     0.13082   0.67763   0.70524   0.00000  Uiso   1.00
H929   H     0.32232   0.63087   0.29469   0.00000  Uiso   1.00
H930   H     0.17768   0.86913   0.70532   0.00000  Uiso   1.00
H931   H     0.13089   0.67770   0.29467   0.00000  Uiso   1.00
H932   H     0.07230   0.61911   0.20533   0.00000  Uiso   1.00
H933   H     0.36912   0.82231   0.70532   0.00000  Uiso   1.00
H934   H     0.17765   0.86917   0.29473   0.00000  Uiso   1.00
H935   H     0.32232   0.63086   0.70530   0.00000  Uiso   1.00
H936   H     0.19804   0.52688   0.09737   0.00000  Uiso   1.00
H937   H     0.30259   0.52586   0.90260   0.00000  Uiso   1.00
H938   H     0.47414   0.69741   0.09740   0.00000  Uiso   1.00
H939   H     0.47312   0.80196   0.90263   0.00000  Uiso   1.00
H940   H     0.30166   0.97183   0.09824   0.00000  Uiso   1.00
H941   H     0.19781   0.97269   0.90209   0.00000  Uiso   1.00
H942   H     0.02731   0.80219   0.09791   0.00000  Uiso   1.00
H943   H     0.42769   0.88088   0.79467   0.00000  Uiso   1.00
H944   H     0.02817   0.69834   0.90176   0.00000  Uiso   1.00
H945   H     0.44906   0.77901   0.59753   0.00000  Uiso   1.00
H946   H     0.05132   0.77833   0.40210   0.00000  Uiso   1.00
H947   H     0.22391   0.94762   0.59730   0.00000  Uiso   1.00
H948   H     0.22364   0.55218   0.40269   0.00000  Uiso   1.00
H949   H     0.05100   0.72094   0.59801   0.00000  Uiso   1.00
H950   H     0.44874   0.72138   0.40238   0.00000  Uiso   1.00
H951   H     0.27786   0.55200   0.59804   0.00000  Uiso   1.00
H952   H     0.27799   0.94819   0.40172   0.00000  Uiso   1.00
H953   H     0.20676   0.58211   0.04147   0.00000  Uiso   1.00
H954   H     0.38087   0.57231   0.20531   0.00000  Uiso   1.00
H955   H     0.22000   0.56996   0.99227   0.00000  Uiso   1.00
H956   H     0.14179   0.58308   0.02100   0.00000  Uiso   1.00
H957   H     0.16922   0.61404   0.99255   0.00000  Uiso   1.00
H958   H     0.15510   0.57092   0.97213   0.00000  Uiso   1.00
H959   H     0.29571   0.58101   0.95821   0.00000  Uiso   1.00
H960   H     0.28231   0.56957   0.00755   0.00000  Uiso   1.00
H961   H     0.36080   0.58000   0.97839   0.00000  Uiso   1.00
H962   H     0.33450   0.61211   0.00662   0.00000  Uiso   1.00
H963   H     0.34727   0.56873   0.02742   0.00000  Uiso   1.00
H964   H     0.41899   0.70429   0.04179   0.00000  Uiso   1.00
H965   H     0.11914   0.92768   0.79469   0.00000  Uiso   1.00
H966   H     0.43043   0.71769   0.99245   0.00000  Uiso   1.00
H967   H     0.42000   0.63920   0.02161   0.00000  Uiso   1.00
H968   H     0.38789   0.66550   0.99338   0.00000  Uiso   1.00
H969   H     0.43127   0.65273   0.97258   0.00000  Uiso   1.00
H970   H     0.41789   0.79324   0.95853   0.00000  Uiso   1.00
H971   H     0.43004   0.78000   0.00773   0.00000  Uiso   1.00
H972   H     0.41692   0.85821   0.97900   0.00000  Uiso   1.00
H973   H     0.38595   0.83078   0.00746   0.00000  Uiso   1.00
H974   H     0.42907   0.84490   0.02787   0.00000  Uiso   1.00
H975   H     0.32207   0.92338   0.05940   0.00000  Uiso   1.00
H976   H     0.42763   0.88082   0.20524   0.00000  Uiso   1.00
H977   H     0.28027   0.91479   0.03262   0.00000  Uiso   1.00
H978   H     0.35770   0.91828   0.99851   0.00000  Uiso   1.00
H979   H     0.33084   0.87778   0.00717   0.00000  Uiso   1.00
H980   H     0.31606   0.91070   0.97149   0.00000  Uiso   1.00
H981   H     0.19643   0.91679   0.94829   0.00000  Uiso   1.00
H982   H     0.22527   0.92144   0.99088   0.00000  Uiso   1.00
H983   H     0.14152   0.91624   0.99059   0.00000  Uiso   1.00
H984   H     0.17317   0.88053   0.00363   0.00000  Uiso   1.00
H985   H     0.17024   0.92127   0.03296   0.00000  Uiso   1.00
H986   H     0.08322   0.80353   0.05169   0.00000  Uiso   1.00
H987   H     0.07236   0.61918   0.79476   0.00000  Uiso   1.00
H988   H     0.07854   0.77472   0.00908   0.00000  Uiso   1.00
H989   H     0.08377   0.85846   0.00942   0.00000  Uiso   1.00
H990   H     0.11947   0.82681   0.99634   0.00000  Uiso   1.00
H991   H     0.07872   0.82977   0.96704   0.00000  Uiso   1.00
H992   H     0.07660   0.67790   0.94059   0.00000  Uiso   1.00
H993   H     0.08521   0.71971   0.96733   0.00000  Uiso   1.00
H994   H     0.08172   0.64231   0.00151   0.00000  Uiso   1.00
H995   H     0.12223   0.66916   0.99281   0.00000  Uiso   1.00
H996   H     0.08932   0.68397   0.02849   0.00000  Uiso   1.00
H997   H     0.44955   0.83417   0.55008   0.00000  Uiso   1.00
H998   H     0.11917   0.57237   0.79475   0.00000  Uiso   1.00
H999   H     0.47860   0.82757   0.50795   0.00000  Uiso   1.00
H1000  H     0.39515   0.83623   0.50710   0.00000  Uiso   1.00
H1001  H     0.42844   0.87027   0.49361   0.00000  Uiso   1.00
H1002  H     0.42403   0.82910   0.46520   0.00000  Uiso   1.00
H1003  H     0.07643   0.82342   0.44165   0.00000  Uiso   1.00
H1004  H     0.03289   0.83434   0.46398   0.00000  Uiso   1.00
H1005  H     0.10699   0.82957   0.50546   0.00000  Uiso   1.00
H1006  H     0.08240   0.87057   0.49278   0.00000  Uiso   1.00
H1007  H     0.06356   0.83942   0.52810   0.00000  Uiso   1.00
H1008  H     0.16884   0.95547   0.54084   0.00000  Uiso   1.00
O1009  O     0.25000   0.50000   0.25000   0.00000  Uiso   1.00
O1010  O     0.25000   0.96964   0.66317   0.00000  Uiso   1.00
O1011  O     0.46964   0.75000   0.33683   0.00000  Uiso   1.00
O1012  O     0.03036   0.75000   0.66317   0.00000  Uiso   1.00
O1013  O    -0.00000   0.71964   0.83683   0.00000  Uiso   1.00
O1014  O     0.00000   0.78036   0.16317   0.00000  Uiso   1.00
O1015  O     0.28036   0.50000   0.83683   0.00000  Uiso   1.00
O1016  O     0.21964   0.50000   0.16317   0.00000  Uiso   1.00
O1017  O    -0.00000   0.78036   0.83683   0.00000  Uiso   1.00
O1018  O     0.00000   0.71964   0.16317   0.00000  Uiso   1.00
O1019  O     0.21964   0.50000   0.83683   0.00000  Uiso   1.00
O1020  O     0.25000   0.50000   0.75000   0.00000  Uiso   1.00
O1021  O     0.28036   0.50000   0.16317   0.00000  Uiso   1.00
O1022  O     0.20725   0.57307   0.27282   0.00000  Uiso   1.00
O1023  O     0.29274   0.92693   0.72718   0.00000  Uiso   1.00
O1024  O     0.42693   0.70725   0.27282   0.00000  Uiso   1.00
O1025  O     0.07307   0.79274   0.72718   0.00000  Uiso   1.00
O1026  O     0.29274   0.92693   0.27282   0.00000  Uiso   1.00
O1027  O     0.20725   0.57307   0.72718   0.00000  Uiso   1.00
O1028  O     0.07307   0.79274   0.27282   0.00000  Uiso   1.00
O1029  O     0.42693   0.70725   0.72718   0.00000  Uiso   1.00
O1030  O     0.20725   0.92693   0.72718   0.00000  Uiso   1.00
O1031  O     0.00000   0.75000   0.25000   0.00000  Uiso   1.00
O1032  O     0.29274   0.57307   0.27282   0.00000  Uiso   1.00
O1033  O     0.42693   0.79274   0.72718   0.00000  Uiso   1.00
O1034  O     0.07307   0.70725   0.27282   0.00000  Uiso   1.00
O1035  O     0.29274   0.57307   0.72718   0.00000  Uiso   1.00
O1036  O     0.20725   0.92693   0.27282   0.00000  Uiso   1.00
O1037  O     0.07307   0.70725   0.72718   0.00000  Uiso   1.00
O1038  O     0.42693   0.79274   0.27282   0.00000  Uiso   1.00
O1039  O     0.45725   0.82307   0.77282   0.00000  Uiso   1.00
O1040  O     0.04274   0.67693   0.22718   0.00000  Uiso   1.00
O1041  O     0.17693   0.95725   0.77282   0.00000  Uiso   1.00
O1042  O    -0.00000   0.75000   0.75000   0.00000  Uiso   1.00
O1043  O     0.32307   0.54274   0.22718   0.00000  Uiso   1.00
O1044  O     0.04274   0.67693   0.77282   0.00000  Uiso   1.00
O1045  O     0.45725   0.82307   0.22718   0.00000  Uiso   1.00
O1046  O     0.32307   0.54274   0.77282   0.00000  Uiso   1.00
O1047  O     0.17693   0.95725   0.22718   0.00000  Uiso   1.00
O1048  O     0.45725   0.67693   0.22718   0.00000  Uiso   1.00
O1049  O     0.04274   0.82307   0.77282   0.00000  Uiso   1.00
O1050  O     0.17693   0.54274   0.22718   0.00000  Uiso   1.00
O1051  O     0.32307   0.95725   0.77282   0.00000  Uiso   1.00
O1052  O     0.04274   0.82307   0.22718   0.00000  Uiso   1.00
O1053  O     0.25000   0.96964   0.33683   0.00000  Uiso   1.00
O1054  O     0.45725   0.67693   0.77282   0.00000  Uiso   1.00
O1055  O     0.32307   0.95725   0.22718   0.00000  Uiso   1.00
O1056  O     0.17693   0.54274   0.77282   0.00000  Uiso   1.00
O1057  O     0.19145   0.53005   0.02231   0.00000  Uiso   1.00
O1058  O     0.30948   0.52862   0.97769   0.00000  Uiso   1.00
O1059  O     0.47138   0.69052   0.02231   0.00000  Uiso   1.00
O1060  O     0.46995   0.80855   0.97769   0.00000  Uiso   1.00
O1061  O     0.30653   0.96474   0.02168   0.00000  Uiso   1.00
O1062  O     0.19248   0.96635   0.97753   0.00000  Uiso   1.00
O1063  O     0.03365   0.80752   0.02247   0.00000  Uiso   1.00
O1064  O     0.25000   0.53036   0.66317   0.00000  Uiso   1.00
O1065  O     0.03526   0.69348   0.97831   0.00000  Uiso   1.00
O1066  O     0.44384   0.78428   0.52186   0.00000  Uiso   1.00
O1067  O     0.05642   0.78394   0.47920   0.00000  Uiso   1.00
O1068  O     0.22126   0.94081   0.52221   0.00000  Uiso   1.00
O1069  O     0.22078   0.55887   0.47777   0.00000  Uiso   1.00
O1070  O     0.05605   0.71505   0.52098   0.00000  Uiso   1.00
O1071  O     0.44347   0.71595   0.47807   0.00000  Uiso   1.00
O1072  O     0.28446   0.55733   0.52263   0.00000  Uiso   1.00
O1073  O     0.28530   0.94336   0.47828   0.00000  Uiso   1.00
O1074  O     0.03036   0.75000   0.33683   0.00000  Uiso   1.00
O1075  O     0.46964   0.75000   0.66317   0.00000  Uiso   1.00
O1076  O     0.25000   0.53036   0.33683   0.00000  Uiso   1.00
Zn1077 Zn    0.20660   0.50000   0.21760   0.00000  Uiso   1.00
Zn1078 Zn    0.04340   0.75000   0.28240   0.00000  Uiso   1.00
Zn1079 Zn    0.25000   0.95660   0.71760   0.00000  Uiso   1.00
Zn1080 Zn    0.25000   0.54340   0.28240   0.00000  Uiso   1.00
Zn1081 Zn    0.04340   0.75000   0.71760   0.00000  Uiso   1.00
Zn1082 Zn    0.45660   0.75000   0.28240   0.00000  Uiso   1.00
Zn1083 Zn    0.25000   0.54340   0.71760   0.00000  Uiso   1.00
Zn1084 Zn    0.25000   0.95660   0.28240   0.00000  Uiso   1.00
Zn1085 Zn    0.29340   0.50000   0.78240   0.00000  Uiso   1.00
Zn1086 Zn   -0.00000   0.70660   0.21760   0.00000  Uiso   1.00
Zn1087 Zn    0.00000   0.79340   0.78240   0.00000  Uiso   1.00
Zn1088 Zn    0.29340   0.50000   0.21760   0.00000  Uiso   1.00
Zn1089 Zn    0.20660   0.50000   0.78240   0.00000  Uiso   1.00
Zn1090 Zn    0.00000   0.79340   0.21760   0.00000  Uiso   1.00
Zn1091 Zn    0.00000   0.70660   0.78240   0.00000  Uiso   1.00
Zn1092 Zn    0.45660   0.75000   0.71760   0.00000  Uiso   1.00
C1093  C     0.72100   0.51530   0.04164   0.00000  Uiso   1.00
C1094  C     0.52845   0.76750   0.45850   0.00000  Uiso   1.00
C1095  C     0.84814   0.90186   0.75000   0.00000  Uiso   1.00
C1096  C     0.90186   0.65186   0.25000   0.00000  Uiso   1.00
C1097  C     0.59814   0.84814   0.75000   0.00000  Uiso   1.00
C1098  C     0.84814   0.90186   0.25000   0.00000  Uiso   1.00
C1099  C     0.65186   0.59814   0.75000   0.00000  Uiso   1.00
C1100  C     0.59814   0.65186   0.75000   0.00000  Uiso   1.00
C1101  C     0.90186   0.84814   0.25000   0.00000  Uiso   1.00
C1102  C     0.65186   0.90186   0.75000   0.00000  Uiso   1.00
C1103  C     0.84814   0.59814   0.25000   0.00000  Uiso   1.00
C1104  C     0.90186   0.84814   0.75000   0.00000  Uiso   1.00
C1105  C     0.73541   0.97065   0.54156   0.00000  Uiso   1.00
C1106  C     0.59814   0.65186   0.25000   0.00000  Uiso   1.00
C1107  C     0.84814   0.59814   0.75000   0.00000  Uiso   1.00
C1108  C     0.65186   0.90186   0.25000   0.00000  Uiso   1.00
C1109  C     0.74998   0.99950   0.10248   0.00000  Uiso   1.00
C1110  C     0.75003   0.99964   0.89753   0.00000  Uiso   1.00
C1111  C     0.50036   0.74997   0.10247   0.00000  Uiso   1.00
C1112  C     0.50050   0.75002   0.89752   0.00000  Uiso   1.00
C1113  C     0.99999   0.74977   0.60244   0.00000  Uiso   1.00
C1114  C     0.50000   0.75007   0.39757   0.00000  Uiso   1.00
C1115  C     0.75050   0.99998   0.60247   0.00000  Uiso   1.00
C1116  C     0.73526   0.52920   0.45840   0.00000  Uiso   1.00
C1117  C     0.75063   0.50005   0.39752   0.00000  Uiso   1.00
C1118  C     0.69843   0.56719   0.01471   0.00000  Uiso   1.00
C1119  C     0.66393   0.58489   0.99912   0.00000  Uiso   1.00
C1120  C     0.80369   0.56600   0.98503   0.00000  Uiso   1.00
C1121  C     0.83881   0.58273   0.00033   0.00000  Uiso   1.00
C1122  C     0.93399   0.69631   0.01497   0.00000  Uiso   1.00
C1123  C     0.91727   0.66120   0.99967   0.00000  Uiso   1.00
C1124  C     0.93281   0.80157   0.98529   0.00000  Uiso   1.00
C1125  C     0.91511   0.83607   0.00088   0.00000  Uiso   1.00
C1126  C     0.80797   0.92730   0.03118   0.00000  Uiso   1.00
C1127  C     0.52823   0.73182   0.54158   0.00000  Uiso   1.00
C1128  C     0.82952   0.90728   0.00010   0.00000  Uiso   1.00
C1129  C     0.69821   0.92831   0.97810   0.00000  Uiso   1.00
C1130  C     0.66891   0.91049   0.00289   0.00000  Uiso   1.00
C1131  C     0.57169   0.80177   0.02187   0.00000  Uiso   1.00
C1132  C     0.58951   0.83108   0.99710   0.00000  Uiso   1.00
C1133  C     0.57270   0.69202   0.96880   0.00000  Uiso   1.00
C1134  C     0.59273   0.67048   0.99988   0.00000  Uiso   1.00
C1135  C     0.95115   0.82203   0.52053   0.00000  Uiso   1.00
C1136  C     0.92288   0.84054   0.49499   0.00000  Uiso   1.00
C1137  C     0.55989   0.82099   0.46853   0.00000  Uiso   1.00
C1138  C     0.97169   0.73264   0.45830   0.00000  Uiso   1.00
C1139  C     0.57947   0.84140   0.50077   0.00000  Uiso   1.00
C1140  C     0.68407   0.94719   0.51427   0.00000  Uiso   1.00
C1141  C     0.66699   0.91233   0.49880   0.00000  Uiso   1.00
C1142  C     0.68356   0.55224   0.48530   0.00000  Uiso   1.00
C1143  C     0.66618   0.58692   0.50086   0.00000  Uiso   1.00
C1144  C     0.55869   0.67787   0.53137   0.00000  Uiso   1.00
C1145  C     0.57857   0.65740   0.49938   0.00000  Uiso   1.00
C1146  C     0.94985   0.67801   0.47861   0.00000  Uiso   1.00
C1147  C     0.92120   0.65975   0.50388   0.00000  Uiso   1.00
C1148  C     0.82243   0.55120   0.52197   0.00000  Uiso   1.00
C1149  C     0.76797   0.52875   0.54200   0.00000  Uiso   1.00
C1150  C     0.84055   0.58053   0.49747   0.00000  Uiso   1.00
C1151  C     0.82267   0.94149   0.46851   0.00000  Uiso   1.00
C1152  C     0.84266   0.91977   0.49947   0.00000  Uiso   1.00
C1153  C     0.76865   0.97151   0.45811   0.00000  Uiso   1.00
C1154  C     0.72075   0.51467   0.08204   0.00000  Uiso   1.00
C1155  C     0.77962   0.51418   0.91795   0.00000  Uiso   1.00
C1156  C     0.98582   0.72038   0.08205   0.00000  Uiso   1.00
C1157  C     0.77951   0.51470   0.95838   0.00000  Uiso   1.00
C1158  C     0.98532   0.77924   0.91796   0.00000  Uiso   1.00
C1159  C     0.77898   0.98347   0.08241   0.00000  Uiso   1.00
C1160  C     0.72069   0.98429   0.91767   0.00000  Uiso   1.00
C1161  C     0.51571   0.77931   0.08233   0.00000  Uiso   1.00
C1162  C     0.51653   0.72102   0.91759   0.00000  Uiso   1.00
C1163  C     0.97133   0.76614   0.58210   0.00000  Uiso   1.00
C1164  C     0.52884   0.76624   0.41786   0.00000  Uiso   1.00
C1165  C     0.73581   0.97051   0.58199   0.00000  Uiso   1.00
C1166  C     0.73574   0.52940   0.41800   0.00000  Uiso   1.00
C1167  C     0.52865   0.73322   0.58221   0.00000  Uiso   1.00
C1168  C     0.98530   0.72049   0.04162   0.00000  Uiso   1.00
C1169  C     0.97118   0.73392   0.41786   0.00000  Uiso   1.00
C1170  C     0.76613   0.52922   0.58240   0.00000  Uiso   1.00
C1171  C     0.76657   0.97097   0.41757   0.00000  Uiso   1.00
C1172  C     0.74993   0.99854   0.02135   0.00000  Uiso   1.00
C1173  C     0.75023   0.99858   0.97869   0.00000  Uiso   1.00
C1174  C     0.50142   0.74977   0.02131   0.00000  Uiso   1.00
C1175  C     0.50146   0.75007   0.97865   0.00000  Uiso   1.00
C1176  C     0.50011   0.74969   0.52133   0.00000  Uiso   1.00
C1177  C     0.50014   0.74985   0.47869   0.00000  Uiso   1.00
C1178  C     0.75180   0.99982   0.52132   0.00000  Uiso   1.00
C1179  C     0.98470   0.77900   0.95836   0.00000  Uiso   1.00
C1180  C     0.75189   0.50017   0.47865   0.00000  Uiso   1.00
C1181  C     0.75004   0.50000   0.35519   0.00000  Uiso   1.00
C1182  C     0.75003   0.50000   0.64481   0.00000  Uiso   1.00
C1183  C     0.50000   0.75001   0.35521   0.00000  Uiso   1.00
C1184  C     0.50000   0.74997   0.64480   0.00000  Uiso   1.00
C1185  C     0.50002   0.75000   0.85519   0.00000  Uiso   1.00
C1186  C     0.50001   0.75000   0.14481   0.00000  Uiso   1.00
C1187  C     0.75000   0.99999   0.85519   0.00000  Uiso   1.00
C1188  C     0.75000   0.99997   0.14481   0.00000  Uiso   1.00
C1189  C     0.67992   0.57008   0.25000   0.00000  Uiso   1.00
C1190  C     0.77847   0.98153   0.04186   0.00000  Uiso   1.00
C1191  C     0.82008   0.92992   0.75000   0.00000  Uiso   1.00
C1192  C     0.92992   0.67992   0.25000   0.00000  Uiso   1.00
C1193  C     0.57008   0.82008   0.75000   0.00000  Uiso   1.00
C1194  C     0.82008   0.92992   0.25000   0.00000  Uiso   1.00
C1195  C     0.67992   0.57008   0.75000   0.00000  Uiso   1.00
C1196  C     0.57008   0.82008   0.25000   0.00000  Uiso   1.00
C1197  C     0.92992   0.67992   0.75000   0.00000  Uiso   1.00
C1198  C     0.67992   0.92992   0.75000   0.00000  Uiso   1.00
C1199  C     0.82008   0.57008   0.25000   0.00000  Uiso   1.00
C1200  C     0.92992   0.82008   0.75000   0.00000  Uiso   1.00
C1201  C     0.72116   0.98257   0.95808   0.00000  Uiso   1.00
C1202  C     0.57008   0.67992   0.25000   0.00000  Uiso   1.00
C1203  C     0.82008   0.57008   0.75000   0.00000  Uiso   1.00
C1204  C     0.67992   0.92992   0.25000   0.00000  Uiso   1.00
C1205  C     0.57008   0.67992   0.75000   0.00000  Uiso   1.00
C1206  C     0.92992   0.82008   0.25000   0.00000  Uiso   1.00
C1207  C     0.62194   0.90477   0.22490   0.00000  Uiso   1.00
C1208  C     0.87807   0.59521   0.77507   0.00000  Uiso   1.00
C1209  C     0.59520   0.62192   0.22494   0.00000  Uiso   1.00
C1210  C     0.90480   0.87808   0.77507   0.00000  Uiso   1.00
C1211  C     0.87807   0.59520   0.22493   0.00000  Uiso   1.00
C1212  C     0.51743   0.77884   0.04192   0.00000  Uiso   1.00
C1213  C     0.62193   0.90479   0.77508   0.00000  Uiso   1.00
C1214  C     0.90476   0.87804   0.22489   0.00000  Uiso   1.00
C1215  C     0.59523   0.62196   0.77511   0.00000  Uiso   1.00
C1216  C     0.62195   0.59523   0.77511   0.00000  Uiso   1.00
C1217  C     0.87804   0.90476   0.22488   0.00000  Uiso   1.00
C1218  C     0.59521   0.87807   0.77508   0.00000  Uiso   1.00
C1219  C     0.90479   0.62193   0.22493   0.00000  Uiso   1.00
C1220  C     0.87808   0.90480   0.77507   0.00000  Uiso   1.00
C1221  C     0.62192   0.59520   0.22494   0.00000  Uiso   1.00
C1222  C     0.90479   0.62193   0.77507   0.00000  Uiso   1.00
C1223  C     0.51847   0.72153   0.95814   0.00000  Uiso   1.00
C1224  C     0.59522   0.87805   0.22490   0.00000  Uiso   1.00
C1225  C     0.87193   0.65479   0.72492   0.00000  Uiso   1.00
C1226  C     0.62805   0.84523   0.27510   0.00000  Uiso   1.00
C1227  C     0.84520   0.87192   0.72493   0.00000  Uiso   1.00
C1228  C     0.65480   0.62808   0.27506   0.00000  Uiso   1.00
C1229  C     0.62807   0.84520   0.72493   0.00000  Uiso   1.00
C1230  C     0.87193   0.65479   0.27508   0.00000  Uiso   1.00
C1231  C     0.65477   0.62804   0.72489   0.00000  Uiso   1.00
C1232  C     0.84524   0.87196   0.27512   0.00000  Uiso   1.00
C1233  C     0.87196   0.84524   0.27512   0.00000  Uiso   1.00
C1234  C     0.97184   0.76726   0.54166   0.00000  Uiso   1.00
C1235  C     0.62804   0.65477   0.72489   0.00000  Uiso   1.00
C1236  C     0.84521   0.62807   0.27508   0.00000  Uiso   1.00
C1237  C     0.65479   0.87193   0.72493   0.00000  Uiso   1.00
C1238  C     0.62808   0.65480   0.27506   0.00000  Uiso   1.00
C1239  C     0.87192   0.84520   0.72493   0.00000  Uiso   1.00
C1240  C     0.65478   0.87195   0.27510   0.00000  Uiso   1.00
C1241  C     0.84521   0.62806   0.72492   0.00000  Uiso   1.00
C1242  C     0.59814   0.84814   0.25000   0.00000  Uiso   1.00
C1243  C     0.90186   0.65186   0.75000   0.00000  Uiso   1.00
C1244  C     0.65186   0.59814   0.25000   0.00000  Uiso   1.00
H1245  H     0.61915   0.92765   0.20527   0.00000  Uiso   1.00
H1246  H     0.88082   0.92763   0.20524   0.00000  Uiso   1.00
H1247  H     0.68115   0.96856   0.49164   0.00000  Uiso   1.00
H1248  H     0.66897   0.89036   0.52086   0.00000  Uiso   1.00
H1249  H     0.63781   0.91715   0.49194   0.00000  Uiso   1.00
H1250  H     0.68128   0.90353   0.47199   0.00000  Uiso   1.00
H1251  H     0.66860   0.54405   0.45853   0.00000  Uiso   1.00
H1252  H     0.68056   0.53071   0.50775   0.00000  Uiso   1.00
H1253  H     0.66825   0.60904   0.47899   0.00000  Uiso   1.00
H1254  H     0.63696   0.58192   0.50738   0.00000  Uiso   1.00
H1255  H     0.68018   0.59561   0.52788   0.00000  Uiso   1.00
H1256  H     0.57463   0.67492   0.55860   0.00000  Uiso   1.00
H1257  H     0.57232   0.88087   0.79469   0.00000  Uiso   1.00
H1258  H     0.53137   0.66495   0.53516   0.00000  Uiso   1.00
H1259  H     0.58085   0.62811   0.50715   0.00000  Uiso   1.00
H1260  H     0.56325   0.65986   0.47172   0.00000  Uiso   1.00
H1261  H     0.60637   0.66880   0.49544   0.00000  Uiso   1.00
H1262  H     0.94785   0.66642   0.44885   0.00000  Uiso   1.00
H1263  H     0.97720   0.67162   0.49098   0.00000  Uiso   1.00
H1264  H     0.89355   0.66504   0.49203   0.00000  Uiso   1.00
H1265  H     0.92595   0.62985   0.50457   0.00000  Uiso   1.00
H1266  H     0.92279   0.67056   0.53392   0.00000  Uiso   1.00
H1267  H     0.83399   0.55258   0.55179   0.00000  Uiso   1.00
H1268  H     0.92768   0.61913   0.20531   0.00000  Uiso   1.00
H1269  H     0.82899   0.52419   0.50890   0.00000  Uiso   1.00
H1270  H     0.83507   0.60787   0.51004   0.00000  Uiso   1.00
H1271  H     0.87047   0.57599   0.49670   0.00000  Uiso   1.00
H1272  H     0.82976   0.57957   0.46739   0.00000  Uiso   1.00
H1273  H     0.82625   0.92730   0.44028   0.00000  Uiso   1.00
H1274  H     0.83546   0.96906   0.46692   0.00000  Uiso   1.00
H1275  H     0.83128   0.89177   0.50129   0.00000  Uiso   1.00
H1276  H     0.87208   0.91800   0.49211   0.00000  Uiso   1.00
H1277  H     0.83969   0.93339   0.52806   0.00000  Uiso   1.00
H1278  H     0.88089   0.92770   0.79467   0.00000  Uiso   1.00
H1279  H     0.61911   0.57230   0.20533   0.00000  Uiso   1.00
H1280  H     0.92768   0.61914   0.79469   0.00000  Uiso   1.00
H1281  H     0.57234   0.88083   0.20527   0.00000  Uiso   1.00
H1282  H     0.86913   0.67767   0.70531   0.00000  Uiso   1.00
H1283  H     0.63084   0.82235   0.29474   0.00000  Uiso   1.00
H1284  H     0.82231   0.86912   0.70532   0.00000  Uiso   1.00
H1285  H     0.88087   0.57232   0.79469   0.00000  Uiso   1.00
H1286  H     0.67770   0.63089   0.29467   0.00000  Uiso   1.00
H1287  H     0.63087   0.82231   0.70532   0.00000  Uiso   1.00
H1288  H     0.86914   0.67768   0.29469   0.00000  Uiso   1.00
H1289  H     0.67764   0.63082   0.70525   0.00000  Uiso   1.00
H1290  H     0.82237   0.86919   0.29476   0.00000  Uiso   1.00
H1291  H     0.86918   0.82237   0.29476   0.00000  Uiso   1.00
H1292  H     0.63082   0.67763   0.70524   0.00000  Uiso   1.00
H1293  H     0.82232   0.63087   0.29469   0.00000  Uiso   1.00
H1294  H     0.67768   0.86913   0.70532   0.00000  Uiso   1.00
H1295  H     0.63089   0.67770   0.29467   0.00000  Uiso   1.00
H1296  H     0.57230   0.61911   0.20533   0.00000  Uiso   1.00
H1297  H     0.86912   0.82231   0.70532   0.00000  Uiso   1.00
H1298  H     0.67765   0.86917   0.29473   0.00000  Uiso   1.00
H1299  H     0.82232   0.63086   0.70530   0.00000  Uiso   1.00
H1300  H     0.69804   0.52688   0.09737   0.00000  Uiso   1.00
H1301  H     0.80259   0.52586   0.90260   0.00000  Uiso   1.00
H1302  H     0.97414   0.69741   0.09740   0.00000  Uiso   1.00
H1303  H     0.97312   0.80196   0.90263   0.00000  Uiso   1.00
H1304  H     0.80166   0.97183   0.09824   0.00000  Uiso   1.00
H1305  H     0.69781   0.97269   0.90209   0.00000  Uiso   1.00
H1306  H     0.52731   0.80219   0.09791   0.00000  Uiso   1.00
H1307  H     0.92769   0.88088   0.79467   0.00000  Uiso   1.00
H1308  H     0.52817   0.69834   0.90176   0.00000  Uiso   1.00
H1309  H     0.94906   0.77901   0.59753   0.00000  Uiso   1.00
H1310  H     0.55132   0.77833   0.40210   0.00000  Uiso   1.00
H1311  H     0.72391   0.94762   0.59730   0.00000  Uiso   1.00
H1312  H     0.72364   0.55218   0.40269   0.00000  Uiso   1.00
H1313  H     0.55100   0.72094   0.59801   0.00000  Uiso   1.00
H1314  H     0.94874   0.72138   0.40238   0.00000  Uiso   1.00
H1315  H     0.77786   0.55200   0.59804   0.00000  Uiso   1.00
H1316  H     0.77799   0.94819   0.40172   0.00000  Uiso   1.00
H1317  H     0.70676   0.58211   0.04147   0.00000  Uiso   1.00
H1318  H     0.88087   0.57231   0.20531   0.00000  Uiso   1.00
H1319  H     0.72000   0.56996   0.99227   0.00000  Uiso   1.00
H1320  H     0.64179   0.58308   0.02100   0.00000  Uiso   1.00
H1321  H     0.66922   0.61404   0.99255   0.00000  Uiso   1.00
H1322  H     0.65510   0.57092   0.97213   0.00000  Uiso   1.00
H1323  H     0.79571   0.58101   0.95821   0.00000  Uiso   1.00
H1324  H     0.78231   0.56957   0.00755   0.00000  Uiso   1.00
H1325  H     0.86080   0.58000   0.97839   0.00000  Uiso   1.00
H1326  H     0.83450   0.61211   0.00662   0.00000  Uiso   1.00
H1327  H     0.84727   0.56873   0.02742   0.00000  Uiso   1.00
H1328  H     0.91899   0.70429   0.04179   0.00000  Uiso   1.00
H1329  H     0.61914   0.92768   0.79469   0.00000  Uiso   1.00
H1330  H     0.93043   0.71769   0.99245   0.00000  Uiso   1.00
H1331  H     0.92000   0.63920   0.02161   0.00000  Uiso   1.00
H1332  H     0.88789   0.66550   0.99338   0.00000  Uiso   1.00
H1333  H     0.93127   0.65273   0.97258   0.00000  Uiso   1.00
H1334  H     0.91789   0.79324   0.95853   0.00000  Uiso   1.00
H1335  H     0.93004   0.78000   0.00773   0.00000  Uiso   1.00
H1336  H     0.91692   0.85821   0.97900   0.00000  Uiso   1.00
H1337  H     0.88595   0.83078   0.00746   0.00000  Uiso   1.00
H1338  H     0.92907   0.84490   0.02787   0.00000  Uiso   1.00
H1339  H     0.82207   0.92338   0.05940   0.00000  Uiso   1.00
H1340  H     0.92763   0.88082   0.20524   0.00000  Uiso   1.00
H1341  H     0.78027   0.91479   0.03262   0.00000  Uiso   1.00
H1342  H     0.85770   0.91828   0.99851   0.00000  Uiso   1.00
H1343  H     0.83084   0.87778   0.00717   0.00000  Uiso   1.00
H1344  H     0.81606   0.91070   0.97149   0.00000  Uiso   1.00
H1345  H     0.69643   0.91679   0.94829   0.00000  Uiso   1.00
H1346  H     0.72527   0.92144   0.99088   0.00000  Uiso   1.00
H1347  H     0.64152   0.91624   0.99059   0.00000  Uiso   1.00
H1348  H     0.67317   0.88053   0.00363   0.00000  Uiso   1.00
H1349  H     0.67024   0.92127   0.03296   0.00000  Uiso   1.00
H1350  H     0.58322   0.80353   0.05169   0.00000  Uiso   1.00
H1351  H     0.57236   0.61918   0.79476   0.00000  Uiso   1.00
H1352  H     0.57854   0.77472   0.00908   0.00000  Uiso   1.00
H1353  H     0.58377   0.85846   0.00942   0.00000  Uiso   1.00
H1354  H     0.61947   0.82681   0.99634   0.00000  Uiso   1.00
H1355  H     0.57872   0.82977   0.96704   0.00000  Uiso   1.00
H1356  H     0.57660   0.67790   0.94059   0.00000  Uiso   1.00
H1357  H     0.58521   0.71971   0.96733   0.00000  Uiso   1.00
H1358  H     0.58172   0.64231   0.00151   0.00000  Uiso   1.00
H1359  H     0.62223   0.66916   0.99281   0.00000  Uiso   1.00
H1360  H     0.58932   0.68397   0.02849   0.00000  Uiso   1.00
H1361  H     0.94955   0.83417   0.55008   0.00000  Uiso   1.00
H1362  H     0.61917   0.57237   0.79475   0.00000  Uiso   1.00
H1363  H     0.97860   0.82757   0.50795   0.00000  Uiso   1.00
H1364  H     0.89515   0.83623   0.50710   0.00000  Uiso   1.00
H1365  H     0.92844   0.87027   0.49361   0.00000  Uiso   1.00
H1366  H     0.92403   0.82910   0.46520   0.00000  Uiso   1.00
H1367  H     0.57643   0.82342   0.44165   0.00000  Uiso   1.00
H1368  H     0.53289   0.83434   0.46398   0.00000  Uiso   1.00
H1369  H     0.60699   0.82957   0.50546   0.00000  Uiso   1.00
H1370  H     0.58240   0.87057   0.49278   0.00000  Uiso   1.00
H1371  H     0.56356   0.83942   0.52810   0.00000  Uiso   1.00
H1372  H     0.66884   0.95547   0.54084   0.00000  Uiso   1.00
O1373  O     0.75000   0.50000   0.25000   0.00000  Uiso   1.00
O1374  O     0.75000   0.96964   0.66317   0.00000  Uiso   1.00
O1375  O     0.96964   0.75000   0.33683   0.00000  Uiso   1.00
O1376  O     0.53036   0.75000   0.66317   0.00000  Uiso   1.00
O1377  O     0.50000   0.71964   0.83683   0.00000  Uiso   1.00
O1378  O     0.50000   0.78036   0.16317   0.00000  Uiso   1.00
O1379  O     0.78036   0.50000   0.83683   0.00000  Uiso   1.00
O1380  O     0.71964   0.50000   0.16317   0.00000  Uiso   1.00
O1381  O     0.50000   0.78036   0.83683   0.00000  Uiso   1.00
O1382  O     0.50000   0.71964   0.16317   0.00000  Uiso   1.00
O1383  O     0.71964   0.50000   0.83683   0.00000  Uiso   1.00
O1384  O     0.75000   0.50000   0.75000   0.00000  Uiso   1.00
O1385  O     0.78036   0.50000   0.16317   0.00000  Uiso   1.00
O1386  O     0.70725   0.57307   0.27282   0.00000  Uiso   1.00
O1387  O     0.79274   0.92693   0.72718   0.00000  Uiso   1.00
O1388  O     0.92693   0.70725   0.27282   0.00000  Uiso   1.00
O1389  O     0.57307   0.79274   0.72718   0.00000  Uiso   1.00
O1390  O     0.79274   0.92693   0.27282   0.00000  Uiso   1.00
O1391  O     0.70725   0.57307   0.72718   0.00000  Uiso   1.00
O1392  O     0.57307   0.79274   0.27282   0.00000  Uiso   1.00
O1393  O     0.92693   0.70725   0.72718   0.00000  Uiso   1.00
O1394  O     0.70725   0.92693   0.72718   0.00000  Uiso   1.00
O1395  O     0.50000   0.75000   0.25000   0.00000  Uiso   1.00
O1396  O     0.79274   0.57307   0.27282   0.00000  Uiso   1.00
O1397  O     0.92693   0.79274   0.72718   0.00000  Uiso   1.00
O1398  O     0.57307   0.70725   0.27282   0.00000  Uiso   1.00
O1399  O     0.79274   0.57307   0.72718   0.00000  Uiso   1.00
O1400  O     0.70725   0.92693   0.27282   0.00000  Uiso   1.00
O1401  O     0.57307   0.70725   0.72718   0.00000  Uiso   1.00
O1402  O     0.92693   0.79274   0.27282   0.00000  Uiso   1.00
O1403  O     0.95725   0.82307   0.77282   0.00000  Uiso   1.00
O1404  O     0.54274   0.67693   0.22718   0.00000  Uiso   1.00
O1405  O     0.67693   0.95725   0.77282   0.00000  Uiso   1.00
O1406  O     0.50000   0.75000   0.75000   0.00000  Uiso   1.00
O1407  O     0.82307   0.54274   0.22718   0.00000  Uiso   1.00
O1408  O     0.54274   0.67693   0.77282   0.00000  Uiso   1.00
O1409  O     0.95725   0.82307   0.22718   0.00000  Uiso   1.00
O1410  O     0.82307   0.54274   0.77282   0.00000  Uiso   1.00
O1411  O     0.67693   0.95725   0.22718   0.00000  Uiso   1.00
O1412  O     0.95725   0.67693   0.22718   0.00000  Uiso   1.00
O1413  O     0.54274   0.82307   0.77282   0.00000  Uiso   1.00
O1414  O     0.67693   0.54274   0.22718   0.00000  Uiso   1.00
O1415  O     0.82307   0.95725   0.77282   0.00000  Uiso   1.00
O1416  O     0.54274   0.82307   0.22718   0.00000  Uiso   1.00
O1417  O     0.75000   0.96964   0.33683   0.00000  Uiso   1.00
O1418  O     0.95725   0.67693   0.77282   0.00000  Uiso   1.00
O1419  O     0.82307   0.95725   0.22718   0.00000  Uiso   1.00
O1420  O     0.67693   0.54274   0.77282   0.00000  Uiso   1.00
O1421  O     0.69145   0.53005   0.02231   0.00000  Uiso   1.00
O1422  O     0.80948   0.52862   0.97769   0.00000  Uiso   1.00
O1423  O     0.97138   0.69052   0.02231   0.00000  Uiso   1.00
O1424  O     0.96995   0.80855   0.97769   0.00000  Uiso   1.00
O1425  O     0.80653   0.96474   0.02168   0.00000  Uiso   1.00
O1426  O     0.69248   0.96635   0.97753   0.00000  Uiso   1.00
O1427  O     0.53365   0.80752   0.02247   0.00000  Uiso   1.00
O1428  O     0.75000   0.53036   0.66317   0.00000  Uiso   1.00
O1429  O     0.53526   0.69348   0.97831   0.00000  Uiso   1.00
O1430  O     0.94384   0.78428   0.52186   0.00000  Uiso   1.00
O1431  O     0.55642   0.78394   0.47920   0.00000  Uiso   1.00
O1432  O     0.72126   0.94081   0.52221   0.00000  Uiso   1.00
O1433  O     0.72078   0.55887   0.47777   0.00000  Uiso   1.00
O1434  O     0.55605   0.71505   0.52098   0.00000  Uiso   1.00
O1435  O     0.94347   0.71595   0.47807   0.00000  Uiso   1.00
O1436  O     0.78446   0.55733   0.52263   0.00000  Uiso   1.00
O1437  O     0.78530   0.94336   0.47828   0.00000  Uiso   1.00
O1438  O     0.53036   0.75000   0.33683   0.00000  Uiso   1.00
O1439  O     0.96964   0.75000   0.66317   0.00000  Uiso   1.00
O1440  O     0.75000   0.53036   0.33683   0.00000  Uiso   1.00
Zn1441 Zn    0.70660   0.50000   0.21760   0.00000  Uiso   1.00
Zn1442 Zn    0.54340   0.75000   0.28240   0.00000  Uiso   1.00
Zn1443 Zn    0.75000   0.95660   0.71760   0.00000  Uiso   1.00
Zn1444 Zn    0.75000   0.54340   0.28240   0.00000  Uiso   1.00
Zn1445 Zn    0.54340   0.75000   0.71760   0.00000  Uiso   1.00
Zn1446 Zn    0.95660   0.75000   0.28240   0.00000  Uiso   1.00
Zn1447 Zn    0.75000   0.54340   0.71760   0.00000  Uiso   1.00
Zn1448 Zn    0.75000   0.95660   0.28240   0.00000  Uiso   1.00
Zn1449 Zn    0.79340   0.50000   0.78240   0.00000  Uiso   1.00
Zn1450 Zn    0.50000   0.70660   0.21760   0.00000  Uiso   1.00
Zn1451 Zn    0.50000   0.79340   0.78240   0.00000  Uiso   1.00
Zn1452 Zn    0.79340   0.50000   0.21760   0.00000  Uiso   1.00
Zn1453 Zn    0.70660   0.50000   0.78240   0.00000  Uiso   1.00
Zn1454 Zn    0.50000   0.79340   0.21760   0.00000  Uiso   1.00
Zn1455 Zn    0.50000   0.70660   0.78240   0.00000  Uiso   1.00
Zn1456 Zn    0.95660   0.75000   0.71760   0.00000  Uiso   1.00
loop_
_geom_bond_atom_site_label_1
_geom_bond_atom_site_label_2
_geom_bond_distance
_geom_bond_site_symmetry_2
_ccdc_geom_bond_type
C1     O329    1.383   .     S
C1     C62     1.394   .     A
C1     C808    1.412   1_545 S
C2     O339    1.388   .     S
C2     C85     1.408   .     A
C2     C72     1.403   .     A
C3     C128    1.402   .     A
C3     C99     1.456   .     S
C3     C135    1.402   .     A
C4     C127    1.402   .     A
C4     C138    1.402   .     A
C4     C100    1.456   .     S
C5     C126    1.402   .     A
C5     C101    1.456   .     S
C5     C137    1.402   .     A
C6     C125    1.402   .     A
C6     C102    1.456   .     S
C6     C140    1.402   .     A
C7     C103    1.456   .     S
C7     C124    1.402   .     A
C7     C139    1.402   .     A
C8     C123    1.402   .     A
C8     C143    1.402   .     A
C8     C113    1.456   .     S
C9     C114    1.456   .     S
C9     C122    1.402   .     A
C9     C141    1.402   .     A
C10    C106    1.456   .     S
C10    C121    1.402   .     A
C10    C145    1.402   .     A
C11    C119    1.402   .     A
C11    C107    1.456   .     S
C11    C144    1.402   .     A
C12    C108    1.456   .     S
C12    C147    1.402   .     A
C12    C118    1.402   .     A
C13    C86     1.412   .     A
C13    O340    1.383   .     S
C13    C73     1.394   .     A
C14    C146    1.402   .     A
C14    C117    1.402   .     A
C14    C110    1.456   .     S
C15    C149    1.402   .     A
C15    C116    1.402   .     A
C15    C111    1.456   .     S
C16    C115    1.402   .     A
C16    C112    1.456   .     S
C16    C148    1.402   .     A
C17    C67     1.399   .     A
C17    C96     1.460   .     S
C17    C790    1.399   .     S
C18    C68     1.399   .     A
C18    C95     1.460   .     S
C18    C791    1.399   .     S
C19    C94     1.460   .     S
C19    C69     1.399   .     A
C19    C428    1.399   1_455 S
C20    C70     1.399   .     A
C20    C93     1.460   .     S
C20    C430    1.399   1_455 S
C21    C456    1.461   .     S
C21    C71     1.399   .     A
C21    C439    1.400   .     S
C22    C441    1.399   1_455 A
C22    C72     1.400   .     S
C22    C91     1.461   .     S
C23    C818    1.460   .     S
C23    C73     1.399   .     A
C23    C806    1.399   .     S
C24    O341    1.383   .     S
C24    C88     1.412   .     A
C24    C74     1.394   .     A
C25    C74     1.399   .     A
C25    C89     1.460   .     S
C25    C807    1.399   1_545 S
C26    H225    1.115   .     S
C26    O329    1.411   .     S
C26    C27     1.521   1_554 S
C26    H227    1.111   1_554 S
C27    H229    1.110   .     S
C27    H230    1.111   .     S
C27    C26     1.521   1_556 S
C27    H228    1.111   1_556 S
C28    H231    1.116   .     S
C28    O330    1.411   .     S
C28    C29     1.521   1_556 S
C28    H232    1.112   1_556 S
C29    H235    1.111   .     S
C29    H234    1.111   .     S
C29    C28     1.521   1_554 S
C29    H233    1.111   1_554 S
C30    O331    1.411   .     S
C30    H236    1.116   .     S
C30    C31     1.521   1_554 S
C30    H238    1.112   1_554 S
C31    H240    1.111   .     S
C31    H241    1.111   .     S
C31    C30     1.521   1_556 S
C31    H239    1.111   1_556 S
C32    O332    1.411   .     S
C32    H242    1.116   .     S
C32    C33     1.521   1_556 S
C32    H243    1.111   1_556 S
C33    H246    1.111   .     S
C33    H245    1.110   .     S
C33    C32     1.521   1_554 S
C33    H244    1.111   1_554 S
C34    C36     1.521   .     S
C34    H247    1.112   .     S
C34    H249    1.116   .     S
C34    O333    1.413   .     S
C35    C84     1.408   .     A
C35    O342    1.387   .     S
C35    C75     1.402   .     A
C36    H251    1.110   .     S
C36    H250    1.111   1_554 S
C36    H252    1.111   1_554 S
C37    H254    1.115   .     S
C37    H253    1.114   .     S
C37    O334    1.411   .     S
C37    C38     1.521   1_556 S
C38    H256    1.110   .     S
C38    H257    1.111   .     S
C38    C37     1.521   1_554 S
C38    H255    1.111   1_554 S
C39    H260    1.115   .     S
C39    O335    1.411   .     S
C39    H258    1.114   .     S
C39    C40     1.521   1_554 S
C40    H263    1.111   .     S
C40    H262    1.110   .     S
C40    C39     1.521   1_556 S
C40    H261    1.111   1_556 S
C41    H265    1.116   .     S
C41    O337    1.413   .     S
C41    H264    1.112   .     S
C41    C42     1.521   .     S
C42    H267    1.110   .     S
C42    H266    1.111   1_556 S
C42    H268    1.111   1_556 S
C43    H271    1.115   .     S
C43    C44     1.521   .     S
C43    H269    1.114   .     S
C43    O338    1.411   .     S
C44    H274    1.111   .     S
C44    H272    1.111   .     S
C44    H273    1.110   .     S
C45    C47     1.521   .     S
C45    H276    1.116   .     S
C45    H275    1.112   .     S
C45    O339    1.414   .     S
C46    O343    1.382   .     S
C46    C77     1.396   .     A
C46    C449    1.408   .     S
C47    H279    1.111   .     S
C47    H277    1.111   .     S
C47    H278    1.110   .     S
C48    H155    1.111   .     S
C48    H280    1.116   .     S
C48    O340    1.411   .     S
C48    C49     1.521   .     S
C49    H157    1.110   .     S
C49    H156    1.111   .     S
C49    H158    1.111   .     S
C50    H160    1.112   .     S
C50    H159    1.115   .     S
C50    C51     1.521   .     S
C50    O341    1.411   .     S
C51    H162    1.110   .     S
C51    H163    1.111   .     S
C51    H161    1.111   .     S
C52    C53     1.521   .     S
C52    O342    1.413   .     S
C52    H164    1.112   .     S
C52    H166    1.116   .     S
C53    H168    1.111   .     S
C53    H169    1.111   .     S
C53    H167    1.110   .     S
C54    O343    1.411   .     S
C54    C55     1.521   .     S
C54    H170    1.114   .     S
C54    H171    1.115   .     S
C55    H173    1.111   .     S
C55    H172    1.111   .     S
C55    H174    1.111   .     S
C56    C58     1.521   .     S
C56    H177    1.115   .     S
C56    H175    1.114   .     S
C56    O344    1.411   .     S
C57    C78     1.395   .     A
C57    O344    1.382   .     S
C57    C814    1.410   1_545 S
C58    H180    1.111   .     S
C58    H178    1.111   .     S
C58    H179    1.111   .     S
C59    C60     1.521   .     S
C59    H182    1.116   .     S
C59    H181    1.112   .     S
C59    O345    1.413   .     S
C60    H184    1.110   .     S
C60    H185    1.111   .     S
C60    H183    1.111   .     S
C61    O345    1.387   .     S
C61    C79     1.401   .     A
C61    C816    1.409   .     S
C62    H208    1.084   .     S
C62    C745    1.399   1_545 S
C63    C65     1.395   .     A
C63    H209    1.084   .     S
C63    C746    1.399   1_545 S
C64    H210    1.084   .     S
C64    C76     1.395   .     A
C64    C383    1.399   .     S
C65    O330    1.383   .     S
C65    C809    1.412   1_545 S
C66    H211    1.084   .     S
C66    C87     1.394   .     A
C66    C384    1.399   .     S
C67    C98     1.400   .     A
C67    H212    1.083   .     S
C68    C109    1.396   .     A
C68    H213    1.084   .     S
C69    H214    1.084   .     S
C69    C120    1.395   .     A
C70    H216    1.083   .     S
C70    C131    1.400   .     A
C71    H217    1.084   .     S
C71    C142    1.396   .     A
C72    H218    1.083   .     S
C73    H219    1.084   .     S
C74    H220    1.084   .     S
C75    H221    1.083   .     S
C75    C385    1.400   1_455 S
C76    O331    1.383   .     S
C76    C446    1.412   .     S
C77    H222    1.084   .     S
C77    C386    1.399   .     A
C78    H223    1.084   .     S
C78    C751    1.399   1_545 S
C79    H224    1.083   .     S
C79    C753    1.399   .     S
C80    C98     1.409   .     A
C80    C729    1.412   .     S
C80    C81     1.472   1_554 S
C81    C109    1.410   .     A
C81    C80     1.472   1_556 S
C81    C793    1.412   .     S
C82    C120    1.410   .     A
C82    C440    1.412   1_455 S
C82    C83     1.472   1_554 S
C83    C131    1.409   .     A
C83    C82     1.472   1_556 S
C83    C451    1.412   1_455 S
C84    C85     1.471   .     S
C84    C506    1.408   1_455 S
C85    C410    1.408   1_455 S
C86    C785    1.410   .     S
C86    C816    1.472   .     S
C87    O332    1.383   .     S
C87    C447    1.412   .     S
C88    C789    1.409   1_545 S
C88    C814    1.472   1_545 S
C89    O348    1.281   .     A
C89    O1053   1.281   1_545 S
C90    O1010   1.281   1_545 A
C90    C751    1.460   1_545 S
C90    O336    1.281   .     S
C91    O346    1.281   .     A
C91    O647    1.281   1_455 S
C92    C385    1.461   1_455 S
C92    O711    1.281   1_455 A
C92    O284    1.281   .     S
C93    O285    1.281   .     S
C93    O289    1.281   .     S
C94    O290    1.281   .     A
C94    O286    1.281   .     A
C95    O1015   1.281   .     S
C95    O1019   1.281   .     S
C96    O1016   1.281   .     S
C96    O1021   1.281   .     S
C97    O294    1.279   .     A
C97    C152    1.456   .     S
C97    O322    1.279   .     A
C98    O333    1.387   .     S
C99    O295    1.279   .     A
C99    O323    1.279   .     A
C100   O296    1.279   .     A
C100   O320    1.279   .     A
C101   O321    1.279   .     A
C101   O297    1.279   .     A
C102   O327    1.279   .     A
C102   O298    1.279   .     A
C103   O299    1.279   .     A
C103   O328    1.279   .     A
C104   C150    1.456   .     S
C104   O300    1.279   .     A
C104   O324    1.279   .     A
C105   C151    1.456   .     S
C105   O301    1.279   .     A
C105   O326    1.279   .     A
C106   O313    1.279   .     A
C106   O302    1.279   .     A
C107   O315    1.279   .     A
C107   O304    1.279   .     A
C108   O311    1.279   .     A
C108   O305    1.279   .     A
C109   O334    1.382   .     S
C110   O312    1.279   .     A
C110   O306    1.279   .     A
C111   O307    1.279   .     A
C111   O318    1.279   .     A
C112   O319    1.279   .     A
C112   O308    1.279   .     A
C113   O309    1.279   .     A
C113   O316    1.279   .     A
C114   O317    1.279   .     A
C114   O310    1.279   .     A
C115   C132    1.386   .     A
C115   H153    1.083   .     S
C116   C130    1.386   .     A
C116   H193    1.083   .     S
C117   C129    1.386   .     A
C117   H204    1.083   .     S
C118   H215    1.083   .     S
C118   C128    1.386   .     A
C119   H226    1.083   .     S
C119   C127    1.386   .     A
C120   O335    1.382   .     S
C121   C126    1.386   .     A
C121   H237    1.083   .     S
C122   C125    1.386   .     A
C122   H248    1.083   .     S
C123   C124    1.386   .     A
C123   H259    1.083   .     S
C124   H270    1.083   .     S
C125   H154    1.083   .     S
C126   H165    1.083   .     S
C127   H176    1.083   .     S
C128   H186    1.083   .     S
C129   C152    1.402   .     A
C129   H187    1.083   .     S
C130   C151    1.402   .     A
C130   H188    1.083   .     S
C131   O337    1.387   .     S
C132   C150    1.402   .     A
C132   H189    1.083   .     S
C133   C151    1.402   .     A
C133   H190    1.083   .     S
C133   C149    1.386   .     A
C134   H191    1.083   .     S
C134   C150    1.402   .     A
C134   C148    1.386   .     A
C135   H192    1.083   .     S
C135   C147    1.386   .     A
C136   C152    1.402   .     A
C136   C146    1.386   .     A
C136   H194    1.083   .     S
C137   H195    1.083   .     S
C137   C145    1.386   .     A
C138   H196    1.083   .     S
C138   C144    1.386   .     A
C139   C143    1.386   .     A
C139   H197    1.083   .     S
C140   H198    1.083   .     S
C140   C141    1.386   .     A
C141   H199    1.083   .     S
C142   O338    1.382   .     S
C142   C448    1.408   .     S
C143   H200    1.083   .     S
C144   H201    1.083   .     S
C145   H202    1.083   .     S
C146   H203    1.083   .     S
C147   H205    1.083   .     S
C148   H206    1.083   .     S
C149   H207    1.083   .     S
H227   C26     1.111   1_556 S
H228   C27     1.111   1_554 S
H232   C28     1.112   1_554 S
H233   C29     1.111   1_556 S
H238   C30     1.112   1_556 S
H239   C31     1.111   1_554 S
H243   C32     1.111   1_554 S
H244   C33     1.111   1_556 S
H250   C36     1.111   1_556 S
H252   C36     1.111   1_556 S
H255   C38     1.111   1_556 S
H261   C40     1.111   1_554 S
H266   C42     1.111   1_554 S
H268   C42     1.111   1_554 S
O281   Zn352   1.945   .     S
O281   Zn349   1.945   .     S
O281   Zn360   1.945   .     S
O281   Zn1084  1.945   1_545 S
O282   C818    1.281   .     A
O282   Zn351   1.938   .     S
O283   Zn354   1.937   .     S
O283   C455    1.281   .     S
O284   Zn353   1.937   .     S
O285   Zn363   1.937   .     S
O286   Zn362   1.937   .     S
O287   Zn357   1.937   .     S
O287   C823    1.281   1_545 S
O288   Zn349   1.937   .     S
O288   C824    1.281   1_545 S
O289   Zn359   1.938   .     S
O290   Zn358   1.938   .     S
O291   Zn361   1.937   .     S
O291   C823    1.281   1_545 S
O292   Zn361   1.945   .     S
O292   Zn355   1.945   .     S
O292   Zn357   1.945   .     S
O292   Zn1079  1.945   1_545 S
O293   Zn360   1.937   .     S
O293   C824    1.281   1_545 S
O294   Zn352   1.937   .     S
O295   Zn351   1.937   .     S
O296   Zn354   1.937   .     S
O297   Zn353   1.937   .     S
O298   Zn356   1.937   .     S
O299   Zn355   1.937   .     S
O300   Zn350   1.937   .     S
O301   Zn364   1.937   .     S
O302   Zn351   1.937   .     S
O303   Zn362   1.945   .     S
O303   Zn350   1.945   .     S
O303   Zn718   1.945   1_455 S
O303   Zn358   1.945   .     S
O304   Zn352   1.937   .     S
O305   Zn364   1.937   .     S
O306   Zn350   1.937   .     S
O307   Zn355   1.937   .     S
O308   Zn356   1.937   .     S
O309   Zn353   1.937   .     S
O310   Zn354   1.937   .     S
O311   Zn723   1.937   .     S
O312   Zn358   1.937   .     S
O313   Zn1089  1.937   .     S
O314   Zn728   1.945   1_455 S
O314   Zn353   1.945   .     S
O314   Zn359   1.945   .     S
O314   Zn363   1.945   .     S
O315   Zn360   1.937   .     S
O316   Zn363   1.937   .     S
O317   Zn726   1.937   .     S
O318   Zn357   1.937   .     S
O319   Zn1077  1.937   .     S
O320   Zn722   1.937   .     S
O321   Zn359   1.937   .     S
O322   Zn349   1.937   .     S
O323   Zn1085  1.937   .     S
O324   Zn362   1.937   .     S
O325   Zn356   1.937   .     S
O325   C817    1.281   .     S
O326   Zn727   1.937   .     S
O327   Zn1088  1.937   .     S
O328   Zn361   1.937   .     S
O336   Zn355   1.937   .     S
O346   Zn350   1.937   .     S
O347   Zn364   1.937   .     S
O347   C456    1.281   .     A
O348   Zn352   1.938   .     S
Zn349  O1047   1.937   1_545 S
Zn351  O1020   1.945   .     S
Zn354  O667    1.945   .     S
Zn356  O1009   1.945   .     S
Zn357  O1051   1.937   1_545 S
Zn358  O684    1.937   1_455 S
Zn359  O675    1.937   1_455 S
Zn360  O1055   1.937   1_545 S
Zn361  O1041   1.937   1_545 S
Zn362  O681    1.937   1_455 S
Zn363  O690    1.937   1_455 S
Zn364  O678    1.945   .     S
C365   O693    1.383   .     S
C365   C426    1.394   .     A
C365   C1172   1.412   1_545 S
C366   O703    1.388   .     S
C366   C449    1.408   .     A
C366   C436    1.403   .     A
C367   C492    1.402   .     A
C367   C463    1.456   .     S
C367   C499    1.402   .     A
C368   C491    1.402   .     A
C368   C502    1.402   .     A
C368   C464    1.456   .     S
C369   C490    1.402   .     A
C369   C465    1.456   .     S
C369   C501    1.402   .     A
C370   C489    1.402   .     A
C370   C466    1.456   .     S
C370   C504    1.402   .     A
C371   C467    1.456   .     S
C371   C488    1.402   .     A
C371   C503    1.402   .     A
C372   C487    1.402   .     A
C372   C507    1.402   .     A
C372   C477    1.456   .     S
C373   C478    1.456   .     S
C373   C486    1.402   .     A
C373   C505    1.402   .     A
C374   C470    1.456   .     S
C374   C485    1.402   .     A
C374   C509    1.402   .     A
C375   C483    1.402   .     A
C375   C471    1.456   .     S
C375   C508    1.402   .     A
C376   C472    1.456   .     S
C376   C511    1.402   .     A
C376   C482    1.402   .     A
C377   C450    1.412   .     A
C377   O704    1.383   .     S
C377   C437    1.394   .     A
C378   C510    1.402   .     A
C378   C481    1.402   .     A
C378   C474    1.456   .     S
C379   C513    1.402   .     A
C379   C480    1.402   .     A
C379   C475    1.456   .     S
C380   C479    1.402   .     A
C380   C476    1.456   .     S
C380   C512    1.402   .     A
C381   C431    1.399   .     A
C381   C460    1.460   .     S
C381   C1154   1.399   .     S
C382   C432    1.399   .     A
C382   C459    1.460   .     S
C382   C1155   1.399   .     S
C383   C458    1.460   .     S
C383   C433    1.399   .     A
C384   C434    1.399   .     A
C384   C457    1.460   .     S
C385   C92     1.461   1_655 S
C385   C435    1.399   .     A
C385   C75     1.400   1_655 S
C386   C436    1.400   .     S
C386   C455    1.461   .     S
C387   C1182   1.460   .     S
C387   C437    1.399   .     A
C387   C1170   1.399   .     S
C388   O705    1.383   .     S
C388   C452    1.412   .     A
C388   C438    1.394   .     A
C389   C438    1.399   .     A
C389   C453    1.460   .     S
C389   C1171   1.399   1_545 S
C390   H589    1.115   .     S
C390   O693    1.411   .     S
C390   C391    1.521   1_554 S
C390   H591    1.111   1_554 S
C391   H593    1.110   .     S
C391   H594    1.111   .     S
C391   C390    1.521   1_556 S
C391   H592    1.111   1_556 S
C392   H595    1.116   .     S
C392   O694    1.411   .     S
C392   C393    1.521   1_556 S
C392   H596    1.112   1_556 S
C393   H599    1.111   .     S
C393   H598    1.111   .     S
C393   C392    1.521   1_554 S
C393   H597    1.111   1_554 S
C394   O695    1.411   .     S
C394   H600    1.116   .     S
C394   C395    1.521   1_554 S
C394   H602    1.112   1_554 S
C395   H604    1.111   .     S
C395   H605    1.111   .     S
C395   C394    1.521   1_556 S
C395   H603    1.111   1_556 S
C396   O696    1.411   .     S
C396   H606    1.116   .     S
C396   C397    1.521   1_556 S
C396   H607    1.111   1_556 S
C397   H610    1.111   .     S
C397   H609    1.110   .     S
C397   C396    1.521   1_554 S
C397   H608    1.111   1_554 S
C398   C400    1.521   .     S
C398   H611    1.112   .     S
C398   H613    1.116   .     S
C398   O697    1.413   .     S
C399   C448    1.408   .     A
C399   O706    1.387   .     S
C399   C439    1.402   .     A
C400   H615    1.110   .     S
C400   H614    1.111   1_554 S
C400   H616    1.111   1_554 S
C401   H618    1.115   .     S
C401   H617    1.114   .     S
C401   O698    1.411   .     S
C401   C402    1.521   1_556 S
C402   H620    1.110   .     S
C402   H621    1.111   .     S
C402   C401    1.521   1_554 S
C402   H619    1.111   1_554 S
C403   H624    1.115   .     S
C403   O699    1.411   .     S
C403   H622    1.114   .     S
C403   C404    1.521   1_554 S
C404   H627    1.111   .     S
C404   H626    1.110   .     S
C404   C403    1.521   1_556 S
C404   H625    1.111   1_556 S
C405   H629    1.116   .     S
C405   O701    1.413   .     S
C405   H628    1.112   .     S
C405   C406    1.521   .     S
C406   H631    1.110   .     S
C406   H630    1.111   1_556 S
C406   H632    1.111   1_556 S
C407   H635    1.115   .     S
C407   C408    1.521   .     S
C407   H633    1.114   .     S
C407   O702    1.411   .     S
C408   H638    1.111   .     S
C408   H636    1.111   .     S
C408   H637    1.110   .     S
C409   C411    1.521   .     S
C409   H640    1.116   .     S
C409   H639    1.112   .     S
C409   O703    1.414   .     S
C410   O707    1.382   .     S
C410   C441    1.396   .     A
C410   C85     1.408   1_655 S
C411   H643    1.111   .     S
C411   H641    1.111   .     S
C411   H642    1.110   .     S
C412   H519    1.111   .     S
C412   H644    1.116   .     S
C412   O704    1.411   .     S
C412   C413    1.521   .     S
C413   H521    1.110   .     S
C413   H520    1.111   .     S
C413   H522    1.111   .     S
C414   H524    1.112   .     S
C414   H523    1.115   .     S
C414   C415    1.521   .     S
C414   O705    1.411   .     S
C415   H526    1.110   .     S
C415   H527    1.111   .     S
C415   H525    1.111   .     S
C416   C417    1.521   .     S
C416   O706    1.413   .     S
C416   H528    1.112   .     S
C416   H530    1.116   .     S
C417   H532    1.111   .     S
C417   H533    1.111   .     S
C417   H531    1.110   .     S
C418   O707    1.411   .     S
C418   C419    1.521   .     S
C418   H534    1.114   .     S
C418   H535    1.115   .     S
C419   H537    1.111   .     S
C419   H536    1.111   .     S
C419   H538    1.111   .     S
C420   C422    1.521   .     S
C420   H541    1.115   .     S
C420   H539    1.114   .     S
C420   O708    1.411   .     S
C421   C442    1.395   .     A
C421   O708    1.382   .     S
C421   C1178   1.410   1_545 S
C422   H544    1.111   .     S
C422   H542    1.111   .     S
C422   H543    1.111   .     S
C423   C424    1.521   .     S
C423   H546    1.116   .     S
C423   H545    1.112   .     S
C423   O709    1.413   .     S
C424   H548    1.110   .     S
C424   H549    1.111   .     S
C424   H547    1.111   .     S
C425   O709    1.387   .     S
C425   C443    1.401   .     A
C425   C1180   1.409   .     S
C426   H572    1.084   .     S
C426   C1109   1.399   1_545 S
C427   C429    1.395   .     A
C427   H573    1.084   .     S
C427   C1110   1.399   1_545 S
C428   H574    1.084   .     S
C428   C440    1.395   .     A
C428   C19     1.399   1_655 S
C429   O694    1.383   .     S
C429   C1173   1.412   1_545 S
C430   H575    1.084   .     S
C430   C451    1.394   .     A
C430   C20     1.399   1_655 S
C431   C462    1.400   .     A
C431   H576    1.083   .     S
C432   C473    1.396   .     A
C432   H577    1.084   .     S
C433   H578    1.084   .     S
C433   C484    1.395   .     A
C434   H580    1.083   .     S
C434   C495    1.400   .     A
C435   H581    1.084   .     S
C435   C506    1.396   .     A
C436   H582    1.083   .     S
C437   H583    1.084   .     S
C438   H584    1.084   .     S
C439   H585    1.083   .     S
C440   O695    1.383   .     S
C440   C82     1.412   1_655 S
C441   H586    1.084   .     S
C441   C22     1.399   1_655 A
C442   H587    1.084   .     S
C442   C1115   1.399   1_545 S
C443   H588    1.083   .     S
C443   C1117   1.399   .     S
C444   C462    1.409   .     A
C444   C1093   1.412   .     S
C444   C445    1.472   1_554 S
C445   C473    1.410   .     A
C445   C444    1.472   1_556 S
C445   C1157   1.412   .     S
C446   C484    1.410   .     A
C446   C447    1.472   1_554 S
C447   C495    1.409   .     A
C447   C446    1.472   1_556 S
C448   C449    1.471   .     S
C450   C1149   1.410   .     S
C450   C1180   1.472   .     S
C451   O696    1.383   .     S
C451   C83     1.412   1_655 S
C452   C1153   1.409   1_545 S
C452   C1178   1.472   1_545 S
C453   O712    1.281   .     A
C453   O1417   1.281   1_545 S
C454   O1374   1.281   1_545 A
C454   C1115   1.460   1_545 S
C454   O700    1.281   .     S
C455   O710    1.281   .     A
C456   O648    1.281   .     S
C457   O649    1.281   .     S
C457   O653    1.281   .     S
C458   O654    1.281   .     A
C458   O650    1.281   .     A
C459   O1379   1.281   .     S
C459   O1383   1.281   .     S
C460   O1380   1.281   .     S
C460   O1385   1.281   .     S
C461   O658    1.279   .     A
C461   C516    1.456   .     S
C461   O686    1.279   .     A
C462   O697    1.387   .     S
C463   O659    1.279   .     A
C463   O687    1.279   .     A
C464   O660    1.279   .     A
C464   O684    1.279   .     A
C465   O685    1.279   .     A
C465   O661    1.279   .     A
C466   O691    1.279   .     A
C466   O662    1.279   .     A
C467   O663    1.279   .     A
C467   O692    1.279   .     A
C468   C514    1.456   .     S
C468   O664    1.279   .     A
C468   O688    1.279   .     A
C469   C515    1.456   .     S
C469   O665    1.279   .     A
C469   O690    1.279   .     A
C470   O677    1.279   .     A
C470   O666    1.279   .     A
C471   O679    1.279   .     A
C471   O668    1.279   .     A
C472   O675    1.279   .     A
C472   O669    1.279   .     A
C473   O698    1.382   .     S
C474   O676    1.279   .     A
C474   O670    1.279   .     A
C475   O671    1.279   .     A
C475   O682    1.279   .     A
C476   O683    1.279   .     A
C476   O672    1.279   .     A
C477   O673    1.279   .     A
C477   O680    1.279   .     A
C478   O681    1.279   .     A
C478   O674    1.279   .     A
C479   C496    1.386   .     A
C479   H517    1.083   .     S
C480   C494    1.386   .     A
C480   H557    1.083   .     S
C481   C493    1.386   .     A
C481   H568    1.083   .     S
C482   H579    1.083   .     S
C482   C492    1.386   .     A
C483   H590    1.083   .     S
C483   C491    1.386   .     A
C484   O699    1.382   .     S
C485   C490    1.386   .     A
C485   H601    1.083   .     S
C486   C489    1.386   .     A
C486   H612    1.083   .     S
C487   C488    1.386   .     A
C487   H623    1.083   .     S
C488   H634    1.083   .     S
C489   H518    1.083   .     S
C490   H529    1.083   .     S
C491   H540    1.083   .     S
C492   H550    1.083   .     S
C493   C516    1.402   .     A
C493   H551    1.083   .     S
C494   C515    1.402   .     A
C494   H552    1.083   .     S
C495   O701    1.387   .     S
C496   C514    1.402   .     A
C496   H553    1.083   .     S
C497   C515    1.402   .     A
C497   H554    1.083   .     S
C497   C513    1.386   .     A
C498   H555    1.083   .     S
C498   C514    1.402   .     A
C498   C512    1.386   .     A
C499   H556    1.083   .     S
C499   C511    1.386   .     A
C500   C516    1.402   .     A
C500   C510    1.386   .     A
C500   H558    1.083   .     S
C501   H559    1.083   .     S
C501   C509    1.386   .     A
C502   H560    1.083   .     S
C502   C508    1.386   .     A
C503   C507    1.386   .     A
C503   H561    1.083   .     S
C504   H562    1.083   .     S
C504   C505    1.386   .     A
C505   H563    1.083   .     S
C506   O702    1.382   .     S
C506   C84     1.408   1_655 S
C507   H564    1.083   .     S
C508   H565    1.083   .     S
C509   H566    1.083   .     S
C510   H567    1.083   .     S
C511   H569    1.083   .     S
C512   H570    1.083   .     S
C513   H571    1.083   .     S
H591   C390    1.111   1_556 S
H592   C391    1.111   1_554 S
H596   C392    1.112   1_554 S
H597   C393    1.111   1_556 S
H602   C394    1.112   1_556 S
H603   C395    1.111   1_554 S
H607   C396    1.111   1_554 S
H608   C397    1.111   1_556 S
H614   C400    1.111   1_556 S
H616   C400    1.111   1_556 S
H619   C402    1.111   1_556 S
H625   C404    1.111   1_554 S
H630   C406    1.111   1_554 S
H632   C406    1.111   1_554 S
O645   Zn716   1.945   .     S
O645   Zn713   1.945   .     S
O645   Zn724   1.945   .     S
O645   Zn1448  1.945   1_545 S
O646   C1182   1.281   .     A
O646   Zn715   1.938   .     S
O647   Zn718   1.937   .     S
O647   C91     1.281   1_655 S
O648   Zn717   1.937   .     S
O649   Zn727   1.937   .     S
O650   Zn726   1.937   .     S
O651   Zn721   1.937   .     S
O651   C1187   1.281   1_545 S
O652   Zn713   1.937   .     S
O652   C1188   1.281   1_545 S
O653   Zn723   1.938   .     S
O654   Zn722   1.938   .     S
O655   Zn725   1.937   .     S
O655   C1187   1.281   1_545 S
O656   Zn725   1.945   .     S
O656   Zn719   1.945   .     S
O656   Zn721   1.945   .     S
O656   Zn1443  1.945   1_545 S
O657   Zn724   1.937   .     S
O657   C1188   1.281   1_545 S
O658   Zn716   1.937   .     S
O659   Zn715   1.937   .     S
O660   Zn718   1.937   .     S
O661   Zn717   1.937   .     S
O662   Zn720   1.937   .     S
O663   Zn719   1.937   .     S
O664   Zn714   1.937   .     S
O665   Zn728   1.937   .     S
O666   Zn715   1.937   .     S
O667   Zn726   1.945   .     S
O667   Zn714   1.945   .     S
O667   Zn722   1.945   .     S
O668   Zn716   1.937   .     S
O669   Zn728   1.937   .     S
O670   Zn714   1.937   .     S
O671   Zn719   1.937   .     S
O672   Zn720   1.937   .     S
O673   Zn717   1.937   .     S
O674   Zn718   1.937   .     S
O675   Zn359   1.937   1_655 S
O676   Zn722   1.937   .     S
O677   Zn1453  1.937   .     S
O678   Zn717   1.945   .     S
O678   Zn723   1.945   .     S
O678   Zn727   1.945   .     S
O679   Zn724   1.937   .     S
O680   Zn727   1.937   .     S
O681   Zn362   1.937   1_655 S
O682   Zn721   1.937   .     S
O683   Zn1441  1.937   .     S
O684   Zn358   1.937   1_655 S
O685   Zn723   1.937   .     S
O686   Zn713   1.937   .     S
O687   Zn1449  1.937   .     S
O688   Zn726   1.937   .     S
O689   Zn720   1.937   .     S
O689   C1181   1.281   .     S
O690   Zn363   1.937   1_655 S
O691   Zn1452  1.937   .     S
O692   Zn725   1.937   .     S
O700   Zn719   1.937   .     S
O710   Zn714   1.937   .     S
O711   Zn728   1.937   .     S
O711   C92     1.281   1_655 A
O712   Zn716   1.938   .     S
Zn713  O1411   1.937   1_545 S
Zn715  O1384   1.945   .     S
Zn718  O303    1.945   1_655 S
Zn720  O1373   1.945   .     S
Zn721  O1415   1.937   1_545 S
Zn724  O1419   1.937   1_545 S
Zn725  O1405   1.937   1_545 S
Zn728  O314    1.945   1_655 S
C729   O1057   1.383   .     S
C729   C790    1.394   .     A
C730   O1067   1.388   .     S
C730   C813    1.408   .     A
C730   C800    1.403   .     A
C731   C856    1.402   .     A
C731   C827    1.456   .     S
C731   C863    1.402   .     A
C732   C855    1.402   .     A
C732   C866    1.402   .     A
C732   C828    1.456   .     S
C733   C854    1.402   .     A
C733   C829    1.456   .     S
C733   C865    1.402   .     A
C734   C853    1.402   .     A
C734   C830    1.456   .     S
C734   C868    1.402   .     A
C735   C831    1.456   .     S
C735   C852    1.402   .     A
C735   C867    1.402   .     A
C736   C851    1.402   .     A
C736   C871    1.402   .     A
C736   C841    1.456   .     S
C737   C842    1.456   .     S
C737   C850    1.402   .     A
C737   C869    1.402   .     A
C738   C834    1.456   .     S
C738   C849    1.402   .     A
C738   C873    1.402   .     A
C739   C847    1.402   .     A
C739   C835    1.456   .     S
C739   C872    1.402   .     A
C740   C836    1.456   .     S
C740   C875    1.402   .     A
C740   C846    1.402   .     A
C741   C814    1.412   .     A
C741   O1068   1.383   .     S
C741   C801    1.394   .     A
C742   C874    1.402   .     A
C742   C845    1.402   .     A
C742   C838    1.456   .     S
C743   C877    1.402   .     A
C743   C844    1.402   .     A
C743   C839    1.456   .     S
C744   C843    1.402   .     A
C744   C840    1.456   .     S
C744   C876    1.402   .     A
C745   C795    1.399   .     A
C745   C824    1.460   .     S
C745   C62     1.399   1_565 S
C746   C796    1.399   .     A
C746   C823    1.460   .     S
C746   C63     1.399   1_565 S
C747   C822    1.460   .     S
C747   C797    1.399   .     A
C747   C1156   1.399   1_455 S
C748   C798    1.399   .     A
C748   C821    1.460   .     S
C748   C1158   1.399   1_455 S
C749   C1184   1.461   .     S
C749   C799    1.399   .     A
C749   C1167   1.400   .     S
C750   C1169   1.399   1_455 A
C750   C800    1.400   .     S
C750   C819    1.461   .     S
C751   C90     1.460   1_565 S
C751   C801    1.399   .     A
C751   C78     1.399   1_565 S
C752   O1069   1.383   .     S
C752   C816    1.412   .     A
C752   C802    1.394   .     A
C753   C802    1.399   .     A
C753   C817    1.460   .     S
C754   H953    1.115   .     S
C754   O1057   1.411   .     S
C754   C755    1.521   1_554 S
C754   H955    1.111   1_554 S
C755   H957    1.110   .     S
C755   H958    1.111   .     S
C755   C754    1.521   1_556 S
C755   H956    1.111   1_556 S
C756   H959    1.116   .     S
C756   O1058   1.411   .     S
C756   C757    1.521   1_556 S
C756   H960    1.112   1_556 S
C757   H963    1.111   .     S
C757   H962    1.111   .     S
C757   C756    1.521   1_554 S
C757   H961    1.111   1_554 S
C758   O1059   1.411   .     S
C758   H964    1.116   .     S
C758   C759    1.521   1_554 S
C758   H966    1.112   1_554 S
C759   H968    1.111   .     S
C759   H969    1.111   .     S
C759   C758    1.521   1_556 S
C759   H967    1.111   1_556 S
C760   O1060   1.411   .     S
C760   H970    1.116   .     S
C760   C761    1.521   1_556 S
C760   H971    1.111   1_556 S
C761   H974    1.111   .     S
C761   H973    1.110   .     S
C761   C760    1.521   1_554 S
C761   H972    1.111   1_554 S
C762   C764    1.521   .     S
C762   H975    1.112   .     S
C762   H977    1.116   .     S
C762   O1061   1.413   .     S
C763   C812    1.408   .     A
C763   O1070   1.387   .     S
C763   C803    1.402   .     A
C764   H979    1.110   .     S
C764   H978    1.111   1_554 S
C764   H980    1.111   1_554 S
C765   H982    1.115   .     S
C765   H981    1.114   .     S
C765   O1062   1.411   .     S
C765   C766    1.521   1_556 S
C766   H984    1.110   .     S
C766   H985    1.111   .     S
C766   C765    1.521   1_554 S
C766   H983    1.111   1_554 S
C767   H988    1.115   .     S
C767   O1063   1.411   .     S
C767   H986    1.114   .     S
C767   C768    1.521   1_554 S
C768   H991    1.111   .     S
C768   H990    1.110   .     S
C768   C767    1.521   1_556 S
C768   H989    1.111   1_556 S
C769   H993    1.116   .     S
C769   O1065   1.413   .     S
C769   H992    1.112   .     S
C769   C770    1.521   .     S
C770   H995    1.110   .     S
C770   H994    1.111   1_556 S
C770   H996    1.111   1_556 S
C771   H999    1.115   .     S
C771   C772    1.521   .     S
C771   H997    1.114   .     S
C771   O1066   1.411   .     S
C772   H1002   1.111   .     S
C772   H1000   1.111   .     S
C772   H1001   1.110   .     S
C773   C775    1.521   .     S
C773   H1004   1.116   .     S
C773   H1003   1.112   .     S
C773   O1067   1.414   .     S
C774   O1071   1.382   .     S
C774   C805    1.396   .     A
C774   C1177   1.408   .     S
C775   H1007   1.111   .     S
C775   H1005   1.111   .     S
C775   H1006   1.110   .     S
C776   H883    1.111   .     S
C776   H1008   1.116   .     S
C776   O1068   1.411   .     S
C776   C777    1.521   .     S
C777   H885    1.110   .     S
C777   H884    1.111   .     S
C777   H886    1.111   .     S
C778   H888    1.112   .     S
C778   H887    1.115   .     S
C778   C779    1.521   .     S
C778   O1069   1.411   .     S
C779   H890    1.110   .     S
C779   H891    1.111   .     S
C779   H889    1.111   .     S
C780   C781    1.521   .     S
C780   O1070   1.413   .     S
C780   H892    1.112   .     S
C780   H894    1.116   .     S
C781   H896    1.111   .     S
C781   H897    1.111   .     S
C781   H895    1.110   .     S
C782   O1071   1.411   .     S
C782   C783    1.521   .     S
C782   H898    1.114   .     S
C782   H899    1.115   .     S
C783   H901    1.111   .     S
C783   H900    1.111   .     S
C783   H902    1.111   .     S
C784   C786    1.521   .     S
C784   H905    1.115   .     S
C784   H903    1.114   .     S
C784   O1072   1.411   .     S
C785   C806    1.395   .     A
C785   O1072   1.382   .     S
C786   H908    1.111   .     S
C786   H906    1.111   .     S
C786   H907    1.111   .     S
C787   C788    1.521   .     S
C787   H910    1.116   .     S
C787   H909    1.112   .     S
C787   O1073   1.413   .     S
C788   H912    1.110   .     S
C788   H913    1.111   .     S
C788   H911    1.111   .     S
C789   O1073   1.387   .     S
C789   C807    1.401   .     A
C789   C88     1.409   1_565 S
C790   H936    1.084   .     S
C791   C793    1.395   .     A
C791   H937    1.084   .     S
C792   H938    1.084   .     S
C792   C804    1.395   .     A
C792   C1111   1.399   .     S
C793   O1058   1.383   .     S
C794   H939    1.084   .     S
C794   C815    1.394   .     A
C794   C1112   1.399   .     S
C795   C826    1.400   .     A
C795   H940    1.083   .     S
C796   C837    1.396   .     A
C796   H941    1.084   .     S
C797   H942    1.084   .     S
C797   C848    1.395   .     A
C798   H944    1.083   .     S
C798   C859    1.400   .     A
C799   H945    1.084   .     S
C799   C870    1.396   .     A
C800   H946    1.083   .     S
C801   H947    1.084   .     S
C802   H948    1.084   .     S
C803   H949    1.083   .     S
C803   C1113   1.400   1_455 S
C804   O1059   1.383   .     S
C804   C1174   1.412   .     S
C805   H950    1.084   .     S
C805   C1114   1.399   .     A
C806   H951    1.084   .     S
C807   H952    1.083   .     S
C807   C25     1.399   1_565 S
C808   C826    1.409   .     A
C808   C1      1.412   1_565 S
C808   C809    1.472   1_554 S
C809   C837    1.410   .     A
C809   C808    1.472   1_556 S
C809   C65     1.412   1_565 S
C810   C848    1.410   .     A
C810   C1168   1.412   1_455 S
C810   C811    1.472   1_554 S
C811   C859    1.409   .     A
C811   C810    1.472   1_556 S
C811   C1179   1.412   1_455 S
C812   C813    1.471   .     S
C812   C1234   1.408   1_455 S
C813   C1138   1.408   1_455 S
C814   C57     1.410   1_565 S
C814   C88     1.472   1_565 S
C815   O1060   1.383   .     S
C815   C1175   1.412   .     S
C817   O1076   1.281   .     A
C818   O1064   1.281   .     S
C819   O1074   1.281   .     A
C819   O1375   1.281   1_455 S
C820   C1113   1.461   1_455 S
C820   O1439   1.281   1_455 A
C820   O1012   1.281   .     S
C821   O1013   1.281   .     S
C821   O1017   1.281   .     S
C822   O1018   1.281   .     A
C822   O1014   1.281   .     A
C823   O287    1.281   1_565 S
C823   O291    1.281   1_565 S
C824   O288    1.281   1_565 S
C824   O293    1.281   1_565 S
C825   O1022   1.279   .     A
C825   C880    1.456   .     S
C825   O1050   1.279   .     A
C826   O1061   1.387   .     S
C827   O1023   1.279   .     A
C827   O1051   1.279   .     A
C828   O1024   1.279   .     A
C828   O1048   1.279   .     A
C829   O1049   1.279   .     A
C829   O1025   1.279   .     A
C830   O1055   1.279   .     A
C830   O1026   1.279   .     A
C831   O1027   1.279   .     A
C831   O1056   1.279   .     A
C832   C878    1.456   .     S
C832   O1028   1.279   .     A
C832   O1052   1.279   .     A
C833   C879    1.456   .     S
C833   O1029   1.279   .     A
C833   O1054   1.279   .     A
C834   O1041   1.279   .     A
C834   O1030   1.279   .     A
C835   O1043   1.279   .     A
C835   O1032   1.279   .     A
C836   O1039   1.279   .     A
C836   O1033   1.279   .     A
C837   O1062   1.382   .     S
C838   O1040   1.279   .     A
C838   O1034   1.279   .     A
C839   O1035   1.279   .     A
C839   O1046   1.279   .     A
C840   O1047   1.279   .     A
C840   O1036   1.279   .     A
C841   O1037   1.279   .     A
C841   O1044   1.279   .     A
C842   O1045   1.279   .     A
C842   O1038   1.279   .     A
C843   C860    1.386   .     A
C843   H881    1.083   .     S
C844   C858    1.386   .     A
C844   H921    1.083   .     S
C845   C857    1.386   .     A
C845   H932    1.083   .     S
C846   H943    1.083   .     S
C846   C856    1.386   .     A
C847   H954    1.083   .     S
C847   C855    1.386   .     A
C848   O1063   1.382   .     S
C849   C854    1.386   .     A
C849   H965    1.083   .     S
C850   C853    1.386   .     A
C850   H976    1.083   .     S
C851   C852    1.386   .     A
C851   H987    1.083   .     S
C852   H998    1.083   .     S
C853   H882    1.083   .     S
C854   H893    1.083   .     S
C855   H904    1.083   .     S
C856   H914    1.083   .     S
C857   C880    1.402   .     A
C857   H915    1.083   .     S
C858   C879    1.402   .     A
C858   H916    1.083   .     S
C859   O1065   1.387   .     S
C860   C878    1.402   .     A
C860   H917    1.083   .     S
C861   C879    1.402   .     A
C861   H918    1.083   .     S
C861   C877    1.386   .     A
C862   H919    1.083   .     S
C862   C878    1.402   .     A
C862   C876    1.386   .     A
C863   H920    1.083   .     S
C863   C875    1.386   .     A
C864   C880    1.402   .     A
C864   C874    1.386   .     A
C864   H922    1.083   .     S
C865   H923    1.083   .     S
C865   C873    1.386   .     A
C866   H924    1.083   .     S
C866   C872    1.386   .     A
C867   C871    1.386   .     A
C867   H925    1.083   .     S
C868   H926    1.083   .     S
C868   C869    1.386   .     A
C869   H927    1.083   .     S
C870   O1066   1.382   .     S
C870   C1176   1.408   .     S
C871   H928    1.083   .     S
C872   H929    1.083   .     S
C873   H930    1.083   .     S
C874   H931    1.083   .     S
C875   H933    1.083   .     S
C876   H934    1.083   .     S
C877   H935    1.083   .     S
H955   C754    1.111   1_556 S
H956   C755    1.111   1_554 S
H960   C756    1.112   1_554 S
H961   C757    1.111   1_556 S
H966   C758    1.112   1_556 S
H967   C759    1.111   1_554 S
H971   C760    1.111   1_554 S
H972   C761    1.111   1_556 S
H978   C764    1.111   1_556 S
H980   C764    1.111   1_556 S
H983   C766    1.111   1_556 S
H989   C768    1.111   1_554 S
H994   C770    1.111   1_554 S
H996   C770    1.111   1_554 S
O1009  Zn1080  1.945   .     S
O1009  Zn1077  1.945   .     S
O1009  Zn1088  1.945   .     S
O1010  C90     1.281   1_565 A
O1010  Zn1079  1.938   .     S
O1011  Zn1082  1.937   .     S
O1011  C1183   1.281   .     S
O1012  Zn1081  1.937   .     S
O1013  Zn1091  1.937   .     S
O1014  Zn1090  1.937   .     S
O1015  Zn1085  1.937   .     S
O1016  Zn1077  1.937   .     S
O1017  Zn1087  1.938   .     S
O1018  Zn1086  1.938   .     S
O1019  Zn1089  1.937   .     S
O1020  Zn1089  1.945   .     S
O1020  Zn1083  1.945   .     S
O1020  Zn1085  1.945   .     S
O1021  Zn1088  1.937   .     S
O1022  Zn1080  1.937   .     S
O1023  Zn1079  1.937   .     S
O1024  Zn1082  1.937   .     S
O1025  Zn1081  1.937   .     S
O1026  Zn1084  1.937   .     S
O1027  Zn1083  1.937   .     S
O1028  Zn1078  1.937   .     S
O1029  Zn1092  1.937   .     S
O1030  Zn1079  1.937   .     S
O1031  Zn1090  1.945   .     S
O1031  Zn1078  1.945   .     S
O1031  Zn1446  1.945   1_455 S
O1031  Zn1086  1.945   .     S
O1032  Zn1080  1.937   .     S
O1033  Zn1092  1.937   .     S
O1034  Zn1078  1.937   .     S
O1035  Zn1083  1.937   .     S
O1036  Zn1084  1.937   .     S
O1037  Zn1081  1.937   .     S
O1038  Zn1082  1.937   .     S
O1039  Zn1451  1.937   .     S
O1040  Zn1086  1.937   .     S
O1041  Zn361   1.937   1_565 S
O1042  Zn1456  1.945   1_455 S
O1042  Zn1081  1.945   .     S
O1042  Zn1087  1.945   .     S
O1042  Zn1091  1.945   .     S
O1043  Zn1088  1.937   .     S
O1044  Zn1091  1.937   .     S
O1045  Zn1454  1.937   .     S
O1046  Zn1085  1.937   .     S
O1047  Zn349   1.937   1_565 S
O1048  Zn1450  1.937   .     S
O1049  Zn1087  1.937   .     S
O1050  Zn1077  1.937   .     S
O1051  Zn357   1.937   1_565 S
O1052  Zn1090  1.937   .     S
O1053  Zn1084  1.937   .     S
O1053  C89     1.281   1_565 S
O1054  Zn1455  1.937   .     S
O1055  Zn360   1.937   1_565 S
O1056  Zn1089  1.937   .     S
O1064  Zn1083  1.937   .     S
O1074  Zn1078  1.937   .     S
O1075  Zn1092  1.937   .     S
O1075  C1184   1.281   .     A
O1076  Zn1080  1.938   .     S
Zn1079 O292    1.945   1_565 S
Zn1082 O1395   1.945   .     S
Zn1084 O281    1.945   1_565 S
Zn1086 O1412   1.937   1_455 S
Zn1087 O1403   1.937   1_455 S
Zn1090 O1409   1.937   1_455 S
Zn1091 O1418   1.937   1_455 S
Zn1092 O1406   1.945   .     S
C1093  O1421   1.383   .     S
C1093  C1154   1.394   .     A
C1094  O1431   1.388   .     S
C1094  C1177   1.408   .     A
C1094  C1164   1.403   .     A
C1095  C1220   1.402   .     A
C1095  C1191   1.456   .     S
C1095  C1227   1.402   .     A
C1096  C1219   1.402   .     A
C1096  C1230   1.402   .     A
C1096  C1192   1.456   .     S
C1097  C1218   1.402   .     A
C1097  C1193   1.456   .     S
C1097  C1229   1.402   .     A
C1098  C1217   1.402   .     A
C1098  C1194   1.456   .     S
C1098  C1232   1.402   .     A
C1099  C1195   1.456   .     S
C1099  C1216   1.402   .     A
C1099  C1231   1.402   .     A
C1100  C1215   1.402   .     A
C1100  C1235   1.402   .     A
C1100  C1205   1.456   .     S
C1101  C1206   1.456   .     S
C1101  C1214   1.402   .     A
C1101  C1233   1.402   .     A
C1102  C1198   1.456   .     S
C1102  C1213   1.402   .     A
C1102  C1237   1.402   .     A
C1103  C1211   1.402   .     A
C1103  C1199   1.456   .     S
C1103  C1236   1.402   .     A
C1104  C1200   1.456   .     S
C1104  C1239   1.402   .     A
C1104  C1210   1.402   .     A
C1105  C1178   1.412   .     A
C1105  O1432   1.383   .     S
C1105  C1165   1.394   .     A
C1106  C1238   1.402   .     A
C1106  C1209   1.402   .     A
C1106  C1202   1.456   .     S
C1107  C1241   1.402   .     A
C1107  C1208   1.402   .     A
C1107  C1203   1.456   .     S
C1108  C1207   1.402   .     A
C1108  C1204   1.456   .     S
C1108  C1240   1.402   .     A
C1109  C1159   1.399   .     A
C1109  C1188   1.460   .     S
C1109  C426    1.399   1_565 S
C1110  C1160   1.399   .     A
C1110  C1187   1.460   .     S
C1110  C427    1.399   1_565 S
C1111  C1186   1.460   .     S
C1111  C1161   1.399   .     A
C1112  C1162   1.399   .     A
C1112  C1185   1.460   .     S
C1113  C820    1.461   1_655 S
C1113  C1163   1.399   .     A
C1113  C803    1.400   1_655 S
C1114  C1164   1.400   .     S
C1114  C1183   1.461   .     S
C1115  C454    1.460   1_565 S
C1115  C1165   1.399   .     A
C1115  C442    1.399   1_565 S
C1116  O1433   1.383   .     S
C1116  C1180   1.412   .     A
C1116  C1166   1.394   .     A
C1117  C1166   1.399   .     A
C1117  C1181   1.460   .     S
C1118  H1317   1.115   .     S
C1118  O1421   1.411   .     S
C1118  C1119   1.521   1_554 S
C1118  H1319   1.111   1_554 S
C1119  H1321   1.110   .     S
C1119  H1322   1.111   .     S
C1119  C1118   1.521   1_556 S
C1119  H1320   1.111   1_556 S
C1120  H1323   1.116   .     S
C1120  O1422   1.411   .     S
C1120  C1121   1.521   1_556 S
C1120  H1324   1.112   1_556 S
C1121  H1327   1.111   .     S
C1121  H1326   1.111   .     S
C1121  C1120   1.521   1_554 S
C1121  H1325   1.111   1_554 S
C1122  O1423   1.411   .     S
C1122  H1328   1.116   .     S
C1122  C1123   1.521   1_554 S
C1122  H1330   1.112   1_554 S
C1123  H1332   1.111   .     S
C1123  H1333   1.111   .     S
C1123  C1122   1.521   1_556 S
C1123  H1331   1.111   1_556 S
C1124  O1424   1.411   .     S
C1124  H1334   1.116   .     S
C1124  C1125   1.521   1_556 S
C1124  H1335   1.111   1_556 S
C1125  H1338   1.111   .     S
C1125  H1337   1.110   .     S
C1125  C1124   1.521   1_554 S
C1125  H1336   1.111   1_554 S
C1126  C1128   1.521   .     S
C1126  H1339   1.112   .     S
C1126  H1341   1.116   .     S
C1126  O1425   1.413   .     S
C1127  C1176   1.408   .     A
C1127  O1434   1.387   .     S
C1127  C1167   1.402   .     A
C1128  H1343   1.110   .     S
C1128  H1342   1.111   1_554 S
C1128  H1344   1.111   1_554 S
C1129  H1346   1.115   .     S
C1129  H1345   1.114   .     S
C1129  O1426   1.411   .     S
C1129  C1130   1.521   1_556 S
C1130  H1348   1.110   .     S
C1130  H1349   1.111   .     S
C1130  C1129   1.521   1_554 S
C1130  H1347   1.111   1_554 S
C1131  H1352   1.115   .     S
C1131  O1427   1.411   .     S
C1131  H1350   1.114   .     S
C1131  C1132   1.521   1_554 S
C1132  H1355   1.111   .     S
C1132  H1354   1.110   .     S
C1132  C1131   1.521   1_556 S
C1132  H1353   1.111   1_556 S
C1133  H1357   1.116   .     S
C1133  O1429   1.413   .     S
C1133  H1356   1.112   .     S
C1133  C1134   1.521   .     S
C1134  H1359   1.110   .     S
C1134  H1358   1.111   1_556 S
C1134  H1360   1.111   1_556 S
C1135  H1363   1.115   .     S
C1135  C1136   1.521   .     S
C1135  H1361   1.114   .     S
C1135  O1430   1.411   .     S
C1136  H1366   1.111   .     S
C1136  H1364   1.111   .     S
C1136  H1365   1.110   .     S
C1137  C1139   1.521   .     S
C1137  H1368   1.116   .     S
C1137  H1367   1.112   .     S
C1137  O1431   1.414   .     S
C1138  O1435   1.382   .     S
C1138  C1169   1.396   .     A
C1138  C813    1.408   1_655 S
C1139  H1371   1.111   .     S
C1139  H1369   1.111   .     S
C1139  H1370   1.110   .     S
C1140  H1247   1.111   .     S
C1140  H1372   1.116   .     S
C1140  O1432   1.411   .     S
C1140  C1141   1.521   .     S
C1141  H1249   1.110   .     S
C1141  H1248   1.111   .     S
C1141  H1250   1.111   .     S
C1142  H1252   1.112   .     S
C1142  H1251   1.115   .     S
C1142  C1143   1.521   .     S
C1142  O1433   1.411   .     S
C1143  H1254   1.110   .     S
C1143  H1255   1.111   .     S
C1143  H1253   1.111   .     S
C1144  C1145   1.521   .     S
C1144  O1434   1.413   .     S
C1144  H1256   1.112   .     S
C1144  H1258   1.116   .     S
C1145  H1260   1.111   .     S
C1145  H1261   1.111   .     S
C1145  H1259   1.110   .     S
C1146  O1435   1.411   .     S
C1146  C1147   1.521   .     S
C1146  H1262   1.114   .     S
C1146  H1263   1.115   .     S
C1147  H1265   1.111   .     S
C1147  H1264   1.111   .     S
C1147  H1266   1.111   .     S
C1148  C1150   1.521   .     S
C1148  H1269   1.115   .     S
C1148  H1267   1.114   .     S
C1148  O1436   1.411   .     S
C1149  C1170   1.395   .     A
C1149  O1436   1.382   .     S
C1150  H1272   1.111   .     S
C1150  H1270   1.111   .     S
C1150  H1271   1.111   .     S
C1151  C1152   1.521   .     S
C1151  H1274   1.116   .     S
C1151  H1273   1.112   .     S
C1151  O1437   1.413   .     S
C1152  H1276   1.110   .     S
C1152  H1277   1.111   .     S
C1152  H1275   1.111   .     S
C1153  O1437   1.387   .     S
C1153  C1171   1.401   .     A
C1153  C452    1.409   1_565 S
C1154  H1300   1.084   .     S
C1155  C1157   1.395   .     A
C1155  H1301   1.084   .     S
C1156  H1302   1.084   .     S
C1156  C1168   1.395   .     A
C1156  C747    1.399   1_655 S
C1157  O1422   1.383   .     S
C1158  H1303   1.084   .     S
C1158  C1179   1.394   .     A
C1158  C748    1.399   1_655 S
C1159  C1190   1.400   .     A
C1159  H1304   1.083   .     S
C1160  C1201   1.396   .     A
C1160  H1305   1.084   .     S
C1161  H1306   1.084   .     S
C1161  C1212   1.395   .     A
C1162  H1308   1.083   .     S
C1162  C1223   1.400   .     A
C1163  H1309   1.084   .     S
C1163  C1234   1.396   .     A
C1164  H1310   1.083   .     S
C1165  H1311   1.084   .     S
C1166  H1312   1.084   .     S
C1167  H1313   1.083   .     S
C1168  O1423   1.383   .     S
C1168  C810    1.412   1_655 S
C1169  H1314   1.084   .     S
C1169  C750    1.399   1_655 A
C1170  H1315   1.084   .     S
C1171  H1316   1.083   .     S
C1171  C389    1.399   1_565 S
C1172  C1190   1.409   .     A
C1172  C365    1.412   1_565 S
C1172  C1173   1.472   1_554 S
C1173  C1201   1.410   .     A
C1173  C1172   1.472   1_556 S
C1173  C429    1.412   1_565 S
C1174  C1212   1.410   .     A
C1174  C1175   1.472   1_554 S
C1175  C1223   1.409   .     A
C1175  C1174   1.472   1_556 S
C1176  C1177   1.471   .     S
C1178  C421    1.410   1_565 S
C1178  C452    1.472   1_565 S
C1179  O1424   1.383   .     S
C1179  C811    1.412   1_655 S
C1181  O1440   1.281   .     A
C1182  O1428   1.281   .     S
C1183  O1438   1.281   .     A
C1184  O1376   1.281   .     S
C1185  O1377   1.281   .     S
C1185  O1381   1.281   .     S
C1186  O1382   1.281   .     A
C1186  O1378   1.281   .     A
C1187  O651    1.281   1_565 S
C1187  O655    1.281   1_565 S
C1188  O652    1.281   1_565 S
C1188  O657    1.281   1_565 S
C1189  O1386   1.279   .     A
C1189  C1244   1.456   .     S
C1189  O1414   1.279   .     A
C1190  O1425   1.387   .     S
C1191  O1387   1.279   .     A
C1191  O1415   1.279   .     A
C1192  O1388   1.279   .     A
C1192  O1412   1.279   .     A
C1193  O1413   1.279   .     A
C1193  O1389   1.279   .     A
C1194  O1419   1.279   .     A
C1194  O1390   1.279   .     A
C1195  O1391   1.279   .     A
C1195  O1420   1.279   .     A
C1196  C1242   1.456   .     S
C1196  O1392   1.279   .     A
C1196  O1416   1.279   .     A
C1197  C1243   1.456   .     S
C1197  O1393   1.279   .     A
C1197  O1418   1.279   .     A
C1198  O1405   1.279   .     A
C1198  O1394   1.279   .     A
C1199  O1407   1.279   .     A
C1199  O1396   1.279   .     A
C1200  O1403   1.279   .     A
C1200  O1397   1.279   .     A
C1201  O1426   1.382   .     S
C1202  O1404   1.279   .     A
C1202  O1398   1.279   .     A
C1203  O1399   1.279   .     A
C1203  O1410   1.279   .     A
C1204  O1411   1.279   .     A
C1204  O1400   1.279   .     A
C1205  O1401   1.279   .     A
C1205  O1408   1.279   .     A
C1206  O1409   1.279   .     A
C1206  O1402   1.279   .     A
C1207  C1224   1.386   .     A
C1207  H1245   1.083   .     S
C1208  C1222   1.386   .     A
C1208  H1285   1.083   .     S
C1209  C1221   1.386   .     A
C1209  H1296   1.083   .     S
C1210  H1307   1.083   .     S
C1210  C1220   1.386   .     A
C1211  H1318   1.083   .     S
C1211  C1219   1.386   .     A
C1212  O1427   1.382   .     S
C1213  C1218   1.386   .     A
C1213  H1329   1.083   .     S
C1214  C1217   1.386   .     A
C1214  H1340   1.083   .     S
C1215  C1216   1.386   .     A
C1215  H1351   1.083   .     S
C1216  H1362   1.083   .     S
C1217  H1246   1.083   .     S
C1218  H1257   1.083   .     S
C1219  H1268   1.083   .     S
C1220  H1278   1.083   .     S
C1221  C1244   1.402   .     A
C1221  H1279   1.083   .     S
C1222  C1243   1.402   .     A
C1222  H1280   1.083   .     S
C1223  O1429   1.387   .     S
C1224  C1242   1.402   .     A
C1224  H1281   1.083   .     S
C1225  C1243   1.402   .     A
C1225  H1282   1.083   .     S
C1225  C1241   1.386   .     A
C1226  H1283   1.083   .     S
C1226  C1242   1.402   .     A
C1226  C1240   1.386   .     A
C1227  H1284   1.083   .     S
C1227  C1239   1.386   .     A
C1228  C1244   1.402   .     A
C1228  C1238   1.386   .     A
C1228  H1286   1.083   .     S
C1229  H1287   1.083   .     S
C1229  C1237   1.386   .     A
C1230  H1288   1.083   .     S
C1230  C1236   1.386   .     A
C1231  C1235   1.386   .     A
C1231  H1289   1.083   .     S
C1232  H1290   1.083   .     S
C1232  C1233   1.386   .     A
C1233  H1291   1.083   .     S
C1234  O1430   1.382   .     S
C1234  C812    1.408   1_655 S
C1235  H1292   1.083   .     S
C1236  H1293   1.083   .     S
C1237  H1294   1.083   .     S
C1238  H1295   1.083   .     S
C1239  H1297   1.083   .     S
C1240  H1298   1.083   .     S
C1241  H1299   1.083   .     S
H1319  C1118   1.111   1_556 S
H1320  C1119   1.111   1_554 S
H1324  C1120   1.112   1_554 S
H1325  C1121   1.111   1_556 S
H1330  C1122   1.112   1_556 S
H1331  C1123   1.111   1_554 S
H1335  C1124   1.111   1_554 S
H1336  C1125   1.111   1_556 S
H1342  C1128   1.111   1_556 S
H1344  C1128   1.111   1_556 S
H1347  C1130   1.111   1_556 S
H1353  C1132   1.111   1_554 S
H1358  C1134   1.111   1_554 S
H1360  C1134   1.111   1_554 S
O1373  Zn1444  1.945   .     S
O1373  Zn1441  1.945   .     S
O1373  Zn1452  1.945   .     S
O1374  C454    1.281   1_565 A
O1374  Zn1443  1.938   .     S
O1375  Zn1446  1.937   .     S
O1375  C819    1.281   1_655 S
O1376  Zn1445  1.937   .     S
O1377  Zn1455  1.937   .     S
O1378  Zn1454  1.937   .     S
O1379  Zn1449  1.937   .     S
O1380  Zn1441  1.937   .     S
O1381  Zn1451  1.938   .     S
O1382  Zn1450  1.938   .     S
O1383  Zn1453  1.937   .     S
O1384  Zn1453  1.945   .     S
O1384  Zn1447  1.945   .     S
O1384  Zn1449  1.945   .     S
O1385  Zn1452  1.937   .     S
O1386  Zn1444  1.937   .     S
O1387  Zn1443  1.937   .     S
O1388  Zn1446  1.937   .     S
O1389  Zn1445  1.937   .     S
O1390  Zn1448  1.937   .     S
O1391  Zn1447  1.937   .     S
O1392  Zn1442  1.937   .     S
O1393  Zn1456  1.937   .     S
O1394  Zn1443  1.937   .     S
O1395  Zn1454  1.945   .     S
O1395  Zn1442  1.945   .     S
O1395  Zn1450  1.945   .     S
O1396  Zn1444  1.937   .     S
O1397  Zn1456  1.937   .     S
O1398  Zn1442  1.937   .     S
O1399  Zn1447  1.937   .     S
O1400  Zn1448  1.937   .     S
O1401  Zn1445  1.937   .     S
O1402  Zn1446  1.937   .     S
O1403  Zn1087  1.937   1_655 S
O1404  Zn1450  1.937   .     S
O1405  Zn725   1.937   1_565 S
O1406  Zn1445  1.945   .     S
O1406  Zn1451  1.945   .     S
O1406  Zn1455  1.945   .     S
O1407  Zn1452  1.937   .     S
O1408  Zn1455  1.937   .     S
O1409  Zn1090  1.937   1_655 S
O1410  Zn1449  1.937   .     S
O1411  Zn713   1.937   1_565 S
O1412  Zn1086  1.937   1_655 S
O1413  Zn1451  1.937   .     S
O1414  Zn1441  1.937   .     S
O1415  Zn721   1.937   1_565 S
O1416  Zn1454  1.937   .     S
O1417  Zn1448  1.937   .     S
O1417  C453    1.281   1_565 S
O1418  Zn1091  1.937   1_655 S
O1419  Zn724   1.937   1_565 S
O1420  Zn1453  1.937   .     S
O1428  Zn1447  1.937   .     S
O1438  Zn1442  1.937   .     S
O1439  Zn1456  1.937   .     S
O1439  C820    1.281   1_655 A
O1440  Zn1444  1.938   .     S
Zn1443 O656    1.945   1_565 S
Zn1446 O1031   1.945   1_655 S
Zn1448 O645    1.945   1_565 S
Zn1456 O1042   1.945   1_655 S
