data_str_m1_o2_o5_pcu_sym.41
_audit_creation_date              2020-01-03
_audit_creation_method            'Materials Studio'
_symmetry_space_group_name_H-M    'P1'
_symmetry_Int_Tables_number       1
_symmetry_cell_setting            triclinic
loop_
_symmetry_equiv_pos_as_xyz
  x,y,z
_cell_length_a                    24.5395
_cell_length_b                    24.4848
_cell_length_c                    22.3898
_cell_angle_alpha                 89.9806
_cell_angle_beta                  89.9885
_cell_angle_gamma                 90.3808
loop_
_atom_site_label
_atom_site_type_symbol
_atom_site_fract_x
_atom_site_fract_y
_atom_site_fract_z
_atom_site_U_iso_or_equiv
_atom_site_adp_type
_atom_site_occupancy
C1     C     0.22955   0.27078   0.25341   0.00000  Uiso   1.00
C2     C     0.23112   0.72750   0.25015   0.00000  Uiso   1.00
C3     C     0.17386   0.66293   0.30438   0.00000  Uiso   1.00
C4     C     0.33498   0.17139   0.69433   0.00000  Uiso   1.00
C5     C     0.63576   0.79723   0.26983   0.00000  Uiso   1.00
C6     C     0.13286   0.70317   0.73893   0.00000  Uiso   1.00
C7     C     0.84373   0.32108   0.30195   0.00000  Uiso   1.00
C8     C     0.31103   0.85464   0.29214   0.00000  Uiso   1.00
C9     C     0.66351   0.17406   0.69531   0.00000  Uiso   1.00
C10    C     0.17951   0.34258   0.30411   0.00000  Uiso   1.00
C11    C     0.79593   0.63262   0.74062   0.00000  Uiso   1.00
C12    C     0.70119   0.13472   0.26671   0.00000  Uiso   1.00
C13    C     0.72726   0.76975   0.75328   0.00000  Uiso   1.00
C14    C     0.31661   0.84921   0.70043   0.00000  Uiso   1.00
C15    C     0.83052   0.66559   0.30597   0.00000  Uiso   1.00
C16    C     0.20256   0.36390   0.73494   0.00000  Uiso   1.00
C17    C     0.14756   0.35096   0.25132   0.00000  Uiso   1.00
C18    C     0.85146   0.64744   0.75126   0.00000  Uiso   1.00
C19    C     0.35330   0.85279   0.24934   0.00000  Uiso   1.00
C20    C     0.64855   0.14747   0.74960   0.00000  Uiso   1.00
C21    C     0.85298   0.64811   0.25051   0.00000  Uiso   1.00
C22    C     0.14730   0.35092   0.74957   0.00000  Uiso   1.00
C23    C     0.64718   0.14778   0.24959   0.00000  Uiso   1.00
C24    C     0.27195   0.22866   0.25398   0.00000  Uiso   1.00
C25    C     0.35246   0.85316   0.74971   0.00000  Uiso   1.00
C26    C     0.85341   0.35275   0.74935   0.00000  Uiso   1.00
C27    C     0.14840   0.64748   0.24972   0.00000  Uiso   1.00
C28    C     0.64695   0.85120   0.75091   0.00000  Uiso   1.00
C29    C     0.35252   0.14764   0.25095   0.00000  Uiso   1.00
C30    C     0.14751   0.64796   0.74941   0.00000  Uiso   1.00
C31    C     0.85225   0.35305   0.25001   0.00000  Uiso   1.00
C32    C     0.35193   0.14735   0.74943   0.00000  Uiso   1.00
C33    C     0.64851   0.85182   0.25115   0.00000  Uiso   1.00
C34    C     0.24340   0.26605   0.11204   0.00000  Uiso   1.00
C35    C     0.22837   0.72969   0.74851   0.00000  Uiso   1.00
C36    C     0.28744   0.22476   0.09691   0.00000  Uiso   1.00
C37    C     0.84066   0.83171   0.73949   0.00000  Uiso   1.00
C38    C     0.87743   0.87904   0.75784   0.00000  Uiso   1.00
C39    C     0.34495   0.67924   0.19913   0.00000  Uiso   1.00
C40    C     0.36536   0.63924   0.15244   0.00000  Uiso   1.00
C41    C     0.80146   0.18144   0.85046   0.00000  Uiso   1.00
C42    C     0.82849   0.18316   0.91155   0.00000  Uiso   1.00
C43    C     0.73511   0.70829   0.11744   0.00000  Uiso   1.00
C44    C     0.68826   0.74659   0.10301   0.00000  Uiso   1.00
C45    C     0.15410   0.16531   0.74424   0.00000  Uiso   1.00
C46    C     0.77025   0.27266   0.25061   0.00000  Uiso   1.00
C47    C     0.11713   0.11967   0.76682   0.00000  Uiso   1.00
C48    C     0.64238   0.32392   0.27484   0.00000  Uiso   1.00
C49    C     0.67240   0.37828   0.28058   0.00000  Uiso   1.00
C50    C     0.25640   0.75730   0.88460   0.00000  Uiso   1.00
C51    C     0.26294   0.72979   0.94506   0.00000  Uiso   1.00
C52    C     0.68398   0.33866   0.81163   0.00000  Uiso   1.00
C53    C     0.64475   0.35110   0.86230   0.00000  Uiso   1.00
C54    C     0.18394   0.79143   0.14209   0.00000  Uiso   1.00
C55    C     0.18727   0.81498   0.07937   0.00000  Uiso   1.00
C56    C     0.72097   0.73825   0.88619   0.00000  Uiso   1.00
C57    C     0.26903   0.22598   0.74917   0.00000  Uiso   1.00
C58    C     0.73887   0.73754   0.95102   0.00000  Uiso   1.00
C59    C     0.17527   0.15725   0.29729   0.00000  Uiso   1.00
C60    C     0.12291   0.12424   0.29086   0.00000  Uiso   1.00
C61    C     0.32311   0.65430   0.70847   0.00000  Uiso   1.00
C62    C     0.37817   0.62757   0.71801   0.00000  Uiso   1.00
C63    C     0.77009   0.25368   0.11265   0.00000  Uiso   1.00
C64    C     0.74274   0.25432   0.05170   0.00000  Uiso   1.00
C65    C     0.27665   0.26305   0.88099   0.00000  Uiso   1.00
C66    C     0.25688   0.26629   0.94510   0.00000  Uiso   1.00
C67    C     0.83212   0.84549   0.25776   0.00000  Uiso   1.00
C68    C     0.73002   0.77102   0.25288   0.00000  Uiso   1.00
C69    C     0.88100   0.87653   0.23297   0.00000  Uiso   1.00
C70    C     0.75600   0.78072   0.61450   0.00000  Uiso   1.00
C71    C     0.80192   0.74127   0.60027   0.00000  Uiso   1.00
C72    C     0.34172   0.32895   0.21742   0.00000  Uiso   1.00
C73    C     0.38035   0.37729   0.22488   0.00000  Uiso   1.00
C74    C     0.84343   0.18190   0.68996   0.00000  Uiso   1.00
C75    C     0.86059   0.14372   0.63997   0.00000  Uiso   1.00
C76    C     0.29688   0.68633   0.35661   0.00000  Uiso   1.00
C77    C     0.32099   0.69047   0.41903   0.00000  Uiso   1.00
C78    C     0.23648   0.20638   0.61307   0.00000  Uiso   1.00
C79    C    -0.00001   0.49998   0.47328   0.00000  Uiso   1.00
C80    C     0.19103   0.24461   0.59394   0.00000  Uiso   1.00
C81    C     0.65829   0.66690   0.25357   0.00000  Uiso   1.00
C82    C     0.62424   0.62049   0.27949   0.00000  Uiso   1.00
C83    C     0.15116   0.82351   0.78851   0.00000  Uiso   1.00
C84    C     0.12637   0.87950   0.77855   0.00000  Uiso   1.00
C85    C     0.74641   0.26450   0.38424   0.00000  Uiso   1.00
C86    C     0.75066   0.24504   0.44859   0.00000  Uiso   1.00
C87    C     0.18131   0.84164   0.30328   0.00000  Uiso   1.00
C88    C     0.14006   0.85660   0.35111   0.00000  Uiso   1.00
C89    C     0.67955   0.29575   0.64817   0.00000  Uiso   1.00
C90    C     0.00000   0.49998   0.52671   0.00000  Uiso   1.00
C91    C     0.67950   0.32195   0.58662   0.00000  Uiso   1.00
C92    C     0.24258   0.25554   0.38946   0.00000  Uiso   1.00
C93    C     0.27278   0.26165   0.44829   0.00000  Uiso   1.00
C94    C     0.66871   0.65331   0.77264   0.00000  Uiso   1.00
C95    C     0.61860   0.62062   0.75415   0.00000  Uiso   1.00
C96    C     0.82503   0.15125   0.22615   0.00000  Uiso   1.00
C97    C     0.87933   0.12624   0.24339   0.00000  Uiso   1.00
C98    C     0.26113   0.76378   0.61087   0.00000  Uiso   1.00
C99    C     0.23052   0.76935   0.55214   0.00000  Uiso   1.00
C100   C     0.78658   0.76888   0.38209   0.00000  Uiso   1.00
C101   C     0.50001  -0.00001   0.47330   0.00000  Uiso   1.00
C102   C     0.77231   0.77331   0.44783   0.00000  Uiso   1.00
C103   C     0.33010   0.34117   0.76108   0.00000  Uiso   1.00
C104   C     0.38005   0.37249   0.73946   0.00000  Uiso   1.00
C105   C     0.12524   0.32376   0.14140   0.00000  Uiso   1.00
C106   C     0.14176   0.37548   0.10738   0.00000  Uiso   1.00
C107   C     0.92382   0.72292   0.77001   0.00000  Uiso   1.00
C108   C     0.94071   0.72760   0.83552   0.00000  Uiso   1.00
C109   C     0.39632   0.81209   0.15514   0.00000  Uiso   1.00
C110   C     0.45263   0.79301   0.17461   0.00000  Uiso   1.00
C111   C     0.65616   0.14124   0.86457   0.00000  Uiso   1.00
C112   C     0.76971   0.72769   0.75397   0.00000  Uiso   1.00
C113   C     0.50001   0.00001   0.52671   0.00000  Uiso   1.00
C114   C     0.68757   0.09140   0.88667   0.00000  Uiso   1.00
C115   C     0.85690   0.65411   0.13501   0.00000  Uiso   1.00
C116   C     0.83669   0.59708   0.11759   0.00000  Uiso   1.00
C117   C     0.07461   0.27746   0.77703   0.00000  Uiso   1.00
C118   C     0.06240   0.27661   0.84396   0.00000  Uiso   1.00
C119   C     0.57852   0.21562   0.20516   0.00000  Uiso   1.00
C120   C     0.58286   0.22626   0.13810   0.00000  Uiso   1.00
C121   C     0.38917   0.81788   0.84947   0.00000  Uiso   1.00
C122   C     0.37176   0.85468   0.90105   0.00000  Uiso   1.00
C123   C     0.81318   0.39436   0.84469   0.00000  Uiso   1.00
C124   C     0.50000   0.99996   0.97328   0.00000  Uiso   1.00
C125   C     0.83637   0.36983   0.90191   0.00000  Uiso   1.00
C126   C     0.14469   0.65263   0.13419   0.00000  Uiso   1.00
C127   C     0.16580   0.59566   0.11917   0.00000  Uiso   1.00
C128   C     0.65683   0.86217   0.86565   0.00000  Uiso   1.00
C129   C     0.69522   0.90912   0.88244   0.00000  Uiso   1.00
C130   C     0.27759   0.07308   0.24608   0.00000  Uiso   1.00
C131   C     0.26557   0.05519   0.18206   0.00000  Uiso   1.00
C132   C     0.21971   0.57551   0.77373   0.00000  Uiso   1.00
C133   C     0.20296   0.55947   0.83710   0.00000  Uiso   1.00
C134   C     0.82495   0.38279   0.14449   0.00000  Uiso   1.00
C135   C     0.50001   0.99996   0.02671   0.00000  Uiso   1.00
C136   C     0.79742   0.43761   0.15569   0.00000  Uiso   1.00
C137   C     0.34425   0.14066   0.86463   0.00000  Uiso   1.00
C138   C     0.30681   0.09411   0.88489   0.00000  Uiso   1.00
C139   C     0.72168   0.92279   0.21804   0.00000  Uiso   1.00
C140   C     0.71931   0.93235   0.15065   0.00000  Uiso   1.00
C141   C     0.63592   0.83681   0.63655   0.00000  Uiso   1.00
C142   C     0.65517   0.89217   0.61259   0.00000  Uiso   1.00
C143   C     0.42702   0.22266   0.25494   0.00000  Uiso   1.00
C144   C     0.44818   0.23424   0.31787   0.00000  Uiso   1.00
C145   C     0.89284   0.31603   0.65127   0.00000  Uiso   1.00
C146   C    -0.00001   0.49999   0.97330   0.00000  Uiso   1.00
C147   C     0.95036   0.29827   0.66788   0.00000  Uiso   1.00
C148   C     0.15206   0.64450   0.36493   0.00000  Uiso   1.00
C149   C     0.18312   0.59558   0.38988   0.00000  Uiso   1.00
C150   C     0.35958   0.15540   0.63417   0.00000  Uiso   1.00
C151   C     0.34146   0.09820   0.61478   0.00000  Uiso   1.00
C152   C     0.57835   0.77827   0.28595   0.00000  Uiso   1.00
C153   C     0.56822   0.78176   0.35317   0.00000  Uiso   1.00
C154   C     0.07464   0.71921   0.72362   0.00000  Uiso   1.00
C155   C     0.05901   0.70138   0.66049   0.00000  Uiso   1.00
C156   C     0.88117   0.32617   0.35596   0.00000  Uiso   1.00
C157   C    -0.00000   0.50000   0.02671   0.00000  Uiso   1.00
C158   C     0.85845   0.36526   0.40280   0.00000  Uiso   1.00
C159   C     0.30905   0.89872   0.33998   0.00000  Uiso   1.00
C160   C     0.33000   0.87690   0.39950   0.00000  Uiso   1.00
C161   C     0.64122   0.15664   0.63441   0.00000  Uiso   1.00
C162   C     0.66159   0.10011   0.61638   0.00000  Uiso   1.00
C163   C     0.17008   0.37349   0.36236   0.00000  Uiso   1.00
C164   C     0.20725   0.42369   0.36702   0.00000  Uiso   1.00
C165   C     0.77745   0.57377   0.73054   0.00000  Uiso   1.00
C166   C     0.77332   0.56054   0.66399   0.00000  Uiso   1.00
C167   C     0.71566   0.07836   0.29031   0.00000  Uiso   1.00
C168   C     0.00000   0.50001   0.09005   0.00000  Uiso   1.00
C169   C     0.69637   0.07092   0.35465   0.00000  Uiso   1.00
C170   C     0.31916   0.89017   0.64926   0.00000  Uiso   1.00
C171   C     0.29056   0.94322   0.66592   0.00000  Uiso   1.00
C172   C     0.85004   0.64379   0.36601   0.00000  Uiso   1.00
C173   C     0.81216   0.59888   0.38942   0.00000  Uiso   1.00
C174   C     0.22223   0.42205   0.72327   0.00000  Uiso   1.00
C175   C     0.22294   0.43514   0.65655   0.00000  Uiso   1.00
C176   C    -0.00001   0.49999   0.90995   0.00000  Uiso   1.00
C177   C     0.50000   0.99998   0.09008   0.00000  Uiso   1.00
C178   C     0.50000   0.99998   0.90992   0.00000  Uiso   1.00
C179   C     0.50001   0.00001   0.59005   0.00000  Uiso   1.00
C180   C     0.27341   0.77070   0.25013   0.00000  Uiso   1.00
C181   C     0.50000  -0.00001   0.40995   0.00000  Uiso   1.00
C182   C     0.00000   0.49999   0.59008   0.00000  Uiso   1.00
C183   C    -0.00000   0.49999   0.40992   0.00000  Uiso   1.00
C184   C     0.10524   0.60526   0.24998   0.00000  Uiso   1.00
C185   C     0.89535   0.39490   0.74963   0.00000  Uiso   1.00
C186   C     0.60542   0.89452   0.25013   0.00000  Uiso   1.00
C187   C     0.39483   0.10527   0.74997   0.00000  Uiso   1.00
C188   C     0.89483   0.39513   0.24982   0.00000  Uiso   1.00
C189   C     0.10515   0.60519   0.74996   0.00000  Uiso   1.00
C190   C     0.39489   0.10521   0.25008   0.00000  Uiso   1.00
C191   C     0.73150   0.22728   0.74981   0.00000  Uiso   1.00
C192   C     0.60507   0.89451   0.75015   0.00000  Uiso   1.00
C193   C     0.89460   0.60524   0.75019   0.00000  Uiso   1.00
C194   C     0.10516   0.39429   0.25037   0.00000  Uiso   1.00
C195   C     0.39494   0.89514   0.74985   0.00000  Uiso   1.00
C196   C     0.60507   0.10508   0.24999   0.00000  Uiso   1.00
C197   C     0.10518   0.39440   0.74986   0.00000  Uiso   1.00
C198   C     0.89495   0.60530   0.25005   0.00000  Uiso   1.00
C199   C     0.60526   0.10530   0.74999   0.00000  Uiso   1.00
C200   C     0.39537   0.89486   0.24957   0.00000  Uiso   1.00
C201   C     0.19833   0.27783   0.20158   0.00000  Uiso   1.00
C202   C     0.77234   0.72889   0.25236   0.00000  Uiso   1.00
C203   C     0.82391   0.74244   0.76685   0.00000  Uiso   1.00
C204   C     0.31734   0.76772   0.20952   0.00000  Uiso   1.00
C205   C     0.72086   0.19692   0.80207   0.00000  Uiso   1.00
C206   C     0.79414   0.71206   0.19747   0.00000  Uiso   1.00
C207   C     0.17330   0.25543   0.76579   0.00000  Uiso   1.00
C208   C     0.67368   0.24295   0.23608   0.00000  Uiso   1.00
C209   C     0.30492   0.77870   0.79994   0.00000  Uiso   1.00
C210   C     0.77151   0.31297   0.79247   0.00000  Uiso   1.00
C211   C     0.20306   0.71547   0.19684   0.00000  Uiso   1.00
C212   C     0.71287   0.79634   0.80646   0.00000  Uiso   1.00
C213   C     0.22700   0.26844   0.74894   0.00000  Uiso   1.00
C214   C     0.25653   0.17328   0.24956   0.00000  Uiso   1.00
C215   C     0.24331   0.67463   0.75539   0.00000  Uiso   1.00
C216   C     0.78022   0.30336   0.19828   0.00000  Uiso   1.00
C217   C     0.28531   0.20246   0.80345   0.00000  Uiso   1.00
C218   C     0.74326   0.82431   0.23433   0.00000  Uiso   1.00
C219   C     0.70213   0.78303   0.69896   0.00000  Uiso   1.00
C220   C     0.32721   0.24387   0.25835   0.00000  Uiso   1.00
C221   C     0.81580   0.26948   0.70690   0.00000  Uiso   1.00
C222   C     0.21840   0.69922   0.30329   0.00000  Uiso   1.00
C223   C     0.29317   0.21054   0.69498   0.00000  Uiso   1.00
C224   C     0.72796   0.22944   0.24979   0.00000  Uiso   1.00
C225   C     0.67701   0.75769   0.27184   0.00000  Uiso   1.00
C226   C     0.17327   0.74407   0.74164   0.00000  Uiso   1.00
C227   C     0.80116   0.28239   0.30295   0.00000  Uiso   1.00
C228   C     0.26947   0.81502   0.29017   0.00000  Uiso   1.00
C229   C     0.70127   0.21743   0.69742   0.00000  Uiso   1.00
C230   C     0.22069   0.30294   0.30428   0.00000  Uiso   1.00
C231   C     0.75565   0.67319   0.74081   0.00000  Uiso   1.00
C232   C     0.74203   0.17510   0.26313   0.00000  Uiso   1.00
C233   C     0.27724   0.80730   0.69942   0.00000  Uiso   1.00
C234   C     0.79020   0.70599   0.30636   0.00000  Uiso   1.00
C235   C     0.27073   0.77277   0.74946   0.00000  Uiso   1.00
C236   C     0.24169   0.32225   0.73353   0.00000  Uiso   1.00
C237   C     0.15714   0.31767   0.19965   0.00000  Uiso   1.00
C238   C     0.86521   0.70305   0.76370   0.00000  Uiso   1.00
C239   C     0.35525   0.81076   0.20615   0.00000  Uiso   1.00
C240   C     0.67603   0.16104   0.80373   0.00000  Uiso   1.00
C241   C     0.83480   0.67176   0.19577   0.00000  Uiso   1.00
C242   C     0.13292   0.29585   0.76450   0.00000  Uiso   1.00
C243   C     0.63385   0.20160   0.23164   0.00000  Uiso   1.00
C244   C     0.34757   0.81727   0.79898   0.00000  Uiso   1.00
C245   C     0.81311   0.35250   0.79444   0.00000  Uiso   1.00
C246   C     0.77370   0.27054   0.74988   0.00000  Uiso   1.00
C247   C     0.16518   0.67218   0.19506   0.00000  Uiso   1.00
C248   C     0.67267   0.83691   0.80591   0.00000  Uiso   1.00
C249   C     0.29649   0.13247   0.24833   0.00000  Uiso   1.00
C250   C     0.20290   0.63376   0.75885   0.00000  Uiso   1.00
C251   C     0.81955   0.34536   0.19860   0.00000  Uiso   1.00
C252   C     0.32673   0.16317   0.80414   0.00000  Uiso   1.00
C253   C     0.70327   0.86514   0.23429   0.00000  Uiso   1.00
C254   C     0.66163   0.82356   0.69697   0.00000  Uiso   1.00
C255   C     0.36778   0.20372   0.25582   0.00000  Uiso   1.00
C256   C     0.85360   0.31265   0.70393   0.00000  Uiso   1.00
H1     H     0.26328   0.30468   0.12698   0.00000  Uiso   1.00
H2     H     0.86039   0.89970   0.79780   0.00000  Uiso   1.00
H3     H     0.32500   0.73404   0.43227   0.00000  Uiso   1.00
H4     H     0.21837   0.17247   0.63969   0.00000  Uiso   1.00
H5     H     0.25424   0.18763   0.57250   0.00000  Uiso   1.00
H6     H     0.20788   0.27852   0.56654   0.00000  Uiso   1.00
H7     H     0.16041   0.22177   0.56712   0.00000  Uiso   1.00
H8     H     0.17061   0.26206   0.63373   0.00000  Uiso   1.00
H9     H     0.69819   0.64960   0.24047   0.00000  Uiso   1.00
H10    H     0.63690   0.68266   0.21319   0.00000  Uiso   1.00
H11    H     0.64517   0.60278   0.31892   0.00000  Uiso   1.00
H12    H     0.58366   0.63577   0.29336   0.00000  Uiso   1.00
H13    H     0.31390   0.65788   0.22684   0.00000  Uiso   1.00
H14    H     0.61853   0.58805   0.24537   0.00000  Uiso   1.00
H15    H     0.19068   0.82937   0.81186   0.00000  Uiso   1.00
H16    H     0.12292   0.79935   0.81747   0.00000  Uiso   1.00
H17    H     0.08641   0.87525   0.75566   0.00000  Uiso   1.00
H18    H     0.12017   0.90014   0.82215   0.00000  Uiso   1.00
H19    H     0.15404   0.90495   0.75062   0.00000  Uiso   1.00
H20    H     0.71074   0.24344   0.36417   0.00000  Uiso   1.00
H21    H     0.73916   0.30942   0.38437   0.00000  Uiso   1.00
H22    H     0.78538   0.26555   0.47136   0.00000  Uiso   1.00
H23    H     0.71248   0.25467   0.47281   0.00000  Uiso   1.00
H24    H     0.38010   0.69118   0.22796   0.00000  Uiso   1.00
H25    H     0.75689   0.20016   0.44974   0.00000  Uiso   1.00
H26    H     0.16155   0.81206   0.27239   0.00000  Uiso   1.00
H27    H     0.19234   0.87956   0.27827   0.00000  Uiso   1.00
H28    H     0.15832   0.88651   0.38269   0.00000  Uiso   1.00
H29    H     0.10358   0.87503   0.33004   0.00000  Uiso   1.00
H30    H     0.12739   0.81945   0.37615   0.00000  Uiso   1.00
H31    H     0.69742   0.32559   0.68013   0.00000  Uiso   1.00
H32    H     0.63639   0.28690   0.66082   0.00000  Uiso   1.00
H33    H     0.65924   0.29426   0.55412   0.00000  Uiso   1.00
H34    H     0.65689   0.36106   0.58811   0.00000  Uiso   1.00
H35    H     0.39693   0.65919   0.12416   0.00000  Uiso   1.00
H36    H     0.72197   0.33022   0.57181   0.00000  Uiso   1.00
H37    H     0.25580   0.21660   0.36899   0.00000  Uiso   1.00
H38    H     0.19805   0.25332   0.39906   0.00000  Uiso   1.00
H39    H     0.25993   0.29966   0.47122   0.00000  Uiso   1.00
H40    H     0.26356   0.22606   0.47725   0.00000  Uiso   1.00
H41    H     0.31742   0.26341   0.44017   0.00000  Uiso   1.00
H42    H     0.65473   0.69371   0.78868   0.00000  Uiso   1.00
H43    H     0.68889   0.63112   0.81001   0.00000  Uiso   1.00
H44    H     0.59084   0.61559   0.79297   0.00000  Uiso   1.00
H45    H     0.59660   0.64226   0.71793   0.00000  Uiso   1.00
H46    H     0.38342   0.60313   0.17475   0.00000  Uiso   1.00
H47    H     0.63085   0.57962   0.73796   0.00000  Uiso   1.00
H48    H     0.83355   0.18966   0.20133   0.00000  Uiso   1.00
H49    H     0.80317   0.12184   0.19641   0.00000  Uiso   1.00
H50    H     0.87242   0.08738   0.26795   0.00000  Uiso   1.00
H51    H     0.90356   0.11772   0.20259   0.00000  Uiso   1.00
H52    H     0.90260   0.15495   0.27229   0.00000  Uiso   1.00
H53    H     0.25327   0.72206   0.62852   0.00000  Uiso   1.00
H54    H     0.30553   0.76891   0.60149   0.00000  Uiso   1.00
H55    H     0.23819   0.81034   0.53248   0.00000  Uiso   1.00
H56    H     0.24449   0.73773   0.52021   0.00000  Uiso   1.00
H57    H     0.33101   0.62547   0.12371   0.00000  Uiso   1.00
H58    H     0.18608   0.76393   0.55977   0.00000  Uiso   1.00
H59    H     0.76809   0.80420   0.35884   0.00000  Uiso   1.00
H60    H     0.83183   0.77113   0.37785   0.00000  Uiso   1.00
H61    H     0.78909   0.73768   0.47209   0.00000  Uiso   1.00
H62    H     0.78997   0.81143   0.46674   0.00000  Uiso   1.00
H63    H     0.72736   0.77390   0.45358   0.00000  Uiso   1.00
H64    H     0.34399   0.30099   0.77792   0.00000  Uiso   1.00
H65    H     0.31168   0.36461   0.79861   0.00000  Uiso   1.00
H66    H     0.40924   0.37802   0.77690   0.00000  Uiso   1.00
H67    H     0.40039   0.34952   0.70305   0.00000  Uiso   1.00
H68    H     0.82854   0.20365   0.81893   0.00000  Uiso   1.00
H69    H     0.36793   0.41327   0.72249   0.00000  Uiso   1.00
H70    H     0.11782   0.37822   0.06541   0.00000  Uiso   1.00
H71    H     0.13426   0.41285   0.13398   0.00000  Uiso   1.00
H72    H     0.18571   0.37410   0.09574   0.00000  Uiso   1.00
H73    H     0.13182   0.28882   0.11088   0.00000  Uiso   1.00
H74    H     0.08074   0.32166   0.14901   0.00000  Uiso   1.00
H75    H     0.93543   0.68802   0.85899   0.00000  Uiso   1.00
H76    H     0.98420   0.74014   0.83833   0.00000  Uiso   1.00
H77    H     0.91581   0.75887   0.85859   0.00000  Uiso   1.00
H78    H     0.95235   0.69677   0.74493   0.00000  Uiso   1.00
H79    H     0.79792   0.13795   0.83613   0.00000  Uiso   1.00
H80    H     0.92917   0.76339   0.74853   0.00000  Uiso   1.00
H81    H     0.47954   0.78972   0.13492   0.00000  Uiso   1.00
H82    H     0.47121   0.82288   0.20566   0.00000  Uiso   1.00
H83    H     0.45018   0.75246   0.19656   0.00000  Uiso   1.00
H84    H     0.38259   0.78591   0.11746   0.00000  Uiso   1.00
H85    H     0.39939   0.85399   0.13636   0.00000  Uiso   1.00
H86    H     0.69227   0.06045   0.85088   0.00000  Uiso   1.00
H87    H     0.72855   0.10364   0.90266   0.00000  Uiso   1.00
H88    H     0.66536   0.07240   0.92466   0.00000  Uiso   1.00
H89    H     0.66031   0.17455   0.89804   0.00000  Uiso   1.00
H90    H     0.80342   0.16034   0.94456   0.00000  Uiso   1.00
H91    H     0.61185   0.13198   0.86387   0.00000  Uiso   1.00
H92    H     0.85135   0.58703   0.07200   0.00000  Uiso   1.00
H93    H     0.85207   0.56552   0.14871   0.00000  Uiso   1.00
H94    H     0.79145   0.59571   0.11758   0.00000  Uiso   1.00
H95    H     0.84459   0.68252   0.09901   0.00000  Uiso   1.00
H96    H     0.90192   0.65645   0.13358   0.00000  Uiso   1.00
H97    H     0.07076   0.31704   0.86450   0.00000  Uiso   1.00
H98    H     0.01883   0.26599   0.85116   0.00000  Uiso   1.00
H99    H     0.08783   0.24554   0.86669   0.00000  Uiso   1.00
H100   H     0.04455   0.30243   0.75285   0.00000  Uiso   1.00
H101   H     0.86942   0.16423   0.90903   0.00000  Uiso   1.00
H102   H     0.06721   0.23596   0.75882   0.00000  Uiso   1.00
H103   H     0.59964   0.18982   0.11515   0.00000  Uiso   1.00
H104   H     0.54174   0.23470   0.11970   0.00000  Uiso   1.00
H105   H     0.60950   0.26205   0.12877   0.00000  Uiso   1.00
H106   H     0.54810   0.18263   0.21130   0.00000  Uiso   1.00
H107   H     0.56138   0.25198   0.22771   0.00000  Uiso   1.00
H108   H     0.40592   0.85891   0.93328   0.00000  Uiso   1.00
H109   H     0.36066   0.89593   0.88484   0.00000  Uiso   1.00
H110   H     0.33651   0.83671   0.92505   0.00000  Uiso   1.00
H111   H     0.39576   0.77588   0.86673   0.00000  Uiso   1.00
H112   H     0.22086   0.27559   0.07041   0.00000  Uiso   1.00
H113   H     0.83311   0.22617   0.92661   0.00000  Uiso   1.00
H114   H     0.42970   0.83160   0.83301   0.00000  Uiso   1.00
H115   H     0.87883   0.35599   0.89436   0.00000  Uiso   1.00
H116   H     0.83660   0.40115   0.93777   0.00000  Uiso   1.00
H117   H     0.81112   0.33460   0.91693   0.00000  Uiso   1.00
H118   H     0.83714   0.43147   0.83317   0.00000  Uiso   1.00
H119   H     0.77118   0.40902   0.85326   0.00000  Uiso   1.00
H120   H     0.21106   0.59546   0.12059   0.00000  Uiso   1.00
H121   H     0.14987   0.56452   0.15072   0.00000  Uiso   1.00
H122   H     0.15246   0.58414   0.07346   0.00000  Uiso   1.00
H123   H     0.09969   0.65393   0.13143   0.00000  Uiso   1.00
H124   H     0.71894   0.67307   0.14361   0.00000  Uiso   1.00
H125   H     0.15843   0.67990   0.09752   0.00000  Uiso   1.00
H126   H     0.69623   0.94075   0.84695   0.00000  Uiso   1.00
H127   H     0.68113   0.92825   0.92462   0.00000  Uiso   1.00
H128   H     0.73721   0.89368   0.88931   0.00000  Uiso   1.00
H129   H     0.61387   0.87576   0.86637   0.00000  Uiso   1.00
H130   H     0.65816   0.83116   0.90172   0.00000  Uiso   1.00
H131   H     0.23134   0.07919   0.16334   0.00000  Uiso   1.00
H132   H     0.30190   0.06104   0.15319   0.00000  Uiso   1.00
H133   H     0.25395   0.01128   0.18162   0.00000  Uiso   1.00
H134   H     0.30730   0.04508   0.26704   0.00000  Uiso   1.00
H135   H     0.75093   0.69149   0.07491   0.00000  Uiso   1.00
H136   H     0.24018   0.06720   0.27320   0.00000  Uiso   1.00
H137   H     0.15802   0.55926   0.84226   0.00000  Uiso   1.00
H138   H     0.21802   0.51779   0.84712   0.00000  Uiso   1.00
H139   H     0.22107   0.58845   0.86984   0.00000  Uiso   1.00
H140   H     0.20249   0.54656   0.74081   0.00000  Uiso   1.00
H141   H     0.26441   0.56991   0.77041   0.00000  Uiso   1.00
H142   H     0.75356   0.43119   0.16603   0.00000  Uiso   1.00
H143   H     0.81705   0.45962   0.19336   0.00000  Uiso   1.00
H144   H     0.80081   0.46348   0.11510   0.00000  Uiso   1.00
H145   H     0.86835   0.38939   0.13256   0.00000  Uiso   1.00
H146   H     0.70370   0.78328   0.07912   0.00000  Uiso   1.00
H147   H     0.80615   0.36444   0.10409   0.00000  Uiso   1.00
H148   H     0.30556   0.06094   0.85115   0.00000  Uiso   1.00
H149   H     0.32200   0.07708   0.92768   0.00000  Uiso   1.00
H150   H     0.26476   0.10930   0.89198   0.00000  Uiso   1.00
H151   H     0.38730   0.12729   0.86470   0.00000  Uiso   1.00
H152   H     0.34347   0.17319   0.89907   0.00000  Uiso   1.00
H153   H     0.74919   0.90580   0.12758   0.00000  Uiso   1.00
H154   H     0.67811   0.92324   0.13271   0.00000  Uiso   1.00
H155   H     0.72963   0.97564   0.14077   0.00000  Uiso   1.00
H156   H     0.69848   0.95399   0.24273   0.00000  Uiso   1.00
H157   H     0.65790   0.72523   0.07444   0.00000  Uiso   1.00
H158   H     0.76405   0.93059   0.23305   0.00000  Uiso   1.00
H159   H     0.63713   0.89922   0.56778   0.00000  Uiso   1.00
H160   H     0.64262   0.92607   0.64225   0.00000  Uiso   1.00
H161   H     0.70025   0.89281   0.60831   0.00000  Uiso   1.00
H162   H     0.64598   0.80580   0.60233   0.00000  Uiso   1.00
H163   H     0.59093   0.83440   0.63841   0.00000  Uiso   1.00
H164   H     0.44355   0.19770   0.34682   0.00000  Uiso   1.00
H165   H     0.49203   0.24554   0.31576   0.00000  Uiso   1.00
H166   H     0.42557   0.26863   0.33829   0.00000  Uiso   1.00
H167   H     0.45368   0.19292   0.23218   0.00000  Uiso   1.00
H168   H     0.66782   0.75993   0.14459   0.00000  Uiso   1.00
H169   H     0.43151   0.26020   0.22760   0.00000  Uiso   1.00
H170   H     0.97536   0.29455   0.62676   0.00000  Uiso   1.00
H171   H     0.97001   0.32912   0.69699   0.00000  Uiso   1.00
H172   H     0.94968   0.25816   0.69096   0.00000  Uiso   1.00
H173   H     0.87862   0.29010   0.61361   0.00000  Uiso   1.00
H174   H     0.89400   0.35829   0.63327   0.00000  Uiso   1.00
H175   H     0.18965   0.56393   0.35519   0.00000  Uiso   1.00
H176   H     0.22325   0.60868   0.40756   0.00000  Uiso   1.00
H177   H     0.15961   0.57710   0.42723   0.00000  Uiso   1.00
H178   H     0.15463   0.67869   0.39750   0.00000  Uiso   1.00
H179   H     0.19409   0.14687   0.73359   0.00000  Uiso   1.00
H180   H     0.10792   0.63460   0.36257   0.00000  Uiso   1.00
H181   H     0.35793   0.08934   0.56964   0.00000  Uiso   1.00
H182   H     0.35653   0.06647   0.64588   0.00000  Uiso   1.00
H183   H     0.29629   0.09570   0.61288   0.00000  Uiso   1.00
H184   H     0.34771   0.18410   0.59825   0.00000  Uiso   1.00
H185   H     0.40453   0.15907   0.63455   0.00000  Uiso   1.00
H186   H     0.57607   0.82366   0.37008   0.00000  Uiso   1.00
H187   H     0.52521   0.77052   0.36291   0.00000  Uiso   1.00
H188   H     0.59524   0.75300   0.37730   0.00000  Uiso   1.00
H189   H     0.54691   0.80051   0.26073   0.00000  Uiso   1.00
H190   H     0.13552   0.18250   0.70288   0.00000  Uiso   1.00
H191   H     0.57145   0.73545   0.27163   0.00000  Uiso   1.00
H192   H     0.08789   0.71929   0.62755   0.00000  Uiso   1.00
H193   H     0.05919   0.65627   0.65616   0.00000  Uiso   1.00
H194   H     0.01734   0.71598   0.65002   0.00000  Uiso   1.00
H195   H     0.04590   0.70200   0.75671   0.00000  Uiso   1.00
H196   H     0.06854   0.76399   0.72615   0.00000  Uiso   1.00
H197   H     0.88874   0.37077   0.43918   0.00000  Uiso   1.00
H198   H     0.84966   0.40578   0.38304   0.00000  Uiso   1.00
H199   H     0.82047   0.34867   0.42258   0.00000  Uiso   1.00
H200   H     0.88753   0.28552   0.37680   0.00000  Uiso   1.00
H201   H     0.07639   0.13611   0.77831   0.00000  Uiso   1.00
H202   H     0.92249   0.34033   0.34260   0.00000  Uiso   1.00
H203   H     0.37277   0.86295   0.39475   0.00000  Uiso   1.00
H204   H     0.32872   0.90977   0.43361   0.00000  Uiso   1.00
H205   H     0.30428   0.84225   0.41517   0.00000  Uiso   1.00
H206   H     0.33341   0.93534   0.32758   0.00000  Uiso   1.00
H207   H     0.26674   0.91362   0.34574   0.00000  Uiso   1.00
H208   H     0.70686   0.09971   0.61608   0.00000  Uiso   1.00
H209   H     0.64654   0.06798   0.64725   0.00000  Uiso   1.00
H210   H     0.64678   0.09013   0.57078   0.00000  Uiso   1.00
H211   H     0.59618   0.15837   0.63314   0.00000  Uiso   1.00
H212   H     0.11226   0.08802   0.73167   0.00000  Uiso   1.00
H213   H     0.65416   0.18499   0.59838   0.00000  Uiso   1.00
H214   H     0.25050   0.41093   0.37020   0.00000  Uiso   1.00
H215   H     0.20279   0.45071   0.32757   0.00000  Uiso   1.00
H216   H     0.19679   0.44724   0.40777   0.00000  Uiso   1.00
H217   H     0.12675   0.38436   0.36885   0.00000  Uiso   1.00
H218   H     0.17827   0.34699   0.40146   0.00000  Uiso   1.00
H219   H     0.74113   0.58563   0.64277   0.00000  Uiso   1.00
H220   H     0.81253   0.56877   0.64088   0.00000  Uiso   1.00
H221   H     0.76255   0.51675   0.65817   0.00000  Uiso   1.00
H222   H     0.80387   0.54404   0.75379   0.00000  Uiso   1.00
H223   H     0.26874   0.18744   0.07728   0.00000  Uiso   1.00
H224   H     0.13519   0.10056   0.80716   0.00000  Uiso   1.00
H225   H     0.73698   0.56638   0.75116   0.00000  Uiso   1.00
H226   H     0.65137   0.07394   0.35773   0.00000  Uiso   1.00
H227   H     0.70861   0.02999   0.37104   0.00000  Uiso   1.00
H228   H     0.71525   0.10253   0.38378   0.00000  Uiso   1.00
H229   H     0.69794   0.04617   0.26156   0.00000  Uiso   1.00
H230   H     0.76024   0.07117   0.28931   0.00000  Uiso   1.00
H231   H     0.24726   0.93486   0.67742   0.00000  Uiso   1.00
H232   H     0.31090   0.96317   0.70450   0.00000  Uiso   1.00
H233   H     0.29190   0.97181   0.62743   0.00000  Uiso   1.00
H234   H     0.36197   0.89892   0.63631   0.00000  Uiso   1.00
H235   H     0.64769   0.30065   0.31724   0.00000  Uiso   1.00
H236   H     0.29958   0.87381   0.60829   0.00000  Uiso   1.00
H237   H     0.77088   0.61544   0.39803   0.00000  Uiso   1.00
H238   H     0.80868   0.56495   0.35677   0.00000  Uiso   1.00
H239   H     0.82856   0.58245   0.43196   0.00000  Uiso   1.00
H240   H     0.89255   0.62890   0.36409   0.00000  Uiso   1.00
H241   H     0.85185   0.67712   0.39952   0.00000  Uiso   1.00
H242   H     0.25329   0.40924   0.63333   0.00000  Uiso   1.00
H243   H     0.18238   0.42784   0.63608   0.00000  Uiso   1.00
H244   H     0.23444   0.47865   0.64991   0.00000  Uiso   1.00
H245   H     0.19805   0.45218   0.74848   0.00000  Uiso   1.00
H246   H     0.59822   0.33251   0.27007   0.00000  Uiso   1.00
H247   H     0.26392   0.42852   0.74101   0.00000  Uiso   1.00
H248   H     0.66667   0.40296   0.23946   0.00000  Uiso   1.00
H249   H     0.65622   0.40133   0.31936   0.00000  Uiso   1.00
H250   H     0.71658   0.37140   0.28755   0.00000  Uiso   1.00
H251   H     0.21757   0.74244   0.86485   0.00000  Uiso   1.00
H252   H     0.25369   0.80222   0.89186   0.00000  Uiso   1.00
H253   H     0.30080   0.74449   0.96716   0.00000  Uiso   1.00
H254   H     0.22755   0.73945   0.97392   0.00000  Uiso   1.00
H255   H     0.31656   0.24284   0.06440   0.00000  Uiso   1.00
H256   H     0.26509   0.68480   0.93930   0.00000  Uiso   1.00
H257   H     0.66301   0.31048   0.78014   0.00000  Uiso   1.00
H258   H     0.69383   0.37776   0.78828   0.00000  Uiso   1.00
H259   H     0.66425   0.37957   0.89460   0.00000  Uiso   1.00
H260   H     0.60736   0.37031   0.84421   0.00000  Uiso   1.00
H261   H     0.63327   0.31274   0.88580   0.00000  Uiso   1.00
H262   H     0.20017   0.82258   0.17360   0.00000  Uiso   1.00
H263   H     0.14016   0.78314   0.15239   0.00000  Uiso   1.00
H264   H     0.16887   0.78589   0.04701   0.00000  Uiso   1.00
H265   H     0.16461   0.85404   0.07734   0.00000  Uiso   1.00
H266   H     0.31047   0.21320   0.13743   0.00000  Uiso   1.00
H267   H     0.23048   0.82276   0.06701   0.00000  Uiso   1.00
H268   H     0.73811   0.70154   0.86435   0.00000  Uiso   1.00
H269   H     0.67556   0.73592   0.88522   0.00000  Uiso   1.00
H270   H     0.72358   0.77448   0.97411   0.00000  Uiso   1.00
H271   H     0.72206   0.70056   0.97322   0.00000  Uiso   1.00
H272   H     0.78405   0.73685   0.95387   0.00000  Uiso   1.00
H273   H     0.16409   0.19914   0.31138   0.00000  Uiso   1.00
H274   H     0.20037   0.13787   0.33291   0.00000  Uiso   1.00
H275   H     0.10095   0.12309   0.33423   0.00000  Uiso   1.00
H276   H     0.09620   0.14322   0.25673   0.00000  Uiso   1.00
H277   H     0.79992   0.84879   0.72945   0.00000  Uiso   1.00
H278   H     0.13242   0.08179   0.27705   0.00000  Uiso   1.00
H279   H     0.33030   0.69460   0.68697   0.00000  Uiso   1.00
H280   H     0.29868   0.62770   0.67798   0.00000  Uiso   1.00
H281   H     0.37258   0.58683   0.73907   0.00000  Uiso   1.00
H282   H     0.39909   0.62240   0.67442   0.00000  Uiso   1.00
H283   H     0.40396   0.65353   0.74744   0.00000  Uiso   1.00
H284   H     0.76189   0.21325   0.13343   0.00000  Uiso   1.00
H285   H     0.81486   0.25901   0.10583   0.00000  Uiso   1.00
H286   H     0.75089   0.29386   0.02896   0.00000  Uiso   1.00
H287   H     0.75895   0.22072   0.02373   0.00000  Uiso   1.00
H288   H     0.85806   0.81304   0.69831   0.00000  Uiso   1.00
H289   H     0.69804   0.24859   0.05680   0.00000  Uiso   1.00
H290   H     0.26001   0.29876   0.85682   0.00000  Uiso   1.00
H291   H     0.32203   0.26552   0.88114   0.00000  Uiso   1.00
H292   H     0.27024   0.22945   0.96977   0.00000  Uiso   1.00
H293   H     0.27394   0.30331   0.96703   0.00000  Uiso   1.00
H294   H     0.21168   0.26823   0.94618   0.00000  Uiso   1.00
H295   H     0.84702   0.80616   0.27586   0.00000  Uiso   1.00
H296   H     0.81444   0.87019   0.29477   0.00000  Uiso   1.00
H297   H     0.91121   0.88382   0.26907   0.00000  Uiso   1.00
H298   H     0.90055   0.85243   0.19692   0.00000  Uiso   1.00
H299   H     0.91888   0.86392   0.76850   0.00000  Uiso   1.00
H300   H     0.86788   0.91648   0.21462   0.00000  Uiso   1.00
H301   H     0.77359   0.81772   0.63622   0.00000  Uiso   1.00
H302   H     0.73778   0.79426   0.57168   0.00000  Uiso   1.00
H303   H     0.78544   0.70458   0.57720   0.00000  Uiso   1.00
H304   H     0.83244   0.76164   0.57103   0.00000  Uiso   1.00
H305   H     0.82264   0.72816   0.64172   0.00000  Uiso   1.00
H306   H     0.30033   0.34550   0.20987   0.00000  Uiso   1.00
H307   H     0.35496   0.30538   0.17737   0.00000  Uiso   1.00
H308   H     0.42250   0.36269   0.23273   0.00000  Uiso   1.00
H309   H     0.37991   0.40280   0.18387   0.00000  Uiso   1.00
H310   H     0.88043   0.90905   0.72077   0.00000  Uiso   1.00
H311   H     0.36741   0.40264   0.26343   0.00000  Uiso   1.00
H312   H     0.81433   0.15944   0.71915   0.00000  Uiso   1.00
H313   H     0.88044   0.19292   0.71631   0.00000  Uiso   1.00
H314   H     0.89017   0.16478   0.61012   0.00000  Uiso   1.00
H315   H     0.88011   0.10685   0.65911   0.00000  Uiso   1.00
H316   H     0.82439   0.13094   0.61353   0.00000  Uiso   1.00
H317   H     0.32530   0.70757   0.32570   0.00000  Uiso   1.00
H318   H     0.29428   0.64235   0.34400   0.00000  Uiso   1.00
H319   H     0.29434   0.66900   0.45165   0.00000  Uiso   1.00
H320   H     0.36194   0.67146   0.41976   0.00000  Uiso   1.00
O1     O     0.00000   0.50000   0.25000   0.00000  Uiso   1.00
O2     O     0.00000   0.45454   0.88202   0.00000  Uiso   1.00
O3     O     0.54546  -0.00000   0.11798   0.00000  Uiso   1.00
O4     O     0.45454  -0.00000   0.88202   0.00000  Uiso   1.00
O5     O     0.50000   0.95454   0.61798   0.00000  Uiso   1.00
O6     O     0.50000   0.04546   0.38202   0.00000  Uiso   1.00
O7     O     0.95454   0.50000   0.61798   0.00000  Uiso   1.00
O8     O     0.04546   0.50000   0.38202   0.00000  Uiso   1.00
O9     O     0.50000   0.04546   0.61798   0.00000  Uiso   1.00
O10    O     0.50000   0.95454   0.38202   0.00000  Uiso   1.00
O11    O     0.04546   0.50000   0.61798   0.00000  Uiso   1.00
O12    O     0.00000   0.50000   0.75000   0.00000  Uiso   1.00
O13    O     0.95454   0.50000   0.38202   0.00000  Uiso   1.00
O14    O     0.06399   0.60947   0.21539   0.00000  Uiso   1.00
O15    O     0.93601   0.39053   0.78461   0.00000  Uiso   1.00
O16    O     0.60947   0.93601   0.21539   0.00000  Uiso   1.00
O17    O     0.39053   0.06399   0.78461   0.00000  Uiso   1.00
O18    O     0.93601   0.39053   0.21539   0.00000  Uiso   1.00
O19    O     0.06399   0.60947   0.78461   0.00000  Uiso   1.00
O20    O     0.39053   0.06399   0.21539   0.00000  Uiso   1.00
O21    O     0.60947   0.93601   0.78461   0.00000  Uiso   1.00
O22    O     0.93601   0.60947   0.78461   0.00000  Uiso   1.00
O23    O     0.50000  -0.00000   0.25000   0.00000  Uiso   1.00
O24    O     0.06399   0.39053   0.21539   0.00000  Uiso   1.00
O25    O     0.39053   0.93601   0.78461   0.00000  Uiso   1.00
O26    O     0.60947   0.06399   0.21539   0.00000  Uiso   1.00
O27    O     0.06399   0.39053   0.78461   0.00000  Uiso   1.00
O28    O     0.93601   0.60947   0.21539   0.00000  Uiso   1.00
O29    O     0.60947   0.06399   0.78461   0.00000  Uiso   1.00
O30    O     0.39053   0.93601   0.21539   0.00000  Uiso   1.00
O31    O     0.56399   0.10947   0.71539   0.00000  Uiso   1.00
O32    O     0.43601   0.89053   0.28461   0.00000  Uiso   1.00
O33    O     0.10947   0.43601   0.71539   0.00000  Uiso   1.00
O34    O     0.50000  -0.00000   0.75000   0.00000  Uiso   1.00
O35    O     0.89053   0.56399   0.28461   0.00000  Uiso   1.00
O36    O     0.43601   0.89053   0.71539   0.00000  Uiso   1.00
O37    O     0.56399   0.10947   0.28461   0.00000  Uiso   1.00
O38    O     0.89053   0.56399   0.71539   0.00000  Uiso   1.00
O39    O     0.10947   0.43601   0.28461   0.00000  Uiso   1.00
O40    O     0.43601   0.10947   0.28461   0.00000  Uiso   1.00
O41    O     0.56399   0.89053   0.71539   0.00000  Uiso   1.00
O42    O     0.89053   0.43601   0.28461   0.00000  Uiso   1.00
O43    O     0.10947   0.56399   0.71539   0.00000  Uiso   1.00
O44    O     0.56399   0.89053   0.28461   0.00000  Uiso   1.00
O45    O     0.00000   0.45454   0.11798   0.00000  Uiso   1.00
O46    O     0.43601   0.10947   0.71539   0.00000  Uiso   1.00
O47    O     0.10947   0.56399   0.28461   0.00000  Uiso   1.00
O48    O     0.89053   0.43601   0.71539   0.00000  Uiso   1.00
O49    O     0.20647   0.24279   0.15366   0.00000  Uiso   1.00
O50    O     0.83662   0.79447   0.78753   0.00000  Uiso   1.00
O51    O     0.32149   0.72447   0.16988   0.00000  Uiso   1.00
O52    O     0.74996   0.20670   0.85416   0.00000  Uiso   1.00
O53    O     0.77754   0.73810   0.14559   0.00000  Uiso   1.00
O54    O     0.16069   0.20459   0.78989   0.00000  Uiso   1.00
O55    O     0.66047   0.29658   0.22283   0.00000  Uiso   1.00
O56    O     0.00000   0.54546   0.88202   0.00000  Uiso   1.00
O57    O     0.30095   0.74300   0.84793   0.00000  Uiso   1.00
O58    O     0.73094   0.31382   0.83551   0.00000  Uiso   1.00
O59    O     0.21566   0.74359   0.14487   0.00000  Uiso   1.00
O60    O     0.74134   0.78617   0.85878   0.00000  Uiso   1.00
O61    O     0.20225   0.15879   0.24154   0.00000  Uiso   1.00
O62    O     0.29745   0.66116   0.76437   0.00000  Uiso   1.00
O63    O     0.74798   0.29576   0.14810   0.00000  Uiso   1.00
O64    O     0.25719   0.21384   0.85568   0.00000  Uiso   1.00
O65    O     0.79451   0.83595   0.21103   0.00000  Uiso   1.00
O66    O     0.71533   0.75333   0.64822   0.00000  Uiso   1.00
O67    O     0.45454  -0.00000   0.11798   0.00000  Uiso   1.00
O68    O     0.34210   0.29756   0.27035   0.00000  Uiso   1.00
O69    O     0.81808   0.22811   0.66476   0.00000  Uiso   1.00
O70    O     0.24516   0.71137   0.35629   0.00000  Uiso   1.00
O71    O     0.27756   0.23679   0.64284   0.00000  Uiso   1.00
O72    O     0.66596   0.70730   0.29789   0.00000  Uiso   1.00
O73    O     0.15928   0.79817   0.73262   0.00000  Uiso   1.00
O74    O     0.79452   0.25013   0.35349   0.00000  Uiso   1.00
O75    O     0.22708   0.81780   0.33092   0.00000  Uiso   1.00
O76    O     0.71142   0.24797   0.64646   0.00000  Uiso   1.00
O77    O     0.25624   0.30025   0.35239   0.00000  Uiso   1.00
O78    O     0.54546  -0.00000   0.88202   0.00000  Uiso   1.00
O79    O     0.70316   0.65985   0.72253   0.00000  Uiso   1.00
O80    O     0.79510   0.16234   0.27856   0.00000  Uiso   1.00
O81    O     0.24181   0.80339   0.65137   0.00000  Uiso   1.00
O82    O     0.76489   0.71940   0.35971   0.00000  Uiso   1.00
O83    O     0.29378   0.33396   0.71265   0.00000  Uiso   1.00
O84    O     0.00000   0.54546   0.11798   0.00000  Uiso   1.00
Zn1    Zn    0.06497   0.50000   0.29947   0.00000  Uiso   1.00
Zn2    Zn    0.43503  -0.00000   0.20053   0.00000  Uiso   1.00
Zn3    Zn    0.00000   0.43503   0.79947   0.00000  Uiso   1.00
Zn4    Zn    0.00000   0.56497   0.20053   0.00000  Uiso   1.00
Zn5    Zn    0.43503  -0.00000   0.79947   0.00000  Uiso   1.00
Zn6    Zn    0.56497  -0.00000   0.20053   0.00000  Uiso   1.00
Zn7    Zn    0.00000   0.56497   0.79947   0.00000  Uiso   1.00
Zn8    Zn    0.00000   0.43503   0.20053   0.00000  Uiso   1.00
Zn9    Zn    0.93503   0.50000   0.70053   0.00000  Uiso   1.00
Zn10   Zn    0.50000   0.93503   0.29947   0.00000  Uiso   1.00
Zn11   Zn    0.50000   0.06497   0.70053   0.00000  Uiso   1.00
Zn12   Zn    0.93503   0.50000   0.29947   0.00000  Uiso   1.00
Zn13   Zn    0.06497   0.50000   0.70053   0.00000  Uiso   1.00
Zn14   Zn    0.50000   0.06497   0.29947   0.00000  Uiso   1.00
Zn15   Zn    0.50000   0.93503   0.70053   0.00000  Uiso   1.00
Zn16   Zn    0.56497  -0.00000   0.79947   0.00000  Uiso   1.00
loop_
_geom_bond_atom_site_label_1
_geom_bond_atom_site_label_2
_geom_bond_distance
_geom_bond_site_symmetry_2
_ccdc_geom_bond_type
C1     C201    1.402   .     A
C1     C24     1.470   .     S
C1     C230    1.403   .     A
C2     C211    1.408   .     A
C2     C180    1.477   .     S
C2     C222    1.410   .     A
C3     C222    1.404   .     A
C3     C27     1.424   .     A
C3     C148    1.524   .     S
C4     C150    1.528   .     S
C4     C223    1.409   .     A
C4     C32     1.430   .     A
C5     C225    1.406   .     A
C5     C33     1.433   .     A
C5     C152    1.523   .     S
C6     C30     1.421   .     A
C6     C154    1.523   .     S
C6     C226    1.406   .     A
C7     C227    1.406   .     A
C7     C156    1.523   .     S
C7     C31     1.416   .     A
C8     C19     1.413   .     A
C8     C159    1.522   .     S
C8     C228    1.403   .     A
C9     C161    1.529   .     S
C9     C20     1.426   .     A
C9     C229    1.405   .     A
C10    C230    1.406   .     A
C10    C163    1.526   .     S
C10    C17     1.434   .     A
C11    C231    1.406   .     A
C11    C165    1.525   .     S
C11    C18     1.428   .     A
C12    C23     1.418   .     A
C12    C167    1.522   .     S
C12    C232    1.405   .     A
C13    C112    1.470   .     S
C13    C212    1.404   .     A
C13    C219    1.403   .     A
C14    C170    1.523   .     S
C14    C233    1.405   .     A
C14    C25     1.414   .     A
C15    C172    1.525   .     S
C15    C234    1.404   .     A
C15    C21     1.426   .     A
C16    C174    1.523   .     S
C16    C22     1.429   .     A
C16    C236    1.406   .     A
C17    C194    1.491   .     S
C17    C237    1.436   .     A
C18    C238    1.428   .     A
C18    C193    1.485   .     S
C19    C200    1.453   .     S
C19    C239    1.413   .     A
C20    C240    1.425   .     A
C20    C199    1.477   .     S
C21    C241    1.428   .     A
C21    C198    1.475   .     S
C22    C197    1.489   .     S
C22    C242    1.431   .     A
C23    C196    1.465   .     S
C23    C243    1.418   .     A
C24    C220    1.407   .     A
C24    C214    1.409   .     A
C25    C244    1.415   .     A
C25    C195    1.459   .     S
C26    C185    1.453   .     S
C26    C256    1.414   .     A
C26    C245    1.413   .     A
C27    C247    1.425   .     A
C27    C184    1.475   .     S
C28    C248    1.428   .     A
C28    C254    1.432   .     A
C28    C192    1.482   .     S
C29    C255    1.425   .     A
C29    C249    1.423   .     A
C29    C190    1.475   .     S
C30    C189    1.471   .     S
C30    C250    1.421   .     A
C31    C251    1.415   .     A
C31    C188    1.463   .     S
C32    C187    1.478   .     S
C32    C252    1.427   .     A
C33    C186    1.492   .     S
C33    C253    1.431   .     A
C34    H1      1.113   .     S
C34    O49     1.417   .     S
C34    C36     1.523   .     S
C34    H112    1.110   .     S
C35    C235    1.476   .     S
C35    C215    1.408   .     A
C35    C226    1.408   .     A
C36    H223    1.111   .     S
C36    H266    1.107   .     S
C36    H255    1.110   .     S
C37    C38     1.521   .     S
C37    H277    1.109   .     S
C37    O50     1.413   .     S
C37    H288    1.116   .     S
C38    H299    1.110   .     S
C38    H2      1.111   .     S
C38    H310    1.110   .     S
C39    H24     1.115   .     S
C39    C40     1.520   .     S
C39    O51     1.412   .     S
C39    H13     1.111   .     S
C40    H35     1.111   .     S
C40    H57     1.111   .     S
C40    H46     1.110   .     S
C41    H79     1.115   .     S
C41    O52     1.413   .     S
C41    H68     1.109   .     S
C41    C42     1.521   .     S
C42    H113    1.111   .     S
C42    H90     1.110   .     S
C42    H101    1.110   .     S
C43    H135    1.109   .     S
C43    H124    1.113   .     S
C43    O53     1.416   .     S
C43    C44     1.523   .     S
C44    H146    1.110   .     S
C44    H168    1.108   .     S
C44    H157    1.110   .     S
C45    H190    1.116   .     S
C45    H179    1.109   .     S
C45    C47     1.521   .     S
C45    O54     1.412   .     S
C46    C224    1.477   .     S
C46    C227    1.415   .     A
C46    C216    1.412   .     A
C47    H224    1.111   .     S
C47    H201    1.110   .     S
C47    H212    1.111   .     S
C48    H235    1.115   .     S
C48    H246    1.110   .     S
C48    O55     1.416   .     S
C48    C49     1.522   .     S
C49    H249    1.110   .     S
C49    H250    1.109   .     S
C49    H248    1.111   .     S
C50    H251    1.110   .     S
C50    H252    1.114   .     S
C50    C51     1.521   .     S
C50    O57     1.413   .     S
C51    H253    1.111   .     S
C51    H256    1.111   .     S
C51    H254    1.109   .     S
C52    H257    1.111   .     S
C52    H258    1.116   .     S
C52    C53     1.520   .     S
C52    O58     1.412   .     S
C53    H261    1.111   .     S
C53    H260    1.110   .     S
C53    H259    1.111   .     S
C54    C55     1.520   .     S
C54    H262    1.111   .     S
C54    O59     1.412   .     S
C54    H263    1.116   .     S
C55    H264    1.110   .     S
C55    H265    1.110   .     S
C55    H267    1.111   .     S
C56    H268    1.109   .     S
C56    H269    1.116   .     S
C56    C58     1.517   .     S
C56    O60     1.412   .     S
C57    C223    1.403   .     A
C57    C213    1.469   .     S
C57    C217    1.404   .     A
C58    H271    1.110   .     S
C58    H270    1.110   .     S
C58    H272    1.111   .     S
C59    C60     1.520   .     S
C59    O61     1.413   .     S
C59    H273    1.109   .     S
C59    H274    1.116   .     S
C60    H276    1.111   .     S
C60    H278    1.111   .     S
C60    H275    1.111   .     S
C61    H280    1.116   .     S
C61    O62     1.412   .     S
C61    C62     1.520   .     S
C61    H279    1.111   .     S
C62    H281    1.111   .     S
C62    H283    1.111   .     S
C62    H282    1.110   .     S
C63    O63     1.412   .     S
C63    H284    1.111   .     S
C63    H285    1.116   .     S
C63    C64     1.521   .     S
C64    H286    1.111   .     S
C64    H287    1.110   .     S
C64    H289    1.111   .     S
C65    H291    1.115   .     S
C65    O64     1.412   .     S
C65    H290    1.108   .     S
C65    C66     1.517   .     S
C66    H294    1.111   .     S
C66    H292    1.109   .     S
C66    H293    1.111   .     S
C67    H296    1.115   .     S
C67    O65     1.414   .     S
C67    H295    1.109   .     S
C67    C69     1.520   .     S
C68    C202    1.469   .     S
C68    C225    1.405   .     A
C68    C218    1.405   .     A
C69    H298    1.111   .     S
C69    H300    1.111   .     S
C69    H297    1.111   .     S
C70    H301    1.113   .     S
C70    C71     1.523   .     S
C70    O66     1.416   .     S
C70    H302    1.109   .     S
C71    H304    1.110   .     S
C71    H303    1.111   .     S
C71    H305    1.107   .     S
C72    C73     1.521   .     S
C72    O68     1.412   .     S
C72    H307    1.116   .     S
C72    H306    1.109   .     S
C73    H309    1.110   .     S
C73    H308    1.110   .     S
C73    H311    1.111   .     S
C74    O69     1.412   .     S
C74    C75     1.520   .     S
C74    H312    1.111   .     S
C74    H313    1.115   .     S
C75    H316    1.111   .     S
C75    H314    1.111   .     S
C75    H315    1.110   .     S
C76    C77     1.521   .     S
C76    H317    1.109   .     S
C76    H318    1.115   .     S
C76    O70     1.413   .     S
C77    H319    1.110   .     S
C77    H3      1.111   .     S
C77    H320    1.110   .     S
C78    C80     1.522   .     S
C78    O71     1.416   .     S
C78    H5      1.108   .     S
C78    H4      1.112   .     S
C79    C183    1.419   .     S
C79    C90     1.196   .     S
C80    H7      1.110   .     S
C80    H6      1.110   .     S
C80    H8      1.109   .     S
C81    H9      1.109   .     S
C81    O72     1.413   .     S
C81    C82     1.521   .     S
C81    H10     1.116   .     S
C82    H11     1.111   .     S
C82    H12     1.110   .     S
C82    H14     1.111   .     S
C83    H16     1.116   .     S
C83    C84     1.520   .     S
C83    H15     1.110   .     S
C83    O73     1.411   .     S
C84    H18     1.110   .     S
C84    H17     1.111   .     S
C84    H19     1.111   .     S
C85    H21     1.115   .     S
C85    H20     1.108   .     S
C85    C86     1.521   .     S
C85    O74     1.413   .     S
C86    H22     1.110   .     S
C86    H23     1.109   .     S
C86    H25     1.111   .     S
C87    O75     1.412   .     S
C87    H26     1.111   .     S
C87    C88     1.520   .     S
C87    H27     1.116   .     S
C88    H28     1.111   .     S
C88    H29     1.110   .     S
C88    H30     1.111   .     S
C89    O76     1.412   .     S
C89    H31     1.111   .     S
C89    C91     1.520   .     S
C89    H32     1.116   .     S
C90    C182    1.419   .     S
C91    H33     1.110   .     S
C91    H36     1.111   .     S
C91    H34     1.110   .     S
C92    H37     1.108   .     S
C92    H38     1.115   .     S
C92    O77     1.412   .     S
C92    C93     1.518   .     S
C93    H41     1.111   .     S
C93    H39     1.110   .     S
C93    H40     1.108   .     S
C94    O79     1.413   .     S
C94    H42     1.109   .     S
C94    C95     1.520   .     S
C94    H43     1.115   .     S
C95    H45     1.111   .     S
C95    H47     1.111   .     S
C95    H44     1.111   .     S
C96    H49     1.116   .     S
C96    H48     1.111   .     S
C96    O80     1.411   .     S
C96    C97     1.520   .     S
C97    H50     1.111   .     S
C97    H52     1.111   .     S
C97    H51     1.110   .     S
C98    H54     1.116   .     S
C98    O81     1.412   .     S
C98    C99     1.521   .     S
C98    H53     1.111   .     S
C99    H58     1.111   .     S
C99    H55     1.111   .     S
C99    H56     1.110   .     S
C100   H59     1.109   .     S
C100   O82     1.412   .     S
C100   H60     1.115   .     S
C100   C102    1.517   .     S
C101   C181    1.418   .     S
C101   C113    1.196   .     S
C102   H63     1.111   .     S
C102   H62     1.111   .     S
C102   H61     1.109   .     S
C103   H64     1.109   .     S
C103   O83     1.414   .     S
C103   C104    1.520   .     S
C103   H65     1.115   .     S
C104   H67     1.111   .     S
C104   H66     1.110   .     S
C104   H69     1.111   .     S
C105   H73     1.108   .     S
C105   C237    1.529   .     S
C105   C106    1.530   .     S
C105   H74     1.106   .     S
C106   H72     1.110   .     S
C106   H70     1.110   .     S
C106   H71     1.108   .     S
C107   H80     1.108   .     S
C107   H78     1.105   .     S
C107   C238    1.522   .     S
C107   C108    1.528   .     S
C108   H77     1.110   .     S
C108   H76     1.110   .     S
C108   H75     1.109   .     S
C109   C239    1.523   .     S
C109   H84     1.111   .     S
C109   H85     1.111   .     S
C109   C110    1.525   .     S
C110   H82     1.106   .     S
C110   H83     1.109   .     S
C110   H81     1.110   .     S
C111   C240    1.524   .     S
C111   H91     1.109   .     S
C111   H89     1.112   .     S
C111   C114    1.530   .     S
C112   C231    1.407   .     A
C112   C203    1.406   .     A
C113   C179    1.418   .     S
C114   H86     1.110   .     S
C114   H88     1.110   .     S
C114   H87     1.107   .     S
C115   C241    1.528   .     S
C115   C116    1.529   .     S
C115   H96     1.106   .     S
C115   H95     1.108   .     S
C116   H93     1.108   .     S
C116   H92     1.110   .     S
C116   H94     1.111   .     S
C117   H100    1.103   .     S
C117   C242    1.523   .     S
C117   H102    1.109   .     S
C117   C118    1.528   .     S
C118   H99     1.110   .     S
C118   H97     1.110   .     S
C118   H98     1.110   .     S
C119   H106    1.105   .     S
C119   H107    1.109   .     S
C119   C120    1.527   .     S
C119   C243    1.523   .     S
C120   H103    1.111   .     S
C120   H105    1.110   .     S
C120   H104    1.111   .     S
C121   C244    1.523   .     S
C121   C122    1.528   .     S
C121   H114    1.111   .     S
C121   H111    1.111   .     S
C122   H109    1.109   .     S
C122   H110    1.107   .     S
C122   H108    1.110   .     S
C123   C245    1.522   .     S
C123   C125    1.526   .     S
C123   H118    1.109   .     S
C123   H119    1.110   .     S
C124   C178    1.419   .     S
C124   C135    1.196   1_556 S
C125   H117    1.111   .     S
C125   H116    1.110   .     S
C125   H115    1.111   .     S
C126   C127    1.529   .     S
C126   H125    1.109   .     S
C126   C247    1.529   .     S
C126   H123    1.107   .     S
C127   H121    1.108   .     S
C127   H120    1.111   .     S
C127   H122    1.111   .     S
C128   H130    1.109   .     S
C128   C248    1.525   .     S
C128   C129    1.528   .     S
C128   H129    1.108   .     S
C129   H126    1.110   .     S
C129   H128    1.111   .     S
C129   H127    1.110   .     S
C130   C131    1.527   .     S
C130   H136    1.109   .     S
C130   C249    1.524   .     S
C130   H134    1.108   .     S
C131   H132    1.110   .     S
C131   H131    1.111   .     S
C131   H133    1.110   .     S
C132   H140    1.105   .     S
C132   C250    1.524   .     S
C132   H141    1.109   .     S
C132   C133    1.528   .     S
C133   H137    1.109   .     S
C133   H139    1.111   .     S
C133   H138    1.111   .     S
C134   H147    1.109   .     S
C134   H145    1.109   .     S
C134   C251    1.524   .     S
C134   C136    1.527   .     S
C135   C177    1.419   .     S
C135   C124    1.196   1_554 S
C136   H142    1.111   .     S
C136   H143    1.109   .     S
C136   H144    1.110   .     S
C137   H152    1.109   .     S
C137   C252    1.525   .     S
C137   H151    1.108   .     S
C137   C138    1.528   .     S
C138   H149    1.110   .     S
C138   H148    1.110   .     S
C138   H150    1.110   .     S
C139   H158    1.108   .     S
C139   C140    1.528   .     S
C139   H156    1.104   .     S
C139   C253    1.523   .     S
C140   H155    1.110   .     S
C140   H154    1.109   .     S
C140   H153    1.111   .     S
C141   C254    1.529   .     S
C141   H163    1.106   .     S
C141   H162    1.108   .     S
C141   C142    1.529   .     S
C142   H159    1.110   .     S
C142   H160    1.108   .     S
C142   H161    1.110   .     S
C143   H167    1.106   .     S
C143   C144    1.528   .     S
C143   C255    1.523   .     S
C143   H169    1.109   .     S
C144   H166    1.110   .     S
C144   H164    1.110   .     S
C144   H165    1.110   .     S
C145   C147    1.526   .     S
C145   H174    1.111   .     S
C145   C256    1.524   .     S
C145   H173    1.111   .     S
C146   C176    1.418   .     S
C146   C157    1.196   1_556 S
C147   H171    1.106   .     S
C147   H172    1.109   .     S
C147   H170    1.110   .     S
C148   H178    1.112   .     S
C148   C149    1.530   .     S
C148   H180    1.110   .     S
C149   H176    1.107   .     S
C149   H177    1.110   .     S
C149   H175    1.110   .     S
C150   C151    1.530   .     S
C150   H185    1.106   .     S
C150   H184    1.108   .     S
C151   H183    1.111   .     S
C151   H181    1.110   .     S
C151   H182    1.108   .     S
C152   H189    1.103   .     S
C152   H191    1.108   .     S
C152   C153    1.528   .     S
C153   H186    1.110   .     S
C153   H187    1.110   .     S
C153   H188    1.111   .     S
C154   H195    1.104   .     S
C154   C155    1.528   .     S
C154   H196    1.109   .     S
C155   H193    1.109   .     S
C155   H194    1.111   .     S
C155   H192    1.111   .     S
C156   H202    1.110   .     S
C156   C158    1.528   .     S
C156   H200    1.111   .     S
C157   C146    1.196   1_554 S
C157   C168    1.418   .     S
C158   H199    1.107   .     S
C158   H197    1.110   .     S
C158   H198    1.109   .     S
C159   H206    1.109   .     S
C159   C160    1.526   .     S
C159   H207    1.110   .     S
C160   H204    1.110   .     S
C160   H203    1.111   .     S
C160   H205    1.111   .     S
C161   H211    1.107   .     S
C161   C162    1.529   .     S
C161   H213    1.109   .     S
C162   H208    1.111   .     S
C162   H209    1.108   .     S
C162   H210    1.111   .     S
C163   H218    1.109   .     S
C163   H217    1.107   .     S
C163   C164    1.529   .     S
C164   H215    1.109   .     S
C164   H214    1.111   .     S
C164   H216    1.110   .     S
C165   H222    1.108   .     S
C165   C166    1.528   .     S
C165   H225    1.109   .     S
C166   H220    1.110   .     S
C166   H221    1.110   .     S
C166   H219    1.111   .     S
C167   C169    1.527   .     S
C167   H229    1.105   .     S
C167   H230    1.109   .     S
C168   O84     1.277   .     A
C168   O45     1.277   .     S
C169   H228    1.111   .     S
C169   H227    1.110   .     S
C169   H226    1.109   .     S
C170   H236    1.109   .     S
C170   C171    1.527   .     S
C170   H234    1.109   .     S
C171   H233    1.110   .     S
C171   H232    1.110   .     S
C171   H231    1.111   .     S
C172   H241    1.109   .     S
C172   H240    1.108   .     S
C172   C173    1.528   .     S
C173   H238    1.110   .     S
C173   H237    1.110   .     S
C173   H239    1.110   .     S
C174   C175    1.528   .     S
C174   H245    1.105   .     S
C174   H247    1.108   .     S
C175   H242    1.111   .     S
C175   H243    1.109   .     S
C175   H244    1.110   .     S
C176   O2      1.277   .     S
C176   O56     1.277   .     S
C177   O3      1.279   1_565 S
C177   O67     1.279   1_565 S
C178   O4      1.279   1_565 S
C178   O78     1.278   1_565 S
C179   O9      1.277   .     A
C179   O5      1.277   1_545 S
C180   C228    1.412   .     A
C180   C204    1.412   .     A
C181   O10     1.277   1_545 A
C181   O6      1.277   .     S
C182   O11     1.279   .     A
C182   O7      1.279   1_455 S
C183   O13     1.279   1_455 A
C183   O8      1.279   .     S
C184   O14     1.279   .     A
C184   O47     1.278   .     A
C185   O15     1.274   .     A
C185   O48     1.271   .     A
C186   O16     1.283   .     A
C186   O44     1.280   .     A
C187   O17     1.278   .     A
C187   O46     1.277   .     A
C188   O42     1.273   .     A
C188   O18     1.276   .     A
C189   O19     1.278   .     A
C189   O43     1.277   .     A
C190   O40     1.275   .     A
C190   O20     1.278   .     A
C191   C205    1.410   .     A
C191   C229    1.408   .     A
C191   C246    1.476   .     S
C192   O41     1.277   .     A
C192   O21     1.280   .     A
C193   O38     1.279   .     A
C193   O22     1.279   .     A
C194   O39     1.281   .     A
C194   O24     1.281   .     A
C195   O36     1.275   .     A
C195   O25     1.273   .     A
C196   O26     1.275   .     A
C196   O37     1.277   .     A
C197   O27     1.278   .     A
C197   O33     1.282   .     A
C198   O28     1.275   .     A
C198   O35     1.277   .     A
C199   O31     1.280   .     A
C199   O29     1.279   .     A
C200   O30     1.271   .     A
C200   O32     1.274   .     A
C201   O49     1.389   .     S
C201   C237    1.410   .     A
C202   C234    1.404   .     A
C202   C206    1.403   .     A
C203   C238    1.405   .     A
C203   O50     1.389   .     S
C204   C239    1.403   .     A
C204   O51     1.386   .     S
C205   C240    1.404   .     A
C205   O52     1.388   .     S
C206   O53     1.387   .     S
C206   C241    1.408   .     A
C207   C242    1.405   .     A
C207   C213    1.405   .     A
C207   O54     1.389   .     S
C208   C243    1.406   .     A
C208   C224    1.408   .     A
C208   O55     1.387   .     S
C209   C235    1.415   .     A
C209   C244    1.405   .     A
C209   O57     1.388   .     S
C210   C246    1.412   .     A
C210   O58     1.386   .     S
C210   C245    1.403   .     A
C211   C247    1.406   .     A
C211   O59     1.386   .     S
C212   C248    1.405   .     A
C212   O60     1.387   .     S
C213   C236    1.406   .     A
C214   C249    1.405   .     A
C214   O61     1.388   .     S
C215   O62     1.386   .     S
C215   C250    1.406   .     A
C216   O63     1.386   .     S
C216   C251    1.406   .     A
C217   C252    1.404   .     A
C217   O64     1.387   .     S
C218   O65     1.389   .     S
C218   C253    1.406   .     A
C219   C254    1.410   .     A
C219   O66     1.388   .     S
C220   C255    1.405   .     A
C220   O68     1.388   .     S
C221   C256    1.403   .     A
C221   O69     1.386   .     S
C221   C246    1.412   .     A
C222   O70     1.388   .     S
C223   O71     1.388   .     S
C224   C232    1.409   .     A
C225   O72     1.390   .     S
C226   O73     1.385   .     S
C227   O74     1.389   .     S
C228   O75     1.386   .     S
C229   O76     1.386   .     S
C230   O77     1.388   .     S
C231   O79     1.389   .     S
C232   O80     1.385   .     S
C233   O81     1.386   .     S
C233   C235    1.412   .     A
C234   O82     1.387   .     S
C236   O83     1.389   .     S
O1     Zn1     1.942   .     S
O1     Zn8     1.939   .     S
O1     Zn4     1.938   .     S
O1     Zn12    1.941   1_455 S
O2     Zn3     1.909   .     S
O3     Zn6     1.909   .     S
O3     C177    1.279   1_545 S
O4     C178    1.279   1_545 S
O4     Zn5     1.909   .     S
O5     Zn15    1.909   .     S
O5     C179    1.277   1_565 S
O6     Zn14    1.909   .     S
O7     Zn9     1.909   .     S
O7     C182    1.279   1_655 S
O8     Zn1     1.909   .     S
O9     Zn11    1.909   .     S
O10    Zn10    1.909   .     S
O10    C181    1.277   1_565 A
O11    Zn13    1.909   .     S
O12    Zn3     1.938   .     S
O12    Zn13    1.941   .     S
O12    Zn7     1.939   .     S
O12    Zn9     1.942   1_455 S
O13    Zn12    1.909   .     S
O13    C183    1.279   1_655 A
O14    Zn4     1.934   .     S
O15    Zn3     1.934   1_655 S
O16    Zn6     1.944   1_565 S
O17    Zn5     1.944   .     S
O18    Zn8     1.934   1_655 S
O19    Zn7     1.934   .     S
O20    Zn2     1.944   .     S
O21    Zn16    1.944   1_565 S
O22    Zn7     1.946   1_655 S
O23    Zn2     1.942   .     S
O23    Zn6     1.941   .     S
O23    Zn14    1.939   .     S
O23    Zn10    1.938   1_545 S
O24    Zn8     1.946   .     S
O25    Zn5     1.933   1_565 S
O26    Zn6     1.933   .     S
O27    Zn3     1.946   .     S
O28    Zn4     1.946   1_655 S
O29    Zn16    1.933   .     S
O30    Zn2     1.933   1_565 S
O31    Zn11    1.934   .     S
O32    Zn10    1.934   .     S
O33    Zn13    1.944   .     S
O34    Zn11    1.938   .     S
O34    Zn5     1.941   .     S
O34    Zn15    1.939   1_545 S
O34    Zn16    1.942   .     S
O35    Zn12    1.944   .     S
O36    Zn15    1.934   .     S
O37    Zn14    1.934   .     S
O38    Zn9     1.944   .     S
O39    Zn1     1.944   .     S
O40    Zn14    1.946   .     S
O41    Zn15    1.946   .     S
O42    Zn12    1.933   .     S
O43    Zn13    1.933   .     S
O44    Zn10    1.946   .     S
O45    Zn8     1.909   .     S
O46    Zn11    1.946   .     S
O47    Zn1     1.933   .     S
O48    Zn9     1.933   .     S
O56    Zn7     1.909   .     S
O67    Zn2     1.909   .     S
O67    C177    1.279   1_545 S
O78    C178    1.278   1_545 S
O78    Zn16    1.909   .     S
O84    Zn4     1.909   .     S
Zn2    O30     1.933   1_545 S
Zn3    O15     1.934   1_455 S
Zn4    O28     1.946   1_455 S
Zn5    O25     1.933   1_545 S
Zn6    O16     1.944   1_545 S
Zn7    O22     1.946   1_455 S
Zn8    O18     1.934   1_455 S
Zn9    O12     1.942   1_655 S
Zn10   O23     1.938   1_565 S
Zn12   O1      1.941   1_655 S
Zn15   O34     1.939   1_565 S
Zn16   O21     1.944   1_545 S
