data_str_m1_o1_o1_pcu_sym.14
_audit_creation_date              2020-01-03
_audit_creation_method            'Materials Studio'
_symmetry_space_group_name_H-M    'P1'
_symmetry_Int_Tables_number       1
_symmetry_cell_setting            triclinic
loop_
_symmetry_equiv_pos_as_xyz
  x,y,z
_cell_length_a                    25.9154
_cell_length_b                    25.9007
_cell_length_c                    25.8937
_cell_angle_alpha                 89.9288
_cell_angle_beta                  89.9214
_cell_angle_gamma                 89.9853
loop_
_atom_site_label
_atom_site_type_symbol
_atom_site_fract_x
_atom_site_fract_y
_atom_site_fract_z
_atom_site_U_iso_or_equiv
_atom_site_adp_type
_atom_site_occupancy
C1     C     0.39009   0.24998   0.24998   0.00000  Uiso   1.00
C2     C     0.61001   0.75011   0.74988   0.00000  Uiso   1.00
C3     C     0.25004   0.25001   0.61015   0.00000  Uiso   1.00
C4     C     0.74996   0.75009   0.38992   0.00000  Uiso   1.00
C5     C     0.60994   0.24989   0.74987   0.00000  Uiso   1.00
C6     C     0.38996   0.75002   0.24999   0.00000  Uiso   1.00
C7     C     0.74996   0.24995   0.38991   0.00000  Uiso   1.00
C8     C     0.24998   0.74997   0.61001   0.00000  Uiso   1.00
C9     C     0.38995   0.74982   0.75012   0.00000  Uiso   1.00
C10    C     0.61016   0.25003   0.25000   0.00000  Uiso   1.00
C11    C     0.25004   0.75003   0.38993   0.00000  Uiso   1.00
C12    C     0.75011   0.25008   0.60998   0.00000  Uiso   1.00
C13    C     0.61001   0.74991   0.24991   0.00000  Uiso   1.00
C14    C     0.38990   0.25038   0.75028   0.00000  Uiso   1.00
C15    C     0.75039   0.74978   0.60999   0.00000  Uiso   1.00
C16    C     0.24997   0.24997   0.39007   0.00000  Uiso   1.00
C17    C     0.24977   0.38989   0.74977   0.00000  Uiso   1.00
C18    C     0.74999   0.61003   0.25001   0.00000  Uiso   1.00
C19    C     0.25003   0.61013   0.25000   0.00000  Uiso   1.00
C20    C     0.74996   0.38993   0.74999   0.00000  Uiso   1.00
C21    C     0.74992   0.61000   0.75007   0.00000  Uiso   1.00
C22    C     0.24999   0.39005   0.24998   0.00000  Uiso   1.00
C23    C     0.75002   0.38997   0.25000   0.00000  Uiso   1.00
C24    C     0.24988   0.60994   0.74999   0.00000  Uiso   1.00
C25    C     0.88998   0.75007   0.24990   0.00000  Uiso   1.00
C26    C     0.11012   0.25042   0.74969   0.00000  Uiso   1.00
C27    C     0.25031   0.74981   0.11013   0.00000  Uiso   1.00
C28    C     0.74980   0.25013   0.89001   0.00000  Uiso   1.00
C29    C     0.10919   0.75069   0.75098   0.00000  Uiso   1.00
C30    C     0.88986   0.25003   0.25000   0.00000  Uiso   1.00
C31    C     0.75015   0.75011   0.89000   0.00000  Uiso   1.00
C32    C     0.25000   0.25000   0.10992   0.00000  Uiso   1.00
C33    C     0.89005   0.24986   0.75014   0.00000  Uiso   1.00
C34    C     0.11006   0.74997   0.25007   0.00000  Uiso   1.00
C35    C     0.25001   0.25001   0.88985   0.00000  Uiso   1.00
C36    C     0.75030   0.75034   0.11007   0.00000  Uiso   1.00
C37    C     0.10990   0.24999   0.25002   0.00000  Uiso   1.00
C38    C     0.88963   0.74554   0.74509   0.00000  Uiso   1.00
C39    C     0.75005   0.25000   0.11009   0.00000  Uiso   1.00
C40    C     0.25000   0.75004   0.89005   0.00000  Uiso   1.00
C41    C     0.74987   0.88991   0.74988   0.00000  Uiso   1.00
C42    C     0.25000   0.10994   0.25002   0.00000  Uiso   1.00
C43    C     0.75001   0.11005   0.25003   0.00000  Uiso   1.00
C44    C     0.24986   0.89006   0.75002   0.00000  Uiso   1.00
C45    C     0.24994   0.11014   0.75004   0.00000  Uiso   1.00
C46    C     0.74998   0.88996   0.24999   0.00000  Uiso   1.00
C47    C     0.25001   0.88989   0.24998   0.00000  Uiso   1.00
C48    C     0.75029   0.10996   0.75025   0.00000  Uiso   1.00
C49    C     0.28908   0.47314   0.22265   0.00000  Uiso   1.00
C50    C     0.72534   0.52704   0.79092   0.00000  Uiso   1.00
C51    C     0.28963   0.47227   0.77598   0.00000  Uiso   1.00
C52    C     0.71723   0.52735   0.21532   0.00000  Uiso   1.00
C53    C     0.72841   0.47260   0.79264   0.00000  Uiso   1.00
C54    C     0.29055   0.52764   0.22475   0.00000  Uiso   1.00
C55    C     0.71654   0.47275   0.21598   0.00000  Uiso   1.00
C56    C     0.28854   0.52680   0.77763   0.00000  Uiso   1.00
C57    C     0.47263   0.79153   0.72682   0.00000  Uiso   1.00
C58    C     0.52773   0.22316   0.28952   0.00000  Uiso   1.00
C59    C     0.47223   0.22173   0.71192   0.00000  Uiso   1.00
C60    C     0.52721   0.71587   0.21653   0.00000  Uiso   1.00
C61    C     0.47322   0.22157   0.28832   0.00000  Uiso   1.00
C62    C     0.52702   0.78955   0.72347   0.00000  Uiso   1.00
C63    C     0.47265   0.71723   0.21524   0.00000  Uiso   1.00
C64    C     0.52675   0.22043   0.71274   0.00000  Uiso   1.00
C65    C     0.77759   0.28898   0.52691   0.00000  Uiso   1.00
C66    C     0.21833   0.71427   0.47264   0.00000  Uiso   1.00
C67    C     0.27648   0.21022   0.52776   0.00000  Uiso   1.00
C68    C     0.79235   0.72753   0.47233   0.00000  Uiso   1.00
C69    C     0.21768   0.71485   0.52722   0.00000  Uiso   1.00
C70    C     0.77552   0.29032   0.47239   0.00000  Uiso   1.00
C71    C     0.79183   0.72628   0.52690   0.00000  Uiso   1.00
C72    C     0.27769   0.21113   0.47320   0.00000  Uiso   1.00
C73    C     0.71716   0.97269   0.28474   0.00000  Uiso   1.00
C74    C     0.20971   0.02770   0.77597   0.00000  Uiso   1.00
C75    C     0.29062   0.97233   0.27500   0.00000  Uiso   1.00
C76    C     0.78985   0.02675   0.77667   0.00000  Uiso   1.00
C77    C     0.21034   0.97312   0.77692   0.00000  Uiso   1.00
C78    C     0.71642   0.02729   0.28403   0.00000  Uiso   1.00
C79    C     0.79107   0.97222   0.77461   0.00000  Uiso   1.00
C80    C     0.28917   0.02684   0.27712   0.00000  Uiso   1.00
C81    C     0.71080   0.02715   0.72362   0.00000  Uiso   1.00
C82    C     0.20945   0.97242   0.22492   0.00000  Uiso   1.00
C83    C     0.28913   0.02767   0.72279   0.00000  Uiso   1.00
C84    C     0.78282   0.97276   0.21530   0.00000  Uiso   1.00
C85    C     0.21088   0.02693   0.22285   0.00000  Uiso   1.00
C86    C     0.70876   0.97275   0.72656   0.00000  Uiso   1.00
C87    C     0.78366   0.02735   0.21609   0.00000  Uiso   1.00
C88    C     0.28817   0.97311   0.72155   0.00000  Uiso   1.00
C89    C     0.97272   0.71567   0.28307   0.00000  Uiso   1.00
C90    C     0.02740   0.28015   0.71245   0.00000  Uiso   1.00
C91    C     0.97218   0.69874   0.76216   0.00000  Uiso   1.00
C92    C     0.02679   0.22162   0.21173   0.00000  Uiso   1.00
C93    C     0.97282   0.28065   0.71319   0.00000  Uiso   1.00
C94    C     0.02725   0.71705   0.28452   0.00000  Uiso   1.00
C95    C     0.97228   0.22321   0.21052   0.00000  Uiso   1.00
C96    C     0.02425   0.70762   0.77514   0.00000  Uiso   1.00
C97    C     0.02669   0.27829   0.28841   0.00000  Uiso   1.00
C98    C     0.97307   0.77130   0.70298   0.00000  Uiso   1.00
C99    C     0.02782   0.22184   0.78819   0.00000  Uiso   1.00
C100   C     0.97292   0.78451   0.21687   0.00000  Uiso   1.00
C101   C     0.02473   0.78220   0.71533   0.00000  Uiso   1.00
C102   C     0.97216   0.27680   0.28954   0.00000  Uiso   1.00
C103   C     0.02748   0.78321   0.21565   0.00000  Uiso   1.00
C104   C     0.97331   0.22033   0.78725   0.00000  Uiso   1.00
C105   C     0.70887   0.72672   0.02763   0.00000  Uiso   1.00
C106   C     0.22339   0.21035   0.97231   0.00000  Uiso   1.00
C107   C     0.72378   0.28997   0.02753   0.00000  Uiso   1.00
C108   C     0.22186   0.78834   0.97327   0.00000  Uiso   1.00
C109   C     0.22215   0.21128   0.02687   0.00000  Uiso   1.00
C110   C     0.70991   0.72491   0.97312   0.00000  Uiso   1.00
C111   C     0.22241   0.78869   0.02781   0.00000  Uiso   1.00
C112   C     0.72159   0.28850   0.97301   0.00000  Uiso   1.00
C113   C     0.27997   0.71262   0.97291   0.00000  Uiso   1.00
C114   C     0.77593   0.21003   0.02745   0.00000  Uiso   1.00
C115   C     0.27650   0.28975   0.97216   0.00000  Uiso   1.00
C116   C     0.79155   0.77454   0.02723   0.00000  Uiso   1.00
C117   C     0.77771   0.21138   0.97291   0.00000  Uiso   1.00
C118   C     0.27951   0.71206   0.02751   0.00000  Uiso   1.00
C119   C     0.79102   0.77524   0.97260   0.00000  Uiso   1.00
C120   C     0.27776   0.28880   0.02672   0.00000  Uiso   1.00
C121   C     0.77083   0.47272   0.70709   0.00000  Uiso   1.00
C122   C     0.20944   0.52762   0.27516   0.00000  Uiso   1.00
C123   C     0.78352   0.47266   0.28401   0.00000  Uiso   1.00
C124   C     0.20982   0.52708   0.72375   0.00000  Uiso   1.00
C125   C     0.21085   0.47310   0.27722   0.00000  Uiso   1.00
C126   C     0.77382   0.52712   0.70880   0.00000  Uiso   1.00
C127   C     0.20925   0.47249   0.72450   0.00000  Uiso   1.00
C128   C     0.78279   0.52725   0.28470   0.00000  Uiso   1.00
C129   C     0.47329   0.27835   0.21159   0.00000  Uiso   1.00
C130   C     0.52720   0.70968   0.77553   0.00000  Uiso   1.00
C131   C     0.47266   0.78285   0.28447   0.00000  Uiso   1.00
C132   C     0.52716   0.28070   0.78668   0.00000  Uiso   1.00
C133   C     0.47277   0.70780   0.77258   0.00000  Uiso   1.00
C134   C     0.52782   0.27686   0.21046   0.00000  Uiso   1.00
C135   C     0.47257   0.28026   0.78736   0.00000  Uiso   1.00
C136   C     0.52719   0.78422   0.28304   0.00000  Uiso   1.00
C137   C     0.28245   0.78498   0.52713   0.00000  Uiso   1.00
C138   C     0.72490   0.20941   0.47264   0.00000  Uiso   1.00
C139   C     0.71011   0.77565   0.52733   0.00000  Uiso   1.00
C140   C     0.22222   0.28878   0.47319   0.00000  Uiso   1.00
C141   C     0.72320   0.21062   0.52719   0.00000  Uiso   1.00
C142   C     0.28184   0.78561   0.47254   0.00000  Uiso   1.00
C143   C     0.22358   0.28979   0.52775   0.00000  Uiso   1.00
C144   C     0.70916   0.77453   0.47276   0.00000  Uiso   1.00
C145   C     0.25003   0.55411   0.25001   0.00000  Uiso   1.00
C146   C     0.74979   0.44605   0.74994   0.00000  Uiso   1.00
C147   C     0.24958   0.55360   0.75023   0.00000  Uiso   1.00
C148   C     0.75004   0.44617   0.24999   0.00000  Uiso   1.00
C149   C     0.74979   0.55374   0.75000   0.00000  Uiso   1.00
C150   C     0.24996   0.44640   0.24994   0.00000  Uiso   1.00
C151   C     0.74998   0.55382   0.25003   0.00000  Uiso   1.00
C152   C     0.24969   0.44593   0.74984   0.00000  Uiso   1.00
C153   C     0.55378   0.74992   0.74983   0.00000  Uiso   1.00
C154   C     0.44651   0.24995   0.24995   0.00000  Uiso   1.00
C155   C     0.55360   0.25017   0.74986   0.00000  Uiso   1.00
C156   C     0.44611   0.75003   0.24991   0.00000  Uiso   1.00
C157   C     0.55418   0.25006   0.25002   0.00000  Uiso   1.00
C158   C     0.44607   0.74978   0.74998   0.00000  Uiso   1.00
C159   C     0.55380   0.74994   0.24987   0.00000  Uiso   1.00
C160   C     0.44596   0.25064   0.75002   0.00000  Uiso   1.00
C161   C     0.75003   0.24995   0.44599   0.00000  Uiso   1.00
C162   C     0.25002   0.74994   0.55374   0.00000  Uiso   1.00
C163   C     0.24992   0.24993   0.44648   0.00000  Uiso   1.00
C164   C     0.75065   0.75029   0.55371   0.00000  Uiso   1.00
C165   C     0.25005   0.74999   0.44609   0.00000  Uiso   1.00
C166   C     0.75020   0.24997   0.55370   0.00000  Uiso   1.00
C167   C     0.75025   0.75034   0.44604   0.00000  Uiso   1.00
C168   C     0.25009   0.25004   0.55416   0.00000  Uiso   1.00
C169   C     0.75004   0.05385   0.25006   0.00000  Uiso   1.00
C170   C     0.24960   0.94643   0.74972   0.00000  Uiso   1.00
C171   C     0.25000   0.05359   0.25002   0.00000  Uiso   1.00
C172   C     0.75000   0.94596   0.75018   0.00000  Uiso   1.00
C173   C     0.24978   0.05411   0.74987   0.00000  Uiso   1.00
C174   C     0.74995   0.94618   0.24998   0.00000  Uiso   1.00
C175   C     0.75038   0.05365   0.75011   0.00000  Uiso   1.00
C176   C     0.25003   0.94590   0.24995   0.00000  Uiso   1.00
C177   C     0.05391   0.75006   0.25007   0.00000  Uiso   1.00
C178   C     0.94640   0.25012   0.75011   0.00000  Uiso   1.00
C179   C     0.05182   0.74816   0.74909   0.00000  Uiso   1.00
C180   C     0.94583   0.25005   0.25000   0.00000  Uiso   1.00
C181   C     0.05406   0.25068   0.74996   0.00000  Uiso   1.00
C182   C     0.94621   0.75004   0.24989   0.00000  Uiso   1.00
C183   C     0.05348   0.24996   0.25006   0.00000  Uiso   1.00
C184   C     0.94529   0.73735   0.73523   0.00000  Uiso   1.00
C185   C     0.75030   0.75016   0.94627   0.00000  Uiso   1.00
C186   C     0.24999   0.25001   0.05351   0.00000  Uiso   1.00
C187   C     0.74972   0.25003   0.94630   0.00000  Uiso   1.00
C188   C     0.25058   0.75003   0.05409   0.00000  Uiso   1.00
C189   C     0.24998   0.25003   0.94583   0.00000  Uiso   1.00
C190   C     0.75027   0.75055   0.05395   0.00000  Uiso   1.00
C191   C     0.25037   0.75015   0.94645   0.00000  Uiso   1.00
C192   C     0.75003   0.25008   0.05401   0.00000  Uiso   1.00
O1     O     0.25000   0.25000   0.25000   0.00000  Uiso   1.00
O2     O     0.75000   0.75000   0.75000   0.00000  Uiso   1.00
O3     O     0.25000   0.25000   0.75000   0.00000  Uiso   1.00
O4     O     0.75000   0.75000   0.25000   0.00000  Uiso   1.00
O5     O     0.75000   0.25000   0.75000   0.00000  Uiso   1.00
O6     O     0.25000   0.75000   0.25000   0.00000  Uiso   1.00
O7     O     0.75000   0.25000   0.25000   0.00000  Uiso   1.00
O8     O     0.25000   0.75000   0.75000   0.00000  Uiso   1.00
O9     O     0.36580   0.28029   0.28029   0.00000  Uiso   1.00
O10    O     0.63420   0.71971   0.71971   0.00000  Uiso   1.00
O11    O     0.28029   0.28029   0.63420   0.00000  Uiso   1.00
O12    O     0.71971   0.71971   0.36580   0.00000  Uiso   1.00
O13    O     0.63420   0.28029   0.71971   0.00000  Uiso   1.00
O14    O     0.36580   0.71971   0.28029   0.00000  Uiso   1.00
O15    O     0.71971   0.28029   0.36580   0.00000  Uiso   1.00
O16    O     0.28029   0.71971   0.63420   0.00000  Uiso   1.00
O17    O     0.36580   0.71971   0.71971   0.00000  Uiso   1.00
O18    O     0.63420   0.28029   0.28029   0.00000  Uiso   1.00
O19    O     0.28029   0.71971   0.36580   0.00000  Uiso   1.00
O20    O     0.71971   0.28029   0.63420   0.00000  Uiso   1.00
O21    O     0.63420   0.71971   0.28029   0.00000  Uiso   1.00
O22    O     0.36580   0.28029   0.71971   0.00000  Uiso   1.00
O23    O     0.71971   0.71971   0.63420   0.00000  Uiso   1.00
O24    O     0.28029   0.28029   0.36580   0.00000  Uiso   1.00
O25    O     0.28029   0.36580   0.71971   0.00000  Uiso   1.00
O26    O     0.71971   0.63420   0.28029   0.00000  Uiso   1.00
O27    O     0.28029   0.63420   0.28029   0.00000  Uiso   1.00
O28    O     0.71971   0.36580   0.71971   0.00000  Uiso   1.00
O29    O     0.71971   0.63420   0.71971   0.00000  Uiso   1.00
O30    O     0.28029   0.36580   0.28029   0.00000  Uiso   1.00
O31    O     0.71971   0.36580   0.28029   0.00000  Uiso   1.00
O32    O     0.28029   0.63420   0.71971   0.00000  Uiso   1.00
O33    O     0.86580   0.78029   0.28029   0.00000  Uiso   1.00
O34    O     0.13420   0.21971   0.71971   0.00000  Uiso   1.00
O35    O     0.28029   0.78029   0.13420   0.00000  Uiso   1.00
O36    O     0.71971   0.21971   0.86580   0.00000  Uiso   1.00
O37    O     0.13420   0.78029   0.71971   0.00000  Uiso   1.00
O38    O     0.86580   0.21971   0.28029   0.00000  Uiso   1.00
O39    O     0.71971   0.78029   0.86580   0.00000  Uiso   1.00
O40    O     0.28029   0.21971   0.13420   0.00000  Uiso   1.00
O41    O     0.86580   0.21971   0.71971   0.00000  Uiso   1.00
O42    O     0.13420   0.78029   0.28029   0.00000  Uiso   1.00
O43    O     0.28029   0.21971   0.86580   0.00000  Uiso   1.00
O44    O     0.71971   0.78029   0.13420   0.00000  Uiso   1.00
O45    O     0.13420   0.21971   0.28029   0.00000  Uiso   1.00
O46    O     0.86580   0.78029   0.71971   0.00000  Uiso   1.00
O47    O     0.71971   0.21971   0.13420   0.00000  Uiso   1.00
O48    O     0.28029   0.78029   0.86580   0.00000  Uiso   1.00
O49    O     0.78029   0.71971   0.13420   0.00000  Uiso   1.00
O50    O     0.21971   0.28029   0.86580   0.00000  Uiso   1.00
O51    O     0.78029   0.86580   0.71971   0.00000  Uiso   1.00
O52    O     0.21971   0.13420   0.28029   0.00000  Uiso   1.00
O53    O     0.78029   0.28029   0.86580   0.00000  Uiso   1.00
O54    O     0.21971   0.71971   0.13420   0.00000  Uiso   1.00
O55    O     0.78029   0.13420   0.28029   0.00000  Uiso   1.00
O56    O     0.21971   0.86580   0.71971   0.00000  Uiso   1.00
O57    O     0.21971   0.28029   0.13420   0.00000  Uiso   1.00
O58    O     0.78029   0.71971   0.86580   0.00000  Uiso   1.00
O59    O     0.21971   0.13420   0.71971   0.00000  Uiso   1.00
O60    O     0.78029   0.86580   0.28029   0.00000  Uiso   1.00
O61    O     0.21971   0.71971   0.86580   0.00000  Uiso   1.00
O62    O     0.78029   0.28029   0.13420   0.00000  Uiso   1.00
O63    O     0.21971   0.86580   0.28029   0.00000  Uiso   1.00
O64    O     0.78029   0.13420   0.71971   0.00000  Uiso   1.00
O65    O     0.71971   0.86580   0.21971   0.00000  Uiso   1.00
O66    O     0.28029   0.13420   0.78029   0.00000  Uiso   1.00
O67    O     0.86580   0.28029   0.21971   0.00000  Uiso   1.00
O68    O     0.13420   0.71971   0.78029   0.00000  Uiso   1.00
O69    O     0.28029   0.13420   0.21971   0.00000  Uiso   1.00
O70    O     0.71971   0.86580   0.78029   0.00000  Uiso   1.00
O71    O     0.13420   0.71971   0.21971   0.00000  Uiso   1.00
O72    O     0.86580   0.28029   0.78029   0.00000  Uiso   1.00
O73    O     0.28029   0.86580   0.78029   0.00000  Uiso   1.00
O74    O     0.71971   0.13420   0.21971   0.00000  Uiso   1.00
O75    O     0.13420   0.28029   0.78029   0.00000  Uiso   1.00
O76    O     0.86580   0.71971   0.21971   0.00000  Uiso   1.00
O77    O     0.71971   0.13420   0.78029   0.00000  Uiso   1.00
O78    O     0.28029   0.86580   0.21971   0.00000  Uiso   1.00
O79    O     0.86580   0.71971   0.78029   0.00000  Uiso   1.00
O80    O     0.13420   0.28029   0.21971   0.00000  Uiso   1.00
O81    O     0.36580   0.78029   0.78029   0.00000  Uiso   1.00
O82    O     0.63420   0.21971   0.21971   0.00000  Uiso   1.00
O83    O     0.78029   0.78029   0.63420   0.00000  Uiso   1.00
O84    O     0.21971   0.21971   0.36580   0.00000  Uiso   1.00
O85    O     0.63420   0.78029   0.21971   0.00000  Uiso   1.00
O86    O     0.36580   0.21971   0.78029   0.00000  Uiso   1.00
O87    O     0.21971   0.78029   0.36580   0.00000  Uiso   1.00
O88    O     0.78029   0.21971   0.63420   0.00000  Uiso   1.00
O89    O     0.36580   0.21971   0.21971   0.00000  Uiso   1.00
O90    O     0.63420   0.78029   0.78029   0.00000  Uiso   1.00
O91    O     0.78029   0.21971   0.36580   0.00000  Uiso   1.00
O92    O     0.21971   0.78029   0.63420   0.00000  Uiso   1.00
O93    O     0.63420   0.21971   0.78029   0.00000  Uiso   1.00
O94    O     0.36580   0.78029   0.21971   0.00000  Uiso   1.00
O95    O     0.21971   0.21971   0.63420   0.00000  Uiso   1.00
O96    O     0.78029   0.78029   0.36580   0.00000  Uiso   1.00
O97    O     0.78029   0.36580   0.21971   0.00000  Uiso   1.00
O98    O     0.21971   0.63420   0.78029   0.00000  Uiso   1.00
O99    O     0.78029   0.63420   0.78029   0.00000  Uiso   1.00
O100   O     0.21971   0.36580   0.21971   0.00000  Uiso   1.00
O101   O     0.21971   0.63420   0.21971   0.00000  Uiso   1.00
O102   O     0.78029   0.36580   0.78029   0.00000  Uiso   1.00
O103   O     0.21971   0.36580   0.78029   0.00000  Uiso   1.00
O104   O     0.78029   0.63420   0.21971   0.00000  Uiso   1.00
Zn1    Zn    0.20660   0.29340   0.20660   0.00000  Uiso   1.00
Zn2    Zn    0.79340   0.70660   0.79340   0.00000  Uiso   1.00
Zn3    Zn    0.20660   0.29340   0.79340   0.00000  Uiso   1.00
Zn4    Zn    0.79340   0.70660   0.20660   0.00000  Uiso   1.00
Zn5    Zn    0.79340   0.29340   0.79340   0.00000  Uiso   1.00
Zn6    Zn    0.20660   0.70660   0.20660   0.00000  Uiso   1.00
Zn7    Zn    0.79340   0.29340   0.20660   0.00000  Uiso   1.00
Zn8    Zn    0.20660   0.70660   0.79340   0.00000  Uiso   1.00
Zn9    Zn    0.29340   0.79340   0.79340   0.00000  Uiso   1.00
Zn10   Zn    0.70660   0.20660   0.20660   0.00000  Uiso   1.00
Zn11   Zn    0.29340   0.20660   0.79340   0.00000  Uiso   1.00
Zn12   Zn    0.70660   0.79340   0.20660   0.00000  Uiso   1.00
Zn13   Zn    0.29340   0.20660   0.20660   0.00000  Uiso   1.00
Zn14   Zn    0.70660   0.79340   0.79340   0.00000  Uiso   1.00
Zn15   Zn    0.29340   0.79340   0.20660   0.00000  Uiso   1.00
Zn16   Zn    0.70660   0.20660   0.79340   0.00000  Uiso   1.00
Zn17   Zn    0.79340   0.20660   0.70660   0.00000  Uiso   1.00
Zn18   Zn    0.20660   0.79340   0.29340   0.00000  Uiso   1.00
Zn19   Zn    0.20660   0.20660   0.70660   0.00000  Uiso   1.00
Zn20   Zn    0.79340   0.79340   0.29340   0.00000  Uiso   1.00
Zn21   Zn    0.20660   0.79340   0.70660   0.00000  Uiso   1.00
Zn22   Zn    0.79340   0.20660   0.29340   0.00000  Uiso   1.00
Zn23   Zn    0.79340   0.79340   0.70660   0.00000  Uiso   1.00
Zn24   Zn    0.20660   0.20660   0.29340   0.00000  Uiso   1.00
Zn25   Zn    0.70660   0.29340   0.70660   0.00000  Uiso   1.00
Zn26   Zn    0.29340   0.70660   0.29340   0.00000  Uiso   1.00
Zn27   Zn    0.70660   0.29340   0.29340   0.00000  Uiso   1.00
Zn28   Zn    0.29340   0.70660   0.70660   0.00000  Uiso   1.00
Zn29   Zn    0.29340   0.29340   0.29340   0.00000  Uiso   1.00
Zn30   Zn    0.70660   0.70660   0.70660   0.00000  Uiso   1.00
Zn31   Zn    0.29340   0.29340   0.70660   0.00000  Uiso   1.00
Zn32   Zn    0.70660   0.70660   0.29340   0.00000  Uiso   1.00
C193   C     0.32743   0.44357   0.18919   0.00000  Uiso   1.00
C194   C     0.30940   0.44218   0.13312   0.00000  Uiso   1.00
H1     H     0.27324   0.41941   0.13003   0.00000  Uiso   1.00
H2     H     0.30198   0.48159   0.11802   0.00000  Uiso   1.00
H3     H     0.33967   0.42396   0.10891   0.00000  Uiso   1.00
H4     H     0.36655   0.46053   0.19154   0.00000  Uiso   1.00
H5     H     0.33270   0.40325   0.20243   0.00000  Uiso   1.00
C195   C     0.69306   0.55641   0.83052   0.00000  Uiso   1.00
C196   C     0.63614   0.55560   0.81535   0.00000  Uiso   1.00
H6     H     0.63062   0.57647   0.77827   0.00000  Uiso   1.00
H7     H     0.62188   0.51548   0.81077   0.00000  Uiso   1.00
H8     H     0.61283   0.57481   0.84571   0.00000  Uiso   1.00
H9     H     0.69802   0.54056   0.86993   0.00000  Uiso   1.00
H10    H     0.70501   0.59726   0.83414   0.00000  Uiso   1.00
C197   C     0.33344   0.44190   0.80156   0.00000  Uiso   1.00
C198   C     0.38000   0.43774   0.76552   0.00000  Uiso   1.00
H11    H     0.37016   0.41431   0.73106   0.00000  Uiso   1.00
H12    H     0.39294   0.47647   0.75250   0.00000  Uiso   1.00
H13    H     0.41243   0.41878   0.78607   0.00000  Uiso   1.00
H14    H     0.34540   0.45934   0.83866   0.00000  Uiso   1.00
H15    H     0.32135   0.40237   0.81284   0.00000  Uiso   1.00
C199   C     0.68381   0.55781   0.17741   0.00000  Uiso   1.00
C200   C     0.71200   0.56672   0.12632   0.00000  Uiso   1.00
H16    H     0.74700   0.59060   0.13246   0.00000  Uiso   1.00
H17    H     0.72362   0.52947   0.10864   0.00000  Uiso   1.00
H18    H     0.68617   0.58737   0.09906   0.00000  Uiso   1.00
H19    H     0.64657   0.53832   0.17000   0.00000  Uiso   1.00
H20    H     0.67239   0.59581   0.19348   0.00000  Uiso   1.00
C201   C     0.71041   0.44298   0.84050   0.00000  Uiso   1.00
C202   C     0.75260   0.44311   0.88171   0.00000  Uiso   1.00
H21    H     0.76538   0.48304   0.89046   0.00000  Uiso   1.00
H22    H     0.73783   0.42560   0.91785   0.00000  Uiso   1.00
H23    H     0.78645   0.42047   0.86834   0.00000  Uiso   1.00
H24    H     0.67433   0.45917   0.85671   0.00000  Uiso   1.00
H25    H     0.70000   0.40242   0.83169   0.00000  Uiso   1.00
C203   C     0.33557   0.55779   0.20103   0.00000  Uiso   1.00
C204   C     0.38056   0.56133   0.23895   0.00000  Uiso   1.00
H26    H     0.36945   0.58460   0.27316   0.00000  Uiso   1.00
H27    H     0.39262   0.52239   0.25219   0.00000  Uiso   1.00
H28    H     0.41401   0.58009   0.21989   0.00000  Uiso   1.00
H29    H     0.34911   0.54037   0.16445   0.00000  Uiso   1.00
H30    H     0.32421   0.59746   0.18950   0.00000  Uiso   1.00
C205   C     0.67949   0.44245   0.18155   0.00000  Uiso   1.00
C206   C     0.62766   0.43406   0.20843   0.00000  Uiso   1.00
H31    H     0.63246   0.40878   0.24272   0.00000  Uiso   1.00
H32    H     0.61071   0.47137   0.22098   0.00000  Uiso   1.00
H33    H     0.60042   0.41523   0.18131   0.00000  Uiso   1.00
H34    H     0.67320   0.46193   0.14402   0.00000  Uiso   1.00
H35    H     0.69559   0.40430   0.17065   0.00000  Uiso   1.00
C207   C     0.32627   0.55633   0.81176   0.00000  Uiso   1.00
C208   C     0.30595   0.55946   0.86698   0.00000  Uiso   1.00
H36    H     0.27028   0.58318   0.86819   0.00000  Uiso   1.00
H37    H     0.29694   0.52054   0.88252   0.00000  Uiso   1.00
H38    H     0.33577   0.57727   0.89193   0.00000  Uiso   1.00
H39    H     0.36490   0.53821   0.81195   0.00000  Uiso   1.00
H40    H     0.33341   0.59605   0.79746   0.00000  Uiso   1.00
C209   C     0.44314   0.83875   0.70714   0.00000  Uiso   1.00
C210   C     0.44519   0.88214   0.74706   0.00000  Uiso   1.00
H41    H     0.42204   0.87152   0.78159   0.00000  Uiso   1.00
H42    H     0.48546   0.88991   0.75939   0.00000  Uiso   1.00
H43    H     0.42932   0.91814   0.73033   0.00000  Uiso   1.00
H44    H     0.45841   0.85259   0.66965   0.00000  Uiso   1.00
H45    H     0.40213   0.83018   0.69856   0.00000  Uiso   1.00
C211   C     0.55815   0.19665   0.33280   0.00000  Uiso   1.00
C212   C     0.56477   0.23239   0.37922   0.00000  Uiso   1.00
H46    H     0.58668   0.26750   0.36816   0.00000  Uiso   1.00
H47    H     0.52671   0.24428   0.39487   0.00000  Uiso   1.00
H48    H     0.58643   0.21196   0.41008   0.00000  Uiso   1.00
H49    H     0.53978   0.16030   0.34567   0.00000  Uiso   1.00
H50    H     0.59689   0.18409   0.31953   0.00000  Uiso   1.00
C213   C     0.44166   0.19348   0.66993   0.00000  Uiso   1.00
C214   C     0.43440   0.22756   0.62228   0.00000  Uiso   1.00
H51    H     0.41116   0.26221   0.63191   0.00000  Uiso   1.00
H52    H     0.47221   0.24030   0.60665   0.00000  Uiso   1.00
H53    H     0.41390   0.20550   0.59184   0.00000  Uiso   1.00
H54    H     0.46026   0.15688   0.65821   0.00000  Uiso   1.00
H55    H     0.40316   0.18103   0.68401   0.00000  Uiso   1.00
C215   C     0.55713   0.67698   0.18382   0.00000  Uiso   1.00
C216   C     0.56059   0.62495   0.21142   0.00000  Uiso   1.00
H56    H     0.58719   0.62772   0.24489   0.00000  Uiso   1.00
H57    H     0.52218   0.61214   0.22548   0.00000  Uiso   1.00
H58    H     0.57541   0.59543   0.18424   0.00000  Uiso   1.00
H59    H     0.53931   0.67181   0.14534   0.00000  Uiso   1.00
H60    H     0.59680   0.69036   0.17485   0.00000  Uiso   1.00
C217   C     0.44357   0.18772   0.32626   0.00000  Uiso   1.00
C218   C     0.44124   0.13208   0.30710   0.00000  Uiso   1.00
H61    H     0.48020   0.11692   0.29781   0.00000  Uiso   1.00
H62    H     0.42408   0.10737   0.33763   0.00000  Uiso   1.00
H63    H     0.41716   0.12985   0.27173   0.00000  Uiso   1.00
H64    H     0.46095   0.18912   0.36527   0.00000  Uiso   1.00
H65    H     0.40353   0.20142   0.33219   0.00000  Uiso   1.00
C219   C     0.55608   0.82696   0.68836   0.00000  Uiso   1.00
C220   C     0.55438   0.80819   0.63256   0.00000  Uiso   1.00
H66    H     0.57540   0.77101   0.62895   0.00000  Uiso   1.00
H67    H     0.51404   0.80237   0.61945   0.00000  Uiso   1.00
H68    H     0.57265   0.83740   0.60710   0.00000  Uiso   1.00
H69    H     0.53984   0.86634   0.69041   0.00000  Uiso   1.00
H70    H     0.59702   0.83175   0.69974   0.00000  Uiso   1.00
C221   C     0.44252   0.68511   0.17600   0.00000  Uiso   1.00
C222   C     0.43725   0.71410   0.12488   0.00000  Uiso   1.00
H71    H     0.41200   0.74838   0.12978   0.00000  Uiso   1.00
H72    H     0.47548   0.72702   0.11044   0.00000  Uiso   1.00
H73    H     0.41986   0.68828   0.09554   0.00000  Uiso   1.00
H74    H     0.46081   0.64712   0.16906   0.00000  Uiso   1.00
H75    H     0.40338   0.67504   0.19019   0.00000  Uiso   1.00
C223   C     0.55630   0.18578   0.67551   0.00000  Uiso   1.00
C224   C     0.55896   0.13062   0.69607   0.00000  Uiso   1.00
H76    H     0.58452   0.12901   0.73042   0.00000  Uiso   1.00
H77    H     0.52034   0.11603   0.70746   0.00000  Uiso   1.00
H78    H     0.57452   0.10508   0.66545   0.00000  Uiso   1.00
H79    H     0.53864   0.18618   0.63659   0.00000  Uiso   1.00
H80    H     0.59624   0.19951   0.66884   0.00000  Uiso   1.00
C225   C     0.81173   0.32678   0.55645   0.00000  Uiso   1.00
C226   C     0.86708   0.30690   0.55893   0.00000  Uiso   1.00
H81    H     0.86877   0.27094   0.58227   0.00000  Uiso   1.00
H82    H     0.88234   0.29856   0.51975   0.00000  Uiso   1.00
H83    H     0.89194   0.33669   0.57696   0.00000  Uiso   1.00
H84    H     0.81147   0.36564   0.53873   0.00000  Uiso   1.00
H85    H     0.79780   0.33341   0.59638   0.00000  Uiso   1.00
C227   C     0.18590   0.67547   0.44228   0.00000  Uiso   1.00
C228   C     0.21544   0.62523   0.43329   0.00000  Uiso   1.00
H86    H     0.25001   0.63229   0.40896   0.00000  Uiso   1.00
H87    H     0.22795   0.60799   0.47048   0.00000  Uiso   1.00
H88    H     0.19018   0.59715   0.41310   0.00000  Uiso   1.00
H89    H     0.14892   0.66692   0.46192   0.00000  Uiso   1.00
H90    H     0.17393   0.69130   0.40431   0.00000  Uiso   1.00
C229   C     0.30285   0.16689   0.55824   0.00000  Uiso   1.00
C230   C     0.26696   0.12055   0.56500   0.00000  Uiso   1.00
H91    H     0.23254   0.13137   0.58808   0.00000  Uiso   1.00
H92    H     0.25393   0.10572   0.52701   0.00000  Uiso   1.00
H93    H     0.28768   0.08913   0.58552   0.00000  Uiso   1.00
H94    H     0.33916   0.15407   0.53976   0.00000  Uiso   1.00
H95    H     0.31550   0.18005   0.59698   0.00000  Uiso   1.00
C231   C     0.83790   0.70523   0.44191   0.00000  Uiso   1.00
C232   C     0.88140   0.74480   0.43689   0.00000  Uiso   1.00
H96    H     0.86876   0.77814   0.41313   0.00000  Uiso   1.00
H97    H     0.89354   0.75927   0.47531   0.00000  Uiso   1.00
H98    H     0.91527   0.72672   0.41792   0.00000  Uiso   1.00
H99    H     0.85298   0.66947   0.45982   0.00000  Uiso   1.00
H100   H     0.82645   0.69253   0.40265   0.00000  Uiso   1.00
C233   C     0.18202   0.67905   0.55764   0.00000  Uiso   1.00
C234   C     0.12938   0.70401   0.56659   0.00000  Uiso   1.00
H101   H     0.11052   0.71373   0.52937   0.00000  Uiso   1.00
H102   H     0.10410   0.67697   0.58827   0.00000  Uiso   1.00
H103   H     0.13374   0.73984   0.58955   0.00000  Uiso   1.00
H104   H     0.17713   0.64123   0.53839   0.00000  Uiso   1.00
H105   H     0.19879   0.66903   0.59566   0.00000  Uiso   1.00
C235   C     0.79946   0.33522   0.44228   0.00000  Uiso   1.00
C236   C     0.76237   0.38108   0.44042   0.00000  Uiso   1.00
H106   H     0.72860   0.37181   0.41579   0.00000  Uiso   1.00
H107   H     0.74834   0.39127   0.47963   0.00000  Uiso   1.00
H108   H     0.78233   0.41522   0.42403   0.00000  Uiso   1.00
H109   H     0.83680   0.34738   0.45905   0.00000  Uiso   1.00
H110   H     0.80975   0.32440   0.40213   0.00000  Uiso   1.00
C237   C     0.83311   0.69649   0.55663   0.00000  Uiso   1.00
C238   C     0.81793   0.63979   0.56150   0.00000  Uiso   1.00
H111   H     0.78150   0.63627   0.58382   0.00000  Uiso   1.00
H112   H     0.81204   0.62200   0.52301   0.00000  Uiso   1.00
H113   H     0.84900   0.61837   0.58164   0.00000  Uiso   1.00
H114   H     0.87157   0.69964   0.53825   0.00000  Uiso   1.00
H115   H     0.83941   0.71229   0.59587   0.00000  Uiso   1.00
C239   C     0.31059   0.17249   0.44343   0.00000  Uiso   1.00
C240   C     0.36628   0.19123   0.43950   0.00000  Uiso   1.00
H116   H     0.36819   0.22660   0.41530   0.00000  Uiso   1.00
H117   H     0.38245   0.20032   0.47808   0.00000  Uiso   1.00
H118   H     0.39027   0.16057   0.42169   0.00000  Uiso   1.00
H119   H     0.30941   0.13373   0.46145   0.00000  Uiso   1.00
H120   H     0.29590   0.16598   0.40383   0.00000  Uiso   1.00
C241   C     0.68385   0.94228   0.32286   0.00000  Uiso   1.00
C242   C     0.71209   0.93381   0.37391   0.00000  Uiso   1.00
H121   H     0.74688   0.90955   0.36789   0.00000  Uiso   1.00
H122   H     0.72405   0.97118   0.39106   0.00000  Uiso   1.00
H123   H     0.68615   0.91376   0.40157   0.00000  Uiso   1.00
H124   H     0.64653   0.96169   0.33026   0.00000  Uiso   1.00
H125   H     0.67259   0.90414   0.30704   0.00000  Uiso   1.00
C243   C     0.16633   0.05819   0.80222   0.00000  Uiso   1.00
C244   C     0.12032   0.06528   0.76603   0.00000  Uiso   1.00
H126   H     0.13134   0.08898   0.73206   0.00000  Uiso   1.00
H127   H     0.10580   0.02746   0.75220   0.00000  Uiso   1.00
H128   H     0.08862   0.08525   0.78683   0.00000  Uiso   1.00
H129   H     0.15317   0.03956   0.83837   0.00000  Uiso   1.00
H130   H     0.17957   0.09679   0.81521   0.00000  Uiso   1.00
C245   C     0.33572   0.94215   0.29842   0.00000  Uiso   1.00
C246   C     0.38057   0.93856   0.26022   0.00000  Uiso   1.00
H131   H     0.39279   0.97750   0.24712   0.00000  Uiso   1.00
H132   H     0.41398   0.91949   0.27897   0.00000  Uiso   1.00
H133   H     0.36924   0.91554   0.22595   0.00000  Uiso   1.00
H134   H     0.34942   0.95955   0.33492   0.00000  Uiso   1.00
H135   H     0.32438   0.90249   0.31003   0.00000  Uiso   1.00
C247   C     0.82881   0.05623   0.80927   0.00000  Uiso   1.00
C248   C     0.81116   0.05892   0.86545   0.00000  Uiso   1.00
H136   H     0.77514   0.08197   0.86841   0.00000  Uiso   1.00
H137   H     0.80366   0.01986   0.88141   0.00000  Uiso   1.00
H138   H     0.84168   0.07749   0.88898   0.00000  Uiso   1.00
H139   H     0.86762   0.03857   0.80688   0.00000  Uiso   1.00
H140   H     0.83454   0.09619   0.79519   0.00000  Uiso   1.00
C249   C     0.17088   0.94327   0.80896   0.00000  Uiso   1.00
C250   C     0.18900   0.93850   0.86479   0.00000  Uiso   1.00
H141   H     0.22502   0.91536   0.86648   0.00000  Uiso   1.00
H142   H     0.19688   0.97689   0.88199   0.00000  Uiso   1.00
H143   H     0.15855   0.91933   0.88803   0.00000  Uiso   1.00
H144   H     0.13231   0.96163   0.80777   0.00000  Uiso   1.00
H145   H     0.16388   0.90399   0.79353   0.00000  Uiso   1.00
C251   C     0.67917   0.05760   0.31837   0.00000  Uiso   1.00
C252   C     0.62738   0.06572   0.29147   0.00000  Uiso   1.00
H146   H     0.63219   0.09086   0.25705   0.00000  Uiso   1.00
H147   H     0.61059   0.02831   0.27909   0.00000  Uiso   1.00
H148   H     0.60001   0.08460   0.31850   0.00000  Uiso   1.00
H149   H     0.67288   0.03828   0.35599   0.00000  Uiso   1.00
H150   H     0.69508   0.09586   0.32910   0.00000  Uiso   1.00
C253   C     0.83553   0.94167   0.79881   0.00000  Uiso   1.00
C254   C     0.88057   0.93622   0.76106   0.00000  Uiso   1.00
H151   H     0.86834   0.91501   0.72595   0.00000  Uiso   1.00
H152   H     0.89544   0.97466   0.74932   0.00000  Uiso   1.00
H153   H     0.91234   0.91432   0.77973   0.00000  Uiso   1.00
H154   H     0.84935   0.95942   0.83509   0.00000  Uiso   1.00
H155   H     0.82321   0.90252   0.81112   0.00000  Uiso   1.00
C255   C     0.32759   0.05638   0.31039   0.00000  Uiso   1.00
C256   C     0.30970   0.05774   0.36656   0.00000  Uiso   1.00
H156   H     0.27349   0.08045   0.36983   0.00000  Uiso   1.00
H157   H     0.30242   0.01832   0.38170   0.00000  Uiso   1.00
H158   H     0.33998   0.07604   0.39061   0.00000  Uiso   1.00
H159   H     0.36671   0.03940   0.30783   0.00000  Uiso   1.00
H160   H     0.33283   0.09670   0.29715   0.00000  Uiso   1.00
C257   C     0.67238   0.05668   0.69017   0.00000  Uiso   1.00
C258   C     0.68858   0.05512   0.63349   0.00000  Uiso   1.00
H161   H     0.72556   0.07615   0.62822   0.00000  Uiso   1.00
H162   H     0.69374   0.01486   0.61984   0.00000  Uiso   1.00
H163   H     0.65840   0.07380   0.60954   0.00000  Uiso   1.00
H164   H     0.63288   0.04109   0.69468   0.00000  Uiso   1.00
H165   H     0.66882   0.09772   0.70150   0.00000  Uiso   1.00
C259   C     0.16433   0.94236   0.20149   0.00000  Uiso   1.00
C260   C     0.11941   0.93893   0.23964   0.00000  Uiso   1.00
H166   H     0.13045   0.91540   0.27372   0.00000  Uiso   1.00
H167   H     0.10764   0.97788   0.25306   0.00000  Uiso   1.00
H168   H     0.08577   0.92051   0.22072   0.00000  Uiso   1.00
H169   H     0.15076   0.95979   0.16492   0.00000  Uiso   1.00
H170   H     0.17557   0.90266   0.19000   0.00000  Uiso   1.00
C261   C     0.33184   0.05806   0.69536   0.00000  Uiso   1.00
C262   C     0.37929   0.06374   0.72987   0.00000  Uiso   1.00
H171   H     0.36992   0.08738   0.76434   0.00000  Uiso   1.00
H172   H     0.39350   0.02547   0.74293   0.00000  Uiso   1.00
H173   H     0.41065   0.08320   0.70805   0.00000  Uiso   1.00
H174   H     0.34305   0.03998   0.65829   0.00000  Uiso   1.00
H175   H     0.31879   0.09716   0.68363   0.00000  Uiso   1.00
C263   C     0.81613   0.94244   0.17717   0.00000  Uiso   1.00
C264   C     0.78793   0.93423   0.12608   0.00000  Uiso   1.00
H176   H     0.75308   0.91005   0.13203   0.00000  Uiso   1.00
H177   H     0.77608   0.97171   0.10896   0.00000  Uiso   1.00
H178   H     0.81386   0.91422   0.09842   0.00000  Uiso   1.00
H179   H     0.85349   0.96179   0.16985   0.00000  Uiso   1.00
H180   H     0.82731   0.90420   0.19293   0.00000  Uiso   1.00
C265   C     0.17252   0.05657   0.18950   0.00000  Uiso   1.00
C266   C     0.19049   0.05796   0.13335   0.00000  Uiso   1.00
H181   H     0.22664   0.08075   0.13008   0.00000  Uiso   1.00
H182   H     0.19791   0.01857   0.11831   0.00000  Uiso   1.00
H183   H     0.16017   0.07617   0.10923   0.00000  Uiso   1.00
H184   H     0.13339   0.03963   0.19202   0.00000  Uiso   1.00
H185   H     0.16730   0.09688   0.20267   0.00000  Uiso   1.00
C267   C     0.66115   0.94355   0.70765   0.00000  Uiso   1.00
C268   C     0.61898   0.94470   0.74900   0.00000  Uiso   1.00
H186   H     0.63014   0.92009   0.78230   0.00000  Uiso   1.00
H187   H     0.61218   0.98460   0.76308   0.00000  Uiso   1.00
H188   H     0.58228   0.93011   0.73286   0.00000  Uiso   1.00
H189   H     0.64606   0.95965   0.67104   0.00000  Uiso   1.00
H190   H     0.66971   0.90277   0.69785   0.00000  Uiso   1.00
C269   C     0.82102   0.05773   0.18188   0.00000  Uiso   1.00
C270   C     0.87274   0.06568   0.20892   0.00000  Uiso   1.00
H191   H     0.86785   0.09066   0.24338   0.00000  Uiso   1.00
H192   H     0.88949   0.02820   0.22125   0.00000  Uiso   1.00
H193   H     0.90018   0.08467   0.18200   0.00000  Uiso   1.00
H194   H     0.82740   0.03851   0.14427   0.00000  Uiso   1.00
H195   H     0.80517   0.09604   0.17112   0.00000  Uiso   1.00
C271   C     0.32597   0.94328   0.68762   0.00000  Uiso   1.00
C272   C     0.30503   0.93804   0.63285   0.00000  Uiso   1.00
H196   H     0.27024   0.91303   0.63276   0.00000  Uiso   1.00
H197   H     0.29453   0.97627   0.61654   0.00000  Uiso   1.00
H198   H     0.33511   0.92059   0.60786   0.00000  Uiso   1.00
H199   H     0.36425   0.96206   0.68622   0.00000  Uiso   1.00
H200   H     0.33409   0.90420   0.70310   0.00000  Uiso   1.00
C273   C     0.94274   0.67636   0.31534   0.00000  Uiso   1.00
C274   C     0.93962   0.62460   0.28732   0.00000  Uiso   1.00
H201   H     0.91323   0.62763   0.25370   0.00000  Uiso   1.00
H202   H     0.97817   0.61205   0.27342   0.00000  Uiso   1.00
H203   H     0.92473   0.59476   0.31417   0.00000  Uiso   1.00
H204   H     0.96034   0.67082   0.35389   0.00000  Uiso   1.00
H205   H     0.90297   0.68951   0.32421   0.00000  Uiso   1.00
C275   C     0.05762   0.31104   0.67213   0.00000  Uiso   1.00
C276   C     0.06575   0.27970   0.62282   0.00000  Uiso   1.00
H206   H     0.09082   0.24584   0.63060   0.00000  Uiso   1.00
H207   H     0.02842   0.26583   0.60714   0.00000  Uiso   1.00
H208   H     0.08472   0.30419   0.59316   0.00000  Uiso   1.00
H209   H     0.03826   0.34801   0.66276   0.00000  Uiso   1.00
H210   H     0.09589   0.32321   0.68692   0.00000  Uiso   1.00
C277   C     0.94692   0.64612   0.77085   0.00000  Uiso   1.00
C278   C     0.97725   0.60258   0.74462   0.00000  Uiso   1.00
H211   H     0.97884   0.60933   0.70226   0.00000  Uiso   1.00
H212   H     0.01720   0.59943   0.75941   0.00000  Uiso   1.00
H213   H     0.95776   0.56511   0.75188   0.00000  Uiso   1.00
H214   H     0.94133   0.63813   0.81259   0.00000  Uiso   1.00
H215   H     0.90816   0.64463   0.75307   0.00000  Uiso   1.00
C279   C     0.05645   0.18781   0.17384   0.00000  Uiso   1.00
C280   C     0.05876   0.13213   0.19306   0.00000  Uiso   1.00
H216   H     0.08288   0.12982   0.22839   0.00000  Uiso   1.00
H217   H     0.01980   0.11702   0.20241   0.00000  Uiso   1.00
H218   H     0.07586   0.10746   0.16254   0.00000  Uiso   1.00
H219   H     0.03909   0.18928   0.13482   0.00000  Uiso   1.00
H220   H     0.09650   0.20148   0.16791   0.00000  Uiso   1.00
C281   C     0.94225   0.31432   0.67566   0.00000  Uiso   1.00
C282   C     0.93165   0.36764   0.69845   0.00000  Uiso   1.00
H221   H     0.90786   0.36431   0.73398   0.00000  Uiso   1.00
H222   H     0.96831   0.38755   0.70809   0.00000  Uiso   1.00
H223   H     0.91022   0.39147   0.66995   0.00000  Uiso   1.00
H224   H     0.96210   0.31854   0.63804   0.00000  Uiso   1.00
H225   H     0.90492   0.29616   0.66556   0.00000  Uiso   1.00
C283   C     0.05715   0.68502   0.32406   0.00000  Uiso   1.00
C284   C     0.06106   0.71371   0.37541   0.00000  Uiso   1.00
H226   H     0.08704   0.74757   0.37143   0.00000  Uiso   1.00
H227   H     0.02260   0.72728   0.38856   0.00000  Uiso   1.00
H228   H     0.07687   0.68744   0.40528   0.00000  Uiso   1.00
H229   H     0.03921   0.64676   0.33042   0.00000  Uiso   1.00
H230   H     0.09669   0.67555   0.31060   0.00000  Uiso   1.00
C285   C     0.94189   0.19680   0.16724   0.00000  Uiso   1.00
C286   C     0.93532   0.23263   0.12079   0.00000  Uiso   1.00
H231   H     0.91333   0.26770   0.13179   0.00000  Uiso   1.00
H232   H     0.97339   0.24461   0.10522   0.00000  Uiso   1.00
H233   H     0.91376   0.21225   0.08989   0.00000  Uiso   1.00
H234   H     0.96026   0.16046   0.15441   0.00000  Uiso   1.00
H235   H     0.90313   0.18425   0.18048   0.00000  Uiso   1.00
C287   C     0.04678   0.67792   0.82103   0.00000  Uiso   1.00
C288   C     0.05561   0.71385   0.86685   0.00000  Uiso   1.00
H236   H     0.07733   0.74875   0.85509   0.00000  Uiso   1.00
H237   H     0.01792   0.72646   0.88299   0.00000  Uiso   1.00
H238   H     0.07739   0.69317   0.89744   0.00000  Uiso   1.00
H239   H     0.02084   0.64751   0.83586   0.00000  Uiso   1.00
H240   H     0.08190   0.65605   0.81038   0.00000  Uiso   1.00
C289   C     0.05626   0.31193   0.32642   0.00000  Uiso   1.00
C290   C     0.05891   0.36761   0.30726   0.00000  Uiso   1.00
H241   H     0.08314   0.36982   0.27193   0.00000  Uiso   1.00
H242   H     0.02005   0.38294   0.29793   0.00000  Uiso   1.00
H243   H     0.07606   0.39216   0.33780   0.00000  Uiso   1.00
H244   H     0.03869   0.31053   0.36540   0.00000  Uiso   1.00
H245   H     0.09621   0.29804   0.33247   0.00000  Uiso   1.00
C291   C     0.95202   0.78746   0.65027   0.00000  Uiso   1.00
C292   C     0.97702   0.75567   0.60717   0.00000  Uiso   1.00
H246   H     0.01967   0.75776   0.60842   0.00000  Uiso   1.00
H247   H     0.96547   0.71452   0.61097   0.00000  Uiso   1.00
H248   H     0.96375   0.77011   0.56903   0.00000  Uiso   1.00
H249   H     0.91036   0.78043   0.64551   0.00000  Uiso   1.00
H250   H     0.95764   0.82934   0.64352   0.00000  Uiso   1.00
C293   C     0.05842   0.19396   0.83051   0.00000  Uiso   1.00
C294   C     0.06511   0.22830   0.87797   0.00000  Uiso   1.00
H251   H     0.08799   0.26316   0.86819   0.00000  Uiso   1.00
H252   H     0.02709   0.24066   0.89338   0.00000  Uiso   1.00
H253   H     0.08576   0.20658   0.90862   0.00000  Uiso   1.00
H254   H     0.04010   0.15726   0.84238   0.00000  Uiso   1.00
H255   H     0.09711   0.18177   0.81674   0.00000  Uiso   1.00
C295   C     0.94311   0.82383   0.18460   0.00000  Uiso   1.00
C296   C     0.93942   0.87544   0.21285   0.00000  Uiso   1.00
H256   H     0.91269   0.87214   0.24624   0.00000  Uiso   1.00
H257   H     0.97776   0.88809   0.22710   0.00000  Uiso   1.00
H258   H     0.92467   0.90534   0.18602   0.00000  Uiso   1.00
H259   H     0.96116   0.82963   0.14626   0.00000  Uiso   1.00
H260   H     0.90351   0.81051   0.17536   0.00000  Uiso   1.00
C297   C     0.04511   0.83628   0.70302   0.00000  Uiso   1.00
C298   C     0.07034   0.84153   0.64969   0.00000  Uiso   1.00
H261   H     0.09710   0.87502   0.64980   0.00000  Uiso   1.00
H262   H     0.09251   0.80656   0.63910   0.00000  Uiso   1.00
H263   H     0.04098   0.84879   0.61947   0.00000  Uiso   1.00
H264   H     0.01320   0.86483   0.70597   0.00000  Uiso   1.00
H265   H     0.07268   0.84892   0.73328   0.00000  Uiso   1.00
C299   C     0.94163   0.30327   0.33278   0.00000  Uiso   1.00
C300   C     0.93481   0.26746   0.37922   0.00000  Uiso   1.00
H266   H     0.91283   0.23243   0.36820   0.00000  Uiso   1.00
H267   H     0.97280   0.25543   0.39488   0.00000  Uiso   1.00
H268   H     0.91313   0.28789   0.41008   0.00000  Uiso   1.00
H269   H     0.96000   0.33958   0.34561   0.00000  Uiso   1.00
H270   H     0.90294   0.31588   0.31947   0.00000  Uiso   1.00
C301   C     0.05780   0.81592   0.17685   0.00000  Uiso   1.00
C302   C     0.06369   0.78759   0.12550   0.00000  Uiso   1.00
H271   H     0.08839   0.75290   0.13040   0.00000  Uiso   1.00
H272   H     0.02556   0.77540   0.11031   0.00000  Uiso   1.00
H273   H     0.08203   0.81357   0.09675   0.00000  Uiso   1.00
H274   H     0.03943   0.85392   0.17014   0.00000  Uiso   1.00
H275   H     0.09676   0.82599   0.19139   0.00000  Uiso   1.00
C303   C     0.94389   0.18522   0.82420   0.00000  Uiso   1.00
C304   C     0.94217   0.13011   0.80351   0.00000  Uiso   1.00
H276   H     0.98114   0.11590   0.79288   0.00000  Uiso   1.00
H277   H     0.92624   0.10429   0.83375   0.00000  Uiso   1.00
H278   H     0.91740   0.12844   0.76861   0.00000  Uiso   1.00
H279   H     0.96128   0.18571   0.86324   0.00000  Uiso   1.00
H280   H     0.90370   0.19837   0.83058   0.00000  Uiso   1.00
C305   C     0.66330   0.70421   0.05792   0.00000  Uiso   1.00
C306   C     0.61923   0.74328   0.06161   0.00000  Uiso   1.00
H281   H     0.63123   0.77726   0.08471   0.00000  Uiso   1.00
H282   H     0.60732   0.75673   0.02271   0.00000  Uiso   1.00
H283   H     0.58541   0.72515   0.08065   0.00000  Uiso   1.00
H284   H     0.64888   0.66797   0.04055   0.00000  Uiso   1.00
H285   H     0.67438   0.69233   0.09756   0.00000  Uiso   1.00
C307   C     0.19671   0.16724   0.94189   0.00000  Uiso   1.00
C308   C     0.23234   0.12074   0.93491   0.00000  Uiso   1.00
H286   H     0.26693   0.13157   0.91207   0.00000  Uiso   1.00
H287   H     0.24510   0.10543   0.97284   0.00000  Uiso   1.00
H288   H     0.21151   0.08969   0.91403   0.00000  Uiso   1.00
H289   H     0.16042   0.15452   0.96049   0.00000  Uiso   1.00
H290   H     0.18396   0.18064   0.90323   0.00000  Uiso   1.00
C309   C     0.69930   0.33458   0.05752   0.00000  Uiso   1.00
C310   C     0.73578   0.38091   0.05912   0.00000  Uiso   1.00
H291   H     0.76968   0.37211   0.08377   0.00000  Uiso   1.00
H292   H     0.74964   0.39118   0.01985   0.00000  Uiso   1.00
H293   H     0.71537   0.41482   0.07534   0.00000  Uiso   1.00
H294   H     0.66178   0.34626   0.04078   0.00000  Uiso   1.00
H295   H     0.68925   0.32368   0.09773   0.00000  Uiso   1.00
C311   C     0.18903   0.82681   0.94325   0.00000  Uiso   1.00
C312   C     0.13494   0.80544   0.93480   0.00000  Uiso   1.00
H296   H     0.13773   0.76700   0.91636   0.00000  Uiso   1.00
H297   H     0.11400   0.80123   0.97196   0.00000  Uiso   1.00
H298   H     0.11272   0.83173   0.90925   0.00000  Uiso   1.00
H299   H     0.18685   0.86489   0.96247   0.00000  Uiso   1.00
H300   H     0.20635   0.83537   0.90511   0.00000  Uiso   1.00
C313   C     0.18915   0.17274   0.05672   0.00000  Uiso   1.00
C314   C     0.13351   0.19164   0.06059   0.00000  Uiso   1.00
H301   H     0.13166   0.22692   0.08484   0.00000  Uiso   1.00
H302   H     0.11740   0.20093   0.02202   0.00000  Uiso   1.00
H303   H     0.10943   0.16098   0.07832   0.00000  Uiso   1.00
H304   H     0.19027   0.13399   0.03876   0.00000  Uiso   1.00
H305   H     0.20382   0.16619   0.09633   0.00000  Uiso   1.00
C315   C     0.67044   0.69273   0.94364   0.00000  Uiso   1.00
C316   C     0.68744   0.63634   0.94150   0.00000  Uiso   1.00
H306   H     0.72373   0.63289   0.91894   0.00000  Uiso   1.00
H307   H     0.69427   0.62056   0.98075   0.00000  Uiso   1.00
H308   H     0.65695   0.61295   0.92278   0.00000  Uiso   1.00
H309   H     0.63147   0.69561   0.96097   0.00000  Uiso   1.00
H310   H     0.66492   0.70660   0.90356   0.00000  Uiso   1.00
C317   C     0.19322   0.83002   0.05839   0.00000  Uiso   1.00
C318   C     0.22643   0.87804   0.06673   0.00000  Uiso   1.00
H311   H     0.26092   0.86853   0.09022   0.00000  Uiso   1.00
H312   H     0.23939   0.89445   0.02931   0.00000  Uiso   1.00
H313   H     0.20364   0.90779   0.08755   0.00000  Uiso   1.00
H314   H     0.15671   0.84116   0.03928   0.00000  Uiso   1.00
H315   H     0.18045   0.81540   0.09662   0.00000  Uiso   1.00
C319   C     0.68671   0.32567   0.94343   0.00000  Uiso   1.00
C320   C     0.63160   0.30505   0.94159   0.00000  Uiso   1.00
H316   H     0.63012   0.26924   0.91810   0.00000  Uiso   1.00
H317   H     0.61694   0.29624   0.98091   0.00000  Uiso   1.00
H318   H     0.60611   0.33463   0.92403   0.00000  Uiso   1.00
H319   H     0.68662   0.36463   0.96085   0.00000  Uiso   1.00
H320   H     0.70019   0.33226   0.90332   0.00000  Uiso   1.00
C321   C     0.31296   0.67452   0.94237   0.00000  Uiso   1.00
C322   C     0.36659   0.69649   0.93154   0.00000  Uiso   1.00
H321   H     0.36378   0.73187   0.90747   0.00000  Uiso   1.00
H322   H     0.38663   0.70613   0.96814   0.00000  Uiso   1.00
H323   H     0.38998   0.66751   0.91030   0.00000  Uiso   1.00
H324   H     0.31659   0.63691   0.96234   0.00000  Uiso   1.00
H325   H     0.29459   0.66467   0.90509   0.00000  Uiso   1.00
C323   C     0.80028   0.16530   0.05741   0.00000  Uiso   1.00
C324   C     0.76309   0.11959   0.06051   0.00000  Uiso   1.00
H326   H     0.72992   0.12908   0.08594   0.00000  Uiso   1.00
H327   H     0.74815   0.10923   0.02174   0.00000  Uiso   1.00
H328   H     0.78333   0.08548   0.07657   0.00000  Uiso   1.00
H329   H     0.83716   0.15269   0.03989   0.00000  Uiso   1.00
H330   H     0.81143   0.17654   0.09719   0.00000  Uiso   1.00
C325   C     0.30305   0.33294   0.94158   0.00000  Uiso   1.00
C326   C     0.26730   0.37934   0.93459   0.00000  Uiso   1.00
H331   H     0.23266   0.36839   0.91200   0.00000  Uiso   1.00
H332   H     0.25463   0.39470   0.97253   0.00000  Uiso   1.00
H333   H     0.28800   0.41039   0.91344   0.00000  Uiso   1.00
H334   H     0.33930   0.34575   0.96006   0.00000  Uiso   1.00
H335   H     0.31582   0.31959   0.90291   0.00000  Uiso   1.00
C327   C     0.83558   0.79974   0.05725   0.00000  Uiso   1.00
C328   C     0.88118   0.76270   0.06298   0.00000  Uiso   1.00
H336   H     0.87107   0.73060   0.08953   0.00000  Uiso   1.00
H337   H     0.89260   0.74607   0.02518   0.00000  Uiso   1.00
H338   H     0.91478   0.78366   0.07909   0.00000  Uiso   1.00
H339   H     0.84830   0.83611   0.03857   0.00000  Uiso   1.00
H340   H     0.82329   0.81234   0.09632   0.00000  Uiso   1.00
C329   C     0.81115   0.17315   0.94308   0.00000  Uiso   1.00
C330   C     0.86693   0.19187   0.94036   0.00000  Uiso   1.00
H341   H     0.86936   0.22743   0.91648   0.00000  Uiso   1.00
H342   H     0.88233   0.20048   0.97937   0.00000  Uiso   1.00
H343   H     0.89124   0.16139   0.92265   0.00000  Uiso   1.00
H344   H     0.80967   0.13409   0.96041   0.00000  Uiso   1.00
H345   H     0.79723   0.16724   0.90311   0.00000  Uiso   1.00
C331   C     0.30993   0.67153   0.05785   0.00000  Uiso   1.00
C332   C     0.27802   0.62268   0.06660   0.00000  Uiso   1.00
H346   H     0.24378   0.63123   0.09089   0.00000  Uiso   1.00
H347   H     0.26473   0.60624   0.02937   0.00000  Uiso   1.00
H348   H     0.30188   0.59332   0.08675   0.00000  Uiso   1.00
H349   H     0.34662   0.66152   0.03832   0.00000  Uiso   1.00
H350   H     0.32247   0.68649   0.09595   0.00000  Uiso   1.00
C333   C     0.83258   0.80401   0.94191   0.00000  Uiso   1.00
C334   C     0.81550   0.85910   0.92959   0.00000  Uiso   1.00
H351   H     0.78063   0.85886   0.90475   0.00000  Uiso   1.00
H352   H     0.80678   0.88052   0.96568   0.00000  Uiso   1.00
H353   H     0.84688   0.87956   0.90871   0.00000  Uiso   1.00
H354   H     0.87003   0.80525   0.96228   0.00000  Uiso   1.00
H355   H     0.84197   0.78382   0.90537   0.00000  Uiso   1.00
C335   C     0.31067   0.32741   0.05641   0.00000  Uiso   1.00
C336   C     0.36632   0.30857   0.06032   0.00000  Uiso   1.00
H356   H     0.36814   0.27320   0.08451   0.00000  Uiso   1.00
H357   H     0.38257   0.29948   0.02174   0.00000  Uiso   1.00
H358   H     0.39031   0.33918   0.07815   0.00000  Uiso   1.00
H359   H     0.30956   0.36615   0.03834   0.00000  Uiso   1.00
H360   H     0.29590   0.33398   0.09601   0.00000  Uiso   1.00
C337   C     0.78845   0.44329   0.65904   0.00000  Uiso   1.00
C338   C     0.74604   0.44393   0.61807   0.00000  Uiso   1.00
H361   H     0.73349   0.48401   0.60951   0.00000  Uiso   1.00
H362   H     0.76049   0.42652   0.58179   0.00000  Uiso   1.00
H363   H     0.71213   0.42146   0.63156   0.00000  Uiso   1.00
H364   H     0.82452   0.45935   0.64271   0.00000  Uiso   1.00
H365   H     0.79869   0.40261   0.66762   0.00000  Uiso   1.00
C339   C     0.16434   0.55774   0.29872   0.00000  Uiso   1.00
C340   C     0.11947   0.56139   0.26065   0.00000  Uiso   1.00
H366   H     0.10732   0.52248   0.24753   0.00000  Uiso   1.00
H367   H     0.08603   0.58032   0.27954   0.00000  Uiso   1.00
H368   H     0.13074   0.58457   0.22638   0.00000  Uiso   1.00
H369   H     0.15066   0.54026   0.33526   0.00000  Uiso   1.00
H370   H     0.17567   0.59738   0.31027   0.00000  Uiso   1.00
C341   C     0.82059   0.44227   0.31843   0.00000  Uiso   1.00
C342   C     0.87243   0.43398   0.29155   0.00000  Uiso   1.00
H371   H     0.88931   0.47131   0.27895   0.00000  Uiso   1.00
H372   H     0.89970   0.41515   0.31868   0.00000  Uiso   1.00
H373   H     0.86765   0.40873   0.25728   0.00000  Uiso   1.00
H374   H     0.82684   0.46162   0.35597   0.00000  Uiso   1.00
H375   H     0.80452   0.40407   0.32930   0.00000  Uiso   1.00
C343   C     0.16948   0.55725   0.69311   0.00000  Uiso   1.00
C344   C     0.18692   0.56452   0.63729   0.00000  Uiso   1.00
H376   H     0.22245   0.58841   0.63590   0.00000  Uiso   1.00
H377   H     0.19513   0.52684   0.61866   0.00000  Uiso   1.00
H378   H     0.15592   0.58411   0.61521   0.00000  Uiso   1.00
H379   H     0.13127   0.53818   0.69388   0.00000  Uiso   1.00
H380   H     0.16175   0.59571   0.71019   0.00000  Uiso   1.00
C345   C     0.17247   0.44350   0.31065   0.00000  Uiso   1.00
C346   C     0.19037   0.44212   0.36677   0.00000  Uiso   1.00
H381   H     0.16004   0.42392   0.39096   0.00000  Uiso   1.00
H382   H     0.22653   0.41934   0.37000   0.00000  Uiso   1.00
H383   H     0.19776   0.48152   0.38179   0.00000  Uiso   1.00
H384   H     0.13333   0.46044   0.30817   0.00000  Uiso   1.00
H385   H     0.16728   0.40317   0.29751   0.00000  Uiso   1.00
C347   C     0.80621   0.55660   0.66933   0.00000  Uiso   1.00
C348   C     0.86286   0.55594   0.68524   0.00000  Uiso   1.00
H386   H     0.86651   0.57050   0.72531   0.00000  Uiso   1.00
H387   H     0.87892   0.51627   0.68375   0.00000  Uiso   1.00
H388   H     0.88583   0.58105   0.65916   0.00000  Uiso   1.00
H389   H     0.80174   0.54104   0.62977   0.00000  Uiso   1.00
H390   H     0.79409   0.59740   0.66585   0.00000  Uiso   1.00
C349   C     0.16569   0.44223   0.69856   0.00000  Uiso   1.00
C350   C     0.11976   0.43553   0.73507   0.00000  Uiso   1.00
H391   H     0.13026   0.41016   0.76797   0.00000  Uiso   1.00
H392   H     0.10670   0.47327   0.75056   0.00000  Uiso   1.00
H393   H     0.08714   0.41759   0.71399   0.00000  Uiso   1.00
H394   H     0.15275   0.46100   0.66240   0.00000  Uiso   1.00
H395   H     0.17862   0.40350   0.68557   0.00000  Uiso   1.00
C351   C     0.81625   0.55763   0.32256   0.00000  Uiso   1.00
C352   C     0.78807   0.56654   0.37363   0.00000  Uiso   1.00
H396   H     0.75300   0.59033   0.36744   0.00000  Uiso   1.00
H397   H     0.77658   0.52928   0.39146   0.00000  Uiso   1.00
H398   H     0.81387   0.58729   0.40080   0.00000  Uiso   1.00
H399   H     0.85347   0.53807   0.33002   0.00000  Uiso   1.00
H400   H     0.82772   0.59562   0.30642   0.00000  Uiso   1.00
C353   C     0.44371   0.31212   0.17360   0.00000  Uiso   1.00
C354   C     0.44114   0.36776   0.19276   0.00000  Uiso   1.00
H401   H     0.48001   0.38297   0.20213   0.00000  Uiso   1.00
H402   H     0.42406   0.39243   0.16221   0.00000  Uiso   1.00
H403   H     0.41688   0.36993   0.22807   0.00000  Uiso   1.00
H404   H     0.46124   0.31079   0.13461   0.00000  Uiso   1.00
H405   H     0.40374   0.29832   0.16760   0.00000  Uiso   1.00
C355   C     0.55674   0.67048   0.80823   0.00000  Uiso   1.00
C356   C     0.55597   0.68628   0.86501   0.00000  Uiso   1.00
H406   H     0.51589   0.69100   0.87936   0.00000  Uiso   1.00
H407   H     0.57523   0.65614   0.88856   0.00000  Uiso   1.00
H408   H     0.57674   0.72343   0.87006   0.00000  Uiso   1.00
H409   H     0.54095   0.63101   0.80381   0.00000  Uiso   1.00
H410   H     0.59757   0.66659   0.79615   0.00000  Uiso   1.00
C357   C     0.44267   0.81478   0.32402   0.00000  Uiso   1.00
C358   C     0.43905   0.78615   0.37550   0.00000  Uiso   1.00
H411   H     0.41301   0.75232   0.37185   0.00000  Uiso   1.00
H412   H     0.47757   0.77253   0.38838   0.00000  Uiso   1.00
H413   H     0.42347   0.81247   0.40542   0.00000  Uiso   1.00
H414   H     0.46043   0.85316   0.33007   0.00000  Uiso   1.00
H415   H     0.40303   0.82401   0.31076   0.00000  Uiso   1.00
C359   C     0.55769   0.31432   0.82419   0.00000  Uiso   1.00
C360   C     0.56850   0.36760   0.80125   0.00000  Uiso   1.00
H416   H     0.59246   0.36418   0.76586   0.00000  Uiso   1.00
H417   H     0.53191   0.38757   0.79136   0.00000  Uiso   1.00
H418   H     0.58981   0.39141   0.82978   0.00000  Uiso   1.00
H419   H     0.53771   0.31865   0.86171   0.00000  Uiso   1.00
H420   H     0.59494   0.29606   0.83448   0.00000  Uiso   1.00
C361   C     0.44336   0.66022   0.79144   0.00000  Uiso   1.00
C362   C     0.44387   0.61831   0.74991   0.00000  Uiso   1.00
H421   H     0.42801   0.58190   0.76575   0.00000  Uiso   1.00
H422   H     0.42001   0.63037   0.71643   0.00000  Uiso   1.00
H423   H     0.48373   0.61055   0.73621   0.00000  Uiso   1.00
H424   H     0.45958   0.64473   0.82783   0.00000  Uiso   1.00
H425   H     0.40274   0.66906   0.80163   0.00000  Uiso   1.00
C363   C     0.55832   0.30333   0.16715   0.00000  Uiso   1.00
C364   C     0.56502   0.26757   0.12074   0.00000  Uiso   1.00
H426   H     0.58706   0.23254   0.13175   0.00000  Uiso   1.00
H427   H     0.52699   0.25554   0.10523   0.00000  Uiso   1.00
H428   H     0.58658   0.28802   0.08978   0.00000  Uiso   1.00
H429   H     0.53997   0.33969   0.15430   0.00000  Uiso   1.00
H430   H     0.59705   0.31586   0.18037   0.00000  Uiso   1.00
C365   C     0.44232   0.31135   0.82742   0.00000  Uiso   1.00
C366   C     0.43401   0.28021   0.87689   0.00000  Uiso   1.00
H431   H     0.47126   0.26615   0.89264   0.00000  Uiso   1.00
H432   H     0.41520   0.30491   0.90641   0.00000  Uiso   1.00
H433   H     0.40875   0.24649   0.86930   0.00000  Uiso   1.00
H434   H     0.46172   0.34831   0.83660   0.00000  Uiso   1.00
H435   H     0.40411   0.32358   0.81245   0.00000  Uiso   1.00
C367   C     0.55707   0.82362   0.31511   0.00000  Uiso   1.00
C368   C     0.56045   0.87523   0.28674   0.00000  Uiso   1.00
H436   H     0.58686   0.87197   0.25310   0.00000  Uiso   1.00
H437   H     0.52195   0.88787   0.27285   0.00000  Uiso   1.00
H438   H     0.57543   0.90514   0.31336   0.00000  Uiso   1.00
H439   H     0.53924   0.82944   0.35353   0.00000  Uiso   1.00
H440   H     0.59675   0.81039   0.32421   0.00000  Uiso   1.00
C369   C     0.31801   0.82082   0.55749   0.00000  Uiso   1.00
C370   C     0.37051   0.79579   0.56706   0.00000  Uiso   1.00
H441   H     0.38940   0.78532   0.53003   0.00000  Uiso   1.00
H442   H     0.39582   0.82325   0.58805   0.00000  Uiso   1.00
H443   H     0.36613   0.76043   0.59092   0.00000  Uiso   1.00
H444   H     0.32328   0.85842   0.53784   0.00000  Uiso   1.00
H445   H     0.30090   0.83128   0.59528   0.00000  Uiso   1.00
C371   C     0.70103   0.16446   0.44273   0.00000  Uiso   1.00
C372   C     0.73878   0.11923   0.43937   0.00000  Uiso   1.00
H446   H     0.75390   0.10877   0.47807   0.00000  Uiso   1.00
H447   H     0.71895   0.08499   0.42316   0.00000  Uiso   1.00
H448   H     0.77181   0.12928   0.41396   0.00000  Uiso   1.00
H449   H     0.66437   0.15135   0.46039   0.00000  Uiso   1.00
H450   H     0.68954   0.17573   0.40302   0.00000  Uiso   1.00
C373   C     0.66979   0.80603   0.55788   0.00000  Uiso   1.00
C374   C     0.68823   0.86108   0.56818   0.00000  Uiso   1.00
H451   H     0.69585   0.88159   0.53128   0.00000  Uiso   1.00
H452   H     0.65815   0.88258   0.58988   0.00000  Uiso   1.00
H453   H     0.72408   0.86070   0.59159   0.00000  Uiso   1.00
H454   H     0.63197   0.80728   0.53821   0.00000  Uiso   1.00
H455   H     0.66107   0.78718   0.59527   0.00000  Uiso   1.00
C375   C     0.18926   0.32737   0.44343   0.00000  Uiso   1.00
C376   C     0.13358   0.30858   0.43973   0.00000  Uiso   1.00
H456   H     0.13170   0.27316   0.41571   0.00000  Uiso   1.00
H457   H     0.11741   0.29958   0.47840   0.00000  Uiso   1.00
H458   H     0.10956   0.33918   0.42183   0.00000  Uiso   1.00
H459   H     0.19044   0.36614   0.46134   0.00000  Uiso   1.00
H460   H     0.20391   0.33387   0.40376   0.00000  Uiso   1.00
C377   C     0.69075   0.17157   0.55717   0.00000  Uiso   1.00
C378   C     0.63476   0.18947   0.56073   0.00000  Uiso   1.00
H461   H     0.61125   0.15886   0.57935   0.00000  Uiso   1.00
H462   H     0.63223   0.22529   0.58411   0.00000  Uiso   1.00
H463   H     0.61850   0.19736   0.52189   0.00000  Uiso   1.00
H464   H     0.69252   0.13269   0.53955   0.00000  Uiso   1.00
H465   H     0.70536   0.16538   0.59688   0.00000  Uiso   1.00
C379   C     0.31448   0.82427   0.44206   0.00000  Uiso   1.00
C380   C     0.28518   0.87465   0.43301   0.00000  Uiso   1.00
H466   H     0.25070   0.86778   0.40862   0.00000  Uiso   1.00
H467   H     0.27257   0.89187   0.47017   0.00000  Uiso   1.00
H468   H     0.31064   0.90267   0.41287   0.00000  Uiso   1.00
H469   H     0.35148   0.83258   0.46165   0.00000  Uiso   1.00
H470   H     0.32641   0.80841   0.40410   0.00000  Uiso   1.00
C381   C     0.19709   0.33303   0.55823   0.00000  Uiso   1.00
C382   C     0.23290   0.37938   0.56504   0.00000  Uiso   1.00
H471   H     0.26759   0.36837   0.58755   0.00000  Uiso   1.00
H472   H     0.24549   0.39474   0.52704   0.00000  Uiso   1.00
H473   H     0.21228   0.41045   0.58619   0.00000  Uiso   1.00
H474   H     0.16084   0.34590   0.53975   0.00000  Uiso   1.00
H475   H     0.18434   0.31972   0.59694   0.00000  Uiso   1.00
C383   C     0.66484   0.79947   0.44280   0.00000  Uiso   1.00
C384   C     0.61907   0.76254   0.43832   0.00000  Uiso   1.00
H476   H     0.62913   0.72945   0.41305   0.00000  Uiso   1.00
H477   H     0.60742   0.74738   0.47670   0.00000  Uiso   1.00
H478   H     0.58565   0.78310   0.42125   0.00000  Uiso   1.00
H479   H     0.65246   0.83619   0.46091   0.00000  Uiso   1.00
H480   H     0.67664   0.81139   0.40335   0.00000  Uiso   1.00
loop_
_geom_bond_atom_site_label_1
_geom_bond_atom_site_label_2
_geom_bond_distance
_geom_bond_site_symmetry_2
_ccdc_geom_bond_type
C1     O89     1.276   .     A
C1     O9      1.276   .     A
C1     C154    1.462   .     S
C2     O10     1.274   .     A
C2     O90     1.276   .     A
C2     C153    1.457   .     S
C3     O11     1.273   .     A
C3     O95     1.273   .     A
C3     C168    1.450   .     S
C4     O96     1.272   .     A
C4     C167    1.453   .     S
C4     O12     1.275   .     A
C5     C155    1.460   .     S
C5     O93     1.275   .     A
C5     O13     1.274   .     A
C6     O14     1.273   .     A
C6     O94     1.273   .     A
C6     C156    1.455   .     S
C7     O91     1.273   .     A
C7     C161    1.452   .     S
C7     O15     1.273   .     A
C8     C162    1.457   .     S
C8     O92     1.274   .     A
C8     O16     1.274   .     A
C9     C158    1.455   .     S
C9     O81     1.275   .     A
C9     O17     1.274   .     A
C10    O18     1.273   .     A
C10    O82     1.273   .     A
C10    C157    1.451   .     S
C11    C165    1.454   .     S
C11    O19     1.273   .     A
C11    O87     1.274   .     A
C12    O88     1.274   .     A
C12    C166    1.457   .     S
C12    O20     1.275   .     A
C13    O21     1.274   .     A
C13    C159    1.457   .     S
C13    O85     1.273   .     A
C14    O86     1.274   .     A
C14    O22     1.271   .     A
C14    C160    1.453   .     S
C15    O23     1.276   .     A
C15    O83     1.273   .     A
C15    C164    1.458   .     S
C16    O84     1.276   .     A
C16    O24     1.275   .     A
C16    C163    1.461   .     S
C17    O103    1.272   .     A
C17    O25     1.273   .     A
C17    C152    1.451   .     S
C18    O26     1.274   .     A
C18    O104    1.273   .     A
C18    C151    1.456   .     S
C19    O101    1.273   .     A
C19    C145    1.451   .     S
C19    O27     1.274   .     A
C20    O102    1.275   .     A
C20    O28     1.274   .     A
C20    C146    1.453   .     S
C21    O29     1.274   .     A
C21    C149    1.457   .     S
C21    O99     1.276   .     A
C22    C150    1.460   .     S
C22    O30     1.276   .     A
C22    O100    1.276   .     A
C23    O31     1.273   .     A
C23    O97     1.274   .     A
C23    C148    1.456   .     S
C24    C147    1.459   .     S
C24    O32     1.276   .     A
C24    O98     1.273   .     A
C25    O33     1.275   .     A
C25    O76     1.275   .     A
C25    C182    1.457   .     S
C26    O75     1.272   .     A
C26    O34     1.275   .     A
C26    C181    1.453   .     S
C27    O35     1.272   .     A
C27    C188    1.451   .     S
C27    O54     1.274   .     A
C28    O36     1.275   .     A
C28    C187    1.457   .     S
C28    O53     1.275   .     A
C29    C179    1.489   .     S
C29    O37     1.289   .     A
C29    O68     1.280   .     A
C30    O67     1.272   .     A
C30    C180    1.450   .     S
C30    O38     1.272   .     A
C31    O39     1.275   .     A
C31    C185    1.457   .     S
C31    O58     1.274   .     A
C32    C186    1.461   .     S
C32    O40     1.275   .     A
C32    O57     1.275   .     A
C33    O72     1.275   .     A
C33    O41     1.276   .     A
C33    C178    1.461   .     S
C34    C177    1.455   .     S
C34    O71     1.274   .     A
C34    O42     1.274   .     A
C35    O43     1.273   .     A
C35    C189    1.450   .     S
C35    O50     1.272   .     A
C36    O49     1.274   .     A
C36    O44     1.273   .     A
C36    C190    1.453   .     S
C37    O80     1.275   .     A
C37    C183    1.462   .     S
C37    O45     1.275   .     A
C38    O79     1.287   .     A
C38    C184    1.480   .     S
C38    O46     1.274   .     A
C39    O47     1.273   .     A
C39    C192    1.452   .     S
C39    O62     1.274   .     A
C40    O48     1.274   .     A
C40    O61     1.277   .     A
C40    C191    1.461   .     S
C41    O51     1.273   .     A
C41    O70     1.272   .     A
C41    C172    1.452   .     S
C42    O69     1.274   .     A
C42    C171    1.459   .     S
C42    O52     1.275   .     A
C43    O74     1.274   .     A
C43    O55     1.274   .     A
C43    C169    1.456   .     S
C44    O73     1.277   .     A
C44    O56     1.275   .     A
C44    C170    1.460   .     S
C45    C173    1.451   .     S
C45    O66     1.274   .     A
C45    O59     1.272   .     A
C46    C174    1.456   .     S
C46    O65     1.275   .     A
C46    O60     1.275   .     A
C47    O78     1.272   .     A
C47    C176    1.451   .     S
C47    O63     1.272   .     A
C48    C175    1.458   .     S
C48    O77     1.275   .     A
C48    O64     1.273   .     A
C49    C193    1.524   .     S
C49    C150    1.416   .     A
C49    C54     1.413   .     A
C50    C53     1.413   .     A
C50    C149    1.414   .     A
C50    C195    1.526   .     S
C51    C152    1.414   .     A
C51    C197    1.532   .     S
C51    C56     1.413   .     A
C52    C55     1.414   .     A
C52    C199    1.529   .     S
C52    C151    1.415   .     A
C53    C146    1.415   .     A
C53    C201    1.529   .     S
C54    C203    1.531   .     S
C54    C145    1.414   .     A
C55    C205    1.529   .     S
C55    C148    1.415   .     A
C56    C147    1.416   .     A
C56    C207    1.525   .     S
C57    C209    1.529   .     S
C57    C62     1.413   .     A
C57    C158    1.414   .     A
C58    C61     1.414   .     A
C58    C211    1.533   .     S
C58    C157    1.413   .     A
C59    C160    1.413   .     A
C59    C213    1.533   .     S
C59    C64     1.414   .     A
C60    C63     1.415   .     A
C60    C215    1.527   .     S
C60    C159    1.415   .     A
C61    C217    1.523   .     S
C61    C154    1.416   .     A
C62    C219    1.526   .     S
C62    C153    1.414   .     A
C63    C221    1.529   .     S
C63    C156    1.414   .     A
C64    C223    1.523   .     S
C64    C155    1.416   .     A
C65    C166    1.415   .     A
C65    C70     1.413   .     A
C65    C225    1.527   .     S
C66    C165    1.415   .     A
C66    C69     1.413   .     A
C66    C227    1.529   .     S
C67    C72     1.413   .     A
C67    C168    1.414   .     A
C67    C229    1.533   .     S
C68    C71     1.413   .     A
C68    C231    1.532   .     S
C68    C167    1.416   .     A
C69    C162    1.415   .     A
C69    C233    1.527   .     S
C70    C235    1.530   .     S
C70    C161    1.414   .     A
C71    C237    1.527   .     S
C71    C164    1.416   .     A
C72    C163    1.416   .     A
C72    C239    1.524   .     S
C73    C174    1.415   .     A
C73    C241    1.528   .     S
C73    C78     1.414   1_565 S
C74    C243    1.532   .     S
C74    C173    1.414   .     A
C74    C77     1.414   1_545 S
C75    C176    1.414   .     A
C75    C245    1.531   .     S
C75    C80     1.413   1_565 S
C76    C247    1.523   .     S
C76    C175    1.416   .     A
C76    C79     1.414   1_545 S
C77    C170    1.417   .     A
C77    C249    1.526   .     S
C77    C74     1.414   1_565 S
C78    C251    1.529   .     S
C78    C169    1.415   .     A
C78    C73     1.414   1_545 S
C79    C172    1.414   .     A
C79    C253    1.532   .     S
C79    C76     1.414   1_565 S
C80    C255    1.524   .     S
C80    C171    1.416   .     A
C80    C75     1.413   1_545 S
C81    C257    1.525   .     S
C81    C175    1.413   .     A
C81    C86     1.412   1_545 S
C82    C259    1.531   .     S
C82    C176    1.414   .     A
C82    C85     1.413   1_565 S
C83    C173    1.414   .     A
C83    C261    1.532   .     S
C83    C88     1.414   1_545 S
C84    C174    1.415   .     A
C84    C263    1.528   .     S
C84    C87     1.414   1_565 S
C85    C171    1.415   .     A
C85    C265    1.524   .     S
C85    C82     1.413   1_545 S
C86    C267    1.529   .     S
C86    C172    1.413   .     A
C86    C81     1.412   1_565 S
C87    C169    1.415   .     A
C87    C269    1.529   .     S
C87    C84     1.414   1_545 S
C88    C170    1.416   .     A
C88    C271    1.526   .     S
C88    C83     1.414   1_565 S
C89    C182    1.415   .     A
C89    C273    1.528   .     S
C89    C94     1.414   1_655 S
C90    C181    1.415   .     A
C90    C275    1.529   .     S
C90    C93     1.415   1_455 S
C91    C277    1.528   .     S
C91    C184    1.404   .     A
C91    C96     1.410   1_655 S
C92    C279    1.523   .     S
C92    C183    1.416   .     A
C92    C95     1.414   1_455 S
C93    C281    1.527   .     S
C93    C178    1.416   .     A
C93    C90     1.415   1_655 S
C94    C283    1.529   .     S
C94    C177    1.414   .     A
C94    C89     1.414   1_455 S
C95    C180    1.413   .     A
C95    C285    1.533   .     S
C95    C92     1.414   1_655 S
C96    C287    1.531   .     S
C96    C179    1.437   .     A
C96    C91     1.410   1_455 S
C97    C183    1.416   .     A
C97    C289    1.523   .     S
C97    C102    1.414   1_455 S
C98    C291    1.528   .     S
C98    C184    1.409   .     A
C98    C101    1.406   1_655 S
C99    C293    1.533   .     S
C99    C181    1.413   .     A
C99    C104    1.414   1_455 S
C100   C295    1.527   .     S
C100   C182    1.416   .     A
C100   C103    1.415   1_655 S
C101   C297    1.530   .     S
C101   C179    1.426   .     A
C101   C98     1.406   1_455 S
C102   C180    1.413   .     A
C102   C299    1.533   .     S
C102   C97     1.414   1_655 S
C103   C301    1.530   .     S
C103   C177    1.414   .     A
C103   C100    1.415   1_455 S
C104   C303    1.523   .     S
C104   C178    1.416   .     A
C104   C99     1.414   1_655 S
C105   C305    1.532   .     S
C105   C190    1.414   .     A
C105   C110    1.413   1_554 S
C106   C307    1.533   .     S
C106   C189    1.414   .     A
C106   C109    1.413   1_556 S
C107   C192    1.414   .     A
C107   C309    1.530   .     S
C107   C112    1.414   1_554 S
C108   C191    1.416   .     A
C108   C311    1.523   .     S
C108   C111    1.412   1_556 S
C109   C313    1.524   .     S
C109   C186    1.416   .     A
C109   C106    1.413   1_554 S
C110   C185    1.416   .     A
C110   C315    1.526   .     S
C110   C105    1.413   1_556 S
C111   C317    1.531   .     S
C111   C188    1.414   .     A
C111   C108    1.412   1_554 S
C112   C319    1.527   .     S
C112   C187    1.415   .     A
C112   C107    1.414   1_556 S
C113   C321    1.526   .     S
C113   C191    1.415   .     A
C113   C118    1.414   1_556 S
C114   C192    1.414   .     A
C114   C323    1.530   .     S
C114   C117    1.413   1_554 S
C115   C325    1.532   .     S
C115   C189    1.414   .     A
C115   C120    1.413   1_556 S
C116   C327    1.529   .     S
C116   C190    1.416   .     A
C116   C119    1.415   1_554 S
C117   C329    1.526   .     S
C117   C187    1.415   .     A
C117   C114    1.413   1_556 S
C118   C188    1.415   .     A
C118   C331    1.530   .     S
C118   C113    1.414   1_554 S
C119   C333    1.531   .     S
C119   C185    1.416   .     A
C119   C116    1.415   1_556 S
C120   C186    1.416   .     A
C120   C335    1.524   .     S
C120   C115    1.413   1_554 S
C121   C337    1.529   .     S
C121   C146    1.415   .     A
C121   C126    1.412   .     A
C122   C339    1.532   .     S
C122   C145    1.414   .     A
C122   C125    1.413   .     A
C123   C341    1.529   .     S
C123   C148    1.415   .     A
C123   C128    1.414   .     A
C124   C147    1.417   .     A
C124   C127    1.414   .     A
C124   C343    1.528   .     S
C125   C150    1.416   .     A
C125   C345    1.524   .     S
C126   C149    1.415   .     A
C126   C347    1.526   .     S
C127   C349    1.531   .     S
C127   C152    1.415   .     A
C128   C351    1.529   .     S
C128   C151    1.415   .     A
C129   C154    1.416   .     A
C129   C353    1.523   .     S
C129   C134    1.414   .     A
C130   C133    1.414   .     A
C130   C355    1.527   .     S
C130   C153    1.415   .     A
C131   C156    1.414   .     A
C131   C136    1.414   .     A
C131   C357    1.529   .     S
C132   C155    1.416   .     A
C132   C359    1.527   .     S
C132   C135    1.415   .     A
C133   C158    1.415   .     A
C133   C361    1.529   .     S
C134   C363    1.533   .     S
C134   C157    1.413   .     A
C135   C365    1.529   .     S
C135   C160    1.415   .     A
C136   C159    1.415   .     A
C136   C367    1.528   .     S
C137   C369    1.527   .     S
C137   C142    1.414   .     A
C137   C162    1.415   .     A
C138   C141    1.413   .     A
C138   C371    1.530   .     S
C138   C161    1.414   .     A
C139   C164    1.415   .     A
C139   C373    1.528   .     S
C139   C144    1.414   .     A
C140   C163    1.416   .     A
C140   C375    1.524   .     S
C140   C143    1.413   .     A
C141   C166    1.415   .     A
C141   C377    1.526   .     S
C142   C379    1.529   .     S
C142   C165    1.415   .     A
C143   C381    1.533   .     S
C143   C168    1.414   .     A
C144   C167    1.416   .     A
C144   C383    1.529   .     S
O1     Zn1     1.947   .     S
O1     Zn13    1.947   .     S
O1     Zn24    1.946   .     S
O1     Zn29    1.949   .     S
O2     Zn30    1.949   .     S
O2     Zn14    1.947   .     S
O2     Zn23    1.946   .     S
O2     Zn2     1.947   .     S
O3     Zn3     1.947   .     S
O3     Zn19    1.949   .     S
O3     Zn31    1.946   .     S
O3     Zn11    1.947   .     S
O4     Zn12    1.947   .     S
O4     Zn32    1.946   .     S
O4     Zn20    1.949   .     S
O4     Zn4     1.947   .     S
O5     Zn25    1.947   .     S
O5     Zn16    1.946   .     S
O5     Zn5     1.949   .     S
O5     Zn17    1.947   .     S
O6     Zn18    1.947   .     S
O6     Zn6     1.949   .     S
O6     Zn26    1.947   .     S
O6     Zn15    1.946   .     S
O7     Zn22    1.947   .     S
O7     Zn27    1.947   .     S
O7     Zn10    1.949   .     S
O7     Zn7     1.946   .     S
O8     Zn28    1.947   .     S
O8     Zn8     1.946   .     S
O8     Zn9     1.949   .     S
O8     Zn21    1.947   .     S
O9     Zn29    1.936   .     S
O10    Zn30    1.936   .     S
O11    Zn31    1.936   .     S
O12    Zn32    1.936   .     S
O13    Zn25    1.936   .     S
O14    Zn26    1.936   .     S
O15    Zn27    1.935   .     S
O16    Zn28    1.935   .     S
O17    Zn28    1.937   .     S
O18    Zn27    1.937   .     S
O19    Zn26    1.935   .     S
O20    Zn25    1.935   .     S
O21    Zn32    1.937   .     S
O22    Zn31    1.937   .     S
O23    Zn30    1.934   .     S
O24    Zn29    1.934   .     S
O25    Zn31    1.936   .     S
O26    Zn32    1.936   .     S
O27    Zn26    1.936   .     S
O28    Zn25    1.936   .     S
O29    Zn30    1.935   .     S
O30    Zn29    1.935   .     S
O31    Zn27    1.935   .     S
O32    Zn28    1.935   .     S
O33    Zn20    1.936   .     S
O34    Zn19    1.936   .     S
O35    Zn15    1.936   .     S
O36    Zn16    1.936   .     S
O37    Zn21    1.936   .     S
O38    Zn22    1.936   .     S
O39    Zn14    1.935   .     S
O40    Zn13    1.935   .     S
O41    Zn17    1.937   .     S
O42    Zn18    1.937   .     S
O43    Zn11    1.935   .     S
O44    Zn12    1.935   .     S
O45    Zn24    1.937   .     S
O46    Zn23    1.937   .     S
O47    Zn10    1.934   .     S
O48    Zn9     1.934   .     S
O49    Zn4     1.935   .     S
O50    Zn3     1.935   .     S
O51    Zn23    1.936   .     S
O52    Zn24    1.936   .     S
O53    Zn5     1.934   .     S
O54    Zn6     1.934   .     S
O55    Zn22    1.936   .     S
O56    Zn21    1.936   .     S
O57    Zn1     1.935   .     S
O58    Zn2     1.935   .     S
O59    Zn19    1.935   .     S
O60    Zn20    1.935   .     S
O61    Zn8     1.936   .     S
O62    Zn7     1.936   .     S
O63    Zn18    1.935   .     S
O64    Zn17    1.935   .     S
O65    Zn12    1.936   .     S
O66    Zn11    1.936   .     S
O67    Zn7     1.937   .     S
O68    Zn8     1.937   .     S
O69    Zn13    1.935   .     S
O70    Zn14    1.935   .     S
O71    Zn6     1.936   .     S
O72    Zn5     1.936   .     S
O73    Zn9     1.935   .     S
O74    Zn10    1.935   .     S
O75    Zn3     1.937   .     S
O76    Zn4     1.937   .     S
O77    Zn16    1.936   .     S
O78    Zn15    1.936   .     S
O79    Zn2     1.936   .     S
O80    Zn1     1.936   .     S
O81    Zn9     1.936   .     S
O82    Zn10    1.936   .     S
O83    Zn23    1.936   .     S
O84    Zn24    1.936   .     S
O85    Zn12    1.936   .     S
O86    Zn11    1.936   .     S
O87    Zn18    1.935   .     S
O88    Zn17    1.935   .     S
O89    Zn13    1.937   .     S
O90    Zn14    1.937   .     S
O91    Zn22    1.935   .     S
O92    Zn21    1.935   .     S
O93    Zn16    1.937   .     S
O94    Zn15    1.937   .     S
O95    Zn19    1.934   .     S
O96    Zn20    1.934   .     S
O97    Zn7     1.936   .     S
O98    Zn8     1.936   .     S
O99    Zn2     1.936   .     S
O100   Zn1     1.936   .     S
O101   Zn6     1.935   .     S
O102   Zn5     1.935   .     S
O103   Zn3     1.935   .     S
O104   Zn4     1.935   .     S
C193   H4      1.107   .     S
C193   C194    1.526   .     S
C193   H5      1.107   .     S
C194   H1      1.110   .     S
C194   H2      1.109   .     S
C194   H3      1.109   .     S
C195   C196    1.527   .     S
C195   H10     1.107   .     S
C195   H9      1.107   .     S
C196   H8      1.109   .     S
C196   H7      1.110   .     S
C196   H6      1.111   .     S
C197   H15     1.109   .     S
C197   C198    1.528   .     S
C197   H14     1.107   .     S
C198   H12     1.110   .     S
C198   H11     1.110   .     S
C198   H13     1.109   .     S
C199   C200    1.528   .     S
C199   H19     1.106   .     S
C199   H20     1.109   .     S
C200   H18     1.110   .     S
C200   H16     1.110   .     S
C200   H17     1.110   .     S
C201   C202    1.529   .     S
C201   H24     1.107   .     S
C201   H25     1.109   .     S
C202   H23     1.110   .     S
C202   H22     1.107   .     S
C202   H21     1.110   .     S
C203   C204    1.528   .     S
C203   H29     1.106   .     S
C203   H30     1.110   .     S
C204   H26     1.110   .     S
C204   H28     1.109   .     S
C204   H27     1.110   .     S
C205   H34     1.107   .     S
C205   H35     1.109   .     S
C205   C206    1.527   .     S
C206   H33     1.110   .     S
C206   H31     1.110   .     S
C206   H32     1.110   .     S
C207   C208    1.525   .     S
C207   H39     1.105   .     S
C207   H40     1.108   .     S
C208   H38     1.109   .     S
C208   H36     1.110   .     S
C208   H37     1.110   .     S
C209   H44     1.107   .     S
C209   H45     1.109   .     S
C209   C210    1.529   .     S
C210   H42     1.110   .     S
C210   H43     1.107   .     S
C210   H41     1.110   .     S
C211   H49     1.106   .     S
C211   C212    1.528   .     S
C211   H50     1.110   .     S
C212   H46     1.109   .     S
C212   H48     1.111   .     S
C212   H47     1.110   .     S
C213   C214    1.528   .     S
C213   H55     1.110   .     S
C213   H54     1.106   .     S
C214   H51     1.109   .     S
C214   H53     1.110   .     S
C214   H52     1.110   .     S
C215   H60     1.109   .     S
C215   H59     1.107   .     S
C215   C216    1.527   .     S
C216   H58     1.108   .     S
C216   H56     1.110   .     S
C216   H57     1.110   .     S
C217   H65     1.107   .     S
C217   C218    1.526   .     S
C217   H64     1.107   .     S
C218   H63     1.110   .     S
C218   H62     1.109   .     S
C218   H61     1.109   .     S
C219   C220    1.526   .     S
C219   H69     1.105   .     S
C219   H70     1.108   .     S
C220   H68     1.109   .     S
C220   H66     1.110   .     S
C220   H67     1.110   .     S
C221   C222    1.527   .     S
C221   H74     1.107   .     S
C221   H75     1.109   .     S
C222   H73     1.109   .     S
C222   H71     1.110   .     S
C222   H72     1.110   .     S
C223   C224    1.526   .     S
C223   H80     1.108   .     S
C223   H79     1.107   .     S
C224   H77     1.109   .     S
C224   H78     1.109   .     S
C224   H76     1.110   .     S
C225   H85     1.108   .     S
C225   H84     1.106   .     S
C225   C226    1.525   .     S
C226   H81     1.110   .     S
C226   H82     1.110   .     S
C226   H83     1.109   .     S
C227   C228    1.528   .     S
C227   H90     1.109   .     S
C227   H89     1.106   .     S
C228   H87     1.110   .     S
C228   H86     1.109   .     S
C228   H88     1.110   .     S
C229   H95     1.110   .     S
C229   C230    1.528   .     S
C229   H94     1.106   .     S
C230   H91     1.109   .     S
C230   H93     1.110   .     S
C230   H92     1.110   .     S
C231   H99     1.107   .     S
C231   H100    1.110   .     S
C231   C232    1.529   .     S
C232   H96     1.109   .     S
C232   H98     1.109   .     S
C232   H97     1.110   .     S
C233   H105    1.107   .     S
C233   C234    1.527   .     S
C233   H104    1.107   .     S
C234   H101    1.110   .     S
C234   H103    1.109   .     S
C234   H102    1.110   .     S
C235   H109    1.107   .     S
C235   C236    1.529   .     S
C235   H110    1.109   .     S
C236   H107    1.110   .     S
C236   H106    1.110   .     S
C236   H108    1.108   .     S
C237   H115    1.108   .     S
C237   H114    1.107   .     S
C237   C238    1.525   .     S
C238   H111    1.110   .     S
C238   H113    1.108   .     S
C238   H112    1.109   .     S
C239   C240    1.526   .     S
C239   H119    1.107   .     S
C239   H120    1.107   .     S
C240   H117    1.109   .     S
C240   H118    1.109   .     S
C240   H116    1.110   .     S
C241   C242    1.527   .     S
C241   H125    1.109   .     S
C241   H124    1.106   .     S
C242   H121    1.110   .     S
C242   H122    1.110   .     S
C242   H123    1.110   .     S
C243   C244    1.529   .     S
C243   H130    1.110   .     S
C243   H129    1.106   .     S
C244   H127    1.110   .     S
C244   H126    1.109   .     S
C244   H128    1.110   .     S
C245   H135    1.109   .     S
C245   H134    1.106   .     S
C245   C246    1.528   .     S
C246   H131    1.110   .     S
C246   H133    1.110   .     S
C246   H132    1.109   .     S
C247   H139    1.107   .     S
C247   C248    1.526   .     S
C247   H140    1.107   .     S
C248   H138    1.109   .     S
C248   H136    1.110   .     S
C248   H137    1.109   .     S
C249   H144    1.107   .     S
C249   H145    1.109   .     S
C249   C250    1.525   .     S
C250   H142    1.109   .     S
C250   H143    1.109   .     S
C250   H141    1.110   .     S
C251   H149    1.107   .     S
C251   C252    1.527   .     S
C251   H150    1.109   .     S
C252   H147    1.110   .     S
C252   H148    1.110   .     S
C252   H146    1.110   .     S
C253   H154    1.107   .     S
C253   H155    1.109   .     S
C253   C254    1.528   .     S
C254   H151    1.110   .     S
C254   H152    1.110   .     S
C254   H153    1.110   .     S
C255   H160    1.107   .     S
C255   C256    1.526   .     S
C255   H159    1.107   .     S
C256   H158    1.109   .     S
C256   H156    1.110   .     S
C256   H157    1.109   .     S
C257   C258    1.527   .     S
C257   H164    1.106   .     S
C257   H165    1.107   .     S
C258   H162    1.109   .     S
C258   H161    1.111   .     S
C258   H163    1.109   .     S
C259   C260    1.528   .     S
C259   H170    1.110   .     S
C259   H169    1.106   .     S
C260   H168    1.109   .     S
C260   H167    1.110   .     S
C260   H166    1.110   .     S
C261   C262    1.528   .     S
C261   H174    1.107   .     S
C261   H175    1.110   .     S
C262   H171    1.110   .     S
C262   H172    1.110   .     S
C262   H173    1.110   .     S
C263   C264    1.527   .     S
C263   H179    1.106   .     S
C263   H180    1.109   .     S
C264   H178    1.110   .     S
C264   H177    1.110   .     S
C264   H176    1.110   .     S
C265   H184    1.107   .     S
C265   C266    1.526   .     S
C265   H185    1.107   .     S
C266   H181    1.110   .     S
C266   H183    1.109   .     S
C266   H182    1.109   .     S
C267   H190    1.109   .     S
C267   C268    1.529   .     S
C267   H189    1.107   .     S
C268   H186    1.110   .     S
C268   H188    1.106   .     S
C268   H187    1.110   .     S
C269   H195    1.109   .     S
C269   C270    1.527   .     S
C269   H194    1.107   .     S
C270   H191    1.110   .     S
C270   H193    1.110   .     S
C270   H192    1.110   .     S
C271   H199    1.106   .     S
C271   H200    1.108   .     S
C271   C272    1.525   .     S
C272   H197    1.110   .     S
C272   H198    1.109   .     S
C272   H196    1.110   .     S
C273   H205    1.109   .     S
C273   H204    1.107   .     S
C273   C274    1.527   .     S
C274   H201    1.110   .     S
C274   H203    1.108   .     S
C274   H202    1.110   .     S
C275   C276    1.528   .     S
C275   H210    1.110   .     S
C275   H209    1.108   .     S
C276   H208    1.110   .     S
C276   H206    1.110   .     S
C276   H207    1.110   .     S
C277   C278    1.533   .     S
C277   H214    1.109   .     S
C277   H215    1.106   .     S
C278   H211    1.111   .     S
C278   H213    1.110   .     S
C278   H212    1.107   1_655 S
H212   C278    1.107   1_455 S
C279   H219    1.107   .     S
C279   C280    1.526   .     S
C279   H220    1.107   .     S
C280   H217    1.109   .     S
C280   H216    1.110   .     S
C280   H218    1.109   .     S
C281   C282    1.527   .     S
C281   H225    1.108   .     S
C281   H224    1.106   .     S
C282   H223    1.111   .     S
C282   H221    1.110   .     S
C282   H222    1.110   .     S
C283   H230    1.109   .     S
C283   H229    1.107   .     S
C283   C284    1.527   .     S
C284   H226    1.110   .     S
C284   H227    1.110   .     S
C284   H228    1.109   .     S
C285   C286    1.528   .     S
C285   H234    1.106   .     S
C285   H235    1.110   .     S
C286   H232    1.110   .     S
C286   H233    1.111   .     S
C286   H231    1.109   .     S
C287   C288    1.526   .     S
C287   H239    1.104   .     S
C287   H240    1.107   .     S
C288   H237    1.111   .     S
C288   H238    1.110   .     S
C288   H236    1.107   .     S
C289   C290    1.526   .     S
C289   H244    1.107   .     S
C289   H245    1.107   .     S
C290   H242    1.109   .     S
C290   H241    1.110   .     S
C290   H243    1.109   .     S
C291   H250    1.108   .     S
C291   H249    1.102   .     S
C291   C292    1.531   .     S
C292   H248    1.111   .     S
C292   H247    1.111   .     S
C292   H246    1.107   1_655 S
H246   C292    1.107   1_455 S
C293   H255    1.110   .     S
C293   C294    1.528   .     S
C293   H254    1.106   .     S
C294   H252    1.110   .     S
C294   H251    1.109   .     S
C294   H253    1.110   .     S
C295   H259    1.107   .     S
C295   C296    1.527   .     S
C295   H260    1.109   .     S
C296   H258    1.108   .     S
C296   H257    1.110   .     S
C296   H256    1.110   .     S
C297   C298    1.533   .     S
C297   H265    1.111   .     S
C297   H264    1.112   .     S
C298   H261    1.111   .     S
C298   H263    1.108   .     S
C298   H262    1.107   .     S
C299   H270    1.110   .     S
C299   C300    1.528   .     S
C299   H269    1.106   .     S
C300   H267    1.110   .     S
C300   H266    1.109   .     S
C300   H268    1.111   .     S
C301   H274    1.107   .     S
C301   C302    1.527   .     S
C301   H275    1.109   .     S
C302   H273    1.109   .     S
C302   H271    1.110   .     S
C302   H272    1.110   .     S
C303   H280    1.108   .     S
C303   C304    1.526   .     S
C303   H279    1.107   .     S
C304   H277    1.109   .     S
C304   H278    1.110   .     S
C304   H276    1.109   .     S
C305   C306    1.529   .     S
C305   H285    1.109   .     S
C305   H284    1.107   .     S
C306   H281    1.110   .     S
C306   H282    1.110   .     S
C306   H283    1.109   .     S
C307   H290    1.110   .     S
C307   C308    1.528   .     S
C307   H289    1.106   .     S
C308   H288    1.110   .     S
C308   H286    1.109   .     S
C308   H287    1.110   .     S
C309   C310    1.528   .     S
C309   H294    1.107   .     S
C309   H295    1.109   .     S
C310   H291    1.110   .     S
C310   H293    1.108   .     S
C310   H292    1.110   .     S
C311   H300    1.106   .     S
C311   H299    1.107   .     S
C311   C312    1.523   .     S
C312   H297    1.109   .     S
C312   H298    1.110   .     S
C312   H296    1.107   .     S
C313   H304    1.107   .     S
C313   C314    1.526   .     S
C313   H305    1.107   .     S
C314   H303    1.109   .     S
C314   H301    1.110   .     S
C314   H302    1.109   .     S
C315   C316    1.526   .     S
C315   H309    1.107   .     S
C315   H310    1.107   .     S
C316   H306    1.110   .     S
C316   H308    1.108   .     S
C316   H307    1.109   .     S
C317   C318    1.528   .     S
C317   H314    1.106   .     S
C317   H315    1.110   .     S
C318   H312    1.110   .     S
C318   H311    1.109   .     S
C318   H313    1.110   .     S
C319   H319    1.106   .     S
C319   H320    1.108   .     S
C319   C320    1.526   .     S
C320   H317    1.110   .     S
C320   H318    1.109   .     S
C320   H316    1.110   .     S
C321   H325    1.107   .     S
C321   C322    1.527   .     S
C321   H324    1.106   .     S
C322   H322    1.110   .     S
C322   H323    1.111   .     S
C322   H321    1.110   .     S
C323   H329    1.107   .     S
C323   C324    1.529   .     S
C323   H330    1.110   .     S
C324   H328    1.108   .     S
C324   H327    1.110   .     S
C324   H326    1.110   .     S
C325   H335    1.110   .     S
C325   C326    1.528   .     S
C325   H334    1.106   .     S
C326   H331    1.109   .     S
C326   H333    1.110   .     S
C326   H332    1.110   .     S
C327   H339    1.108   .     S
C327   H340    1.110   .     S
C327   C328    1.529   .     S
C328   H336    1.110   .     S
C328   H338    1.108   .     S
C328   H337    1.110   .     S
C329   H345    1.107   .     S
C329   H344    1.107   .     S
C329   C330    1.526   .     S
C330   H341    1.111   .     S
C330   H342    1.110   .     S
C330   H343    1.109   .     S
C331   C332    1.528   .     S
C331   H349    1.107   .     S
C331   H350    1.110   .     S
C332   H347    1.110   .     S
C332   H348    1.110   .     S
C332   H346    1.109   .     S
C333   C334    1.527   .     S
C333   H355    1.108   .     S
C333   H354    1.106   .     S
C334   H352    1.110   .     S
C334   H351    1.110   .     S
C334   H353    1.110   .     S
C335   C336    1.526   .     S
C335   H359    1.107   .     S
C335   H360    1.107   .     S
C336   H356    1.110   .     S
C336   H357    1.109   .     S
C336   H358    1.109   .     S
C337   H364    1.107   .     S
C337   H365    1.109   .     S
C337   C338    1.529   .     S
C338   H362    1.107   .     S
C338   H363    1.110   .     S
C338   H361    1.110   .     S
C339   H370    1.109   .     S
C339   H369    1.106   .     S
C339   C340    1.528   .     S
C340   H367    1.109   .     S
C340   H366    1.110   .     S
C340   H368    1.110   .     S
C341   H374    1.107   .     S
C341   C342    1.527   .     S
C341   H375    1.109   .     S
C342   H371    1.110   .     S
C342   H372    1.110   .     S
C342   H373    1.110   .     S
C343   H379    1.107   .     S
C343   C344    1.525   .     S
C343   H380    1.109   .     S
C344   H376    1.110   .     S
C344   H377    1.110   .     S
C344   H378    1.109   .     S
C345   H385    1.107   .     S
C345   C346    1.526   .     S
C345   H384    1.107   .     S
C346   H381    1.109   .     S
C346   H383    1.109   .     S
C346   H382    1.110   .     S
C347   H389    1.107   .     S
C347   H390    1.106   .     S
C347   C348    1.526   .     S
C348   H388    1.110   .     S
C348   H387    1.109   .     S
C348   H386    1.108   .     S
C349   H394    1.107   .     S
C349   H395    1.110   .     S
C349   C350    1.529   .     S
C350   H392    1.110   .     S
C350   H391    1.109   .     S
C350   H393    1.109   .     S
C351   C352    1.528   .     S
C351   H399    1.106   .     S
C351   H400    1.109   .     S
C352   H396    1.110   .     S
C352   H397    1.110   .     S
C352   H398    1.110   .     S
C353   H404    1.107   .     S
C353   H405    1.107   .     S
C353   C354    1.526   .     S
C354   H402    1.109   .     S
C354   H403    1.110   .     S
C354   H401    1.109   .     S
C355   H409    1.107   .     S
C355   C356    1.527   .     S
C355   H410    1.107   .     S
C356   H408    1.111   .     S
C356   H407    1.109   .     S
C356   H406    1.110   .     S
C357   H415    1.109   .     S
C357   H414    1.107   .     S
C357   C358    1.527   .     S
C358   H412    1.110   .     S
C358   H411    1.110   .     S
C358   H413    1.108   .     S
C359   H419    1.106   .     S
C359   C360    1.527   .     S
C359   H420    1.108   .     S
C360   H417    1.110   .     S
C360   H416    1.110   .     S
C360   H418    1.111   .     S
C361   H425    1.109   .     S
C361   C362    1.529   .     S
C361   H424    1.107   .     S
C362   H422    1.110   .     S
C362   H421    1.107   .     S
C362   H423    1.110   .     S
C363   H429    1.106   .     S
C363   C364    1.528   .     S
C363   H430    1.109   .     S
C364   H427    1.110   .     S
C364   H426    1.109   .     S
C364   H428    1.110   .     S
C365   H434    1.108   .     S
C365   H435    1.110   .     S
C365   C366    1.528   .     S
C366   H433    1.110   .     S
C366   H432    1.110   .     S
C366   H431    1.110   .     S
C367   H440    1.109   .     S
C367   C368    1.527   .     S
C367   H439    1.107   .     S
C368   H436    1.110   .     S
C368   H438    1.108   .     S
C368   H437    1.110   .     S
C369   H445    1.108   .     S
C369   C370    1.528   .     S
C369   H444    1.107   .     S
C370   H441    1.110   .     S
C370   H442    1.111   .     S
C370   H443    1.110   .     S
C371   H449    1.107   .     S
C371   H450    1.110   .     S
C371   C372    1.529   .     S
C372   H447    1.108   .     S
C372   H446    1.110   .     S
C372   H448    1.110   .     S
C373   H454    1.106   .     S
C373   C374    1.528   .     S
C373   H455    1.107   .     S
C374   H452    1.110   .     S
C374   H451    1.110   .     S
C374   H453    1.110   .     S
C375   H459    1.107   .     S
C375   C376    1.526   .     S
C375   H460    1.107   .     S
C376   H458    1.109   .     S
C376   H457    1.109   .     S
C376   H456    1.110   .     S
C377   C378    1.526   .     S
C377   H465    1.108   .     S
C377   H464    1.107   .     S
C378   H461    1.109   .     S
C378   H462    1.110   .     S
C378   H463    1.110   .     S
C379   H470    1.109   .     S
C379   H469    1.107   .     S
C379   C380    1.528   .     S
C380   H468    1.110   .     S
C380   H466    1.109   .     S
C380   H467    1.110   .     S
C381   H474    1.106   .     S
C381   C382    1.528   .     S
C381   H475    1.110   .     S
C382   H472    1.110   .     S
C382   H471    1.109   .     S
C382   H473    1.110   .     S
C383   C384    1.529   .     S
C383   H479    1.108   .     S
C383   H480    1.110   .     S
C384   H478    1.109   .     S
C384   H476    1.110   .     S
C384   H477    1.110   .     S
