data_str_m1_o10_o16_pcu_sym.175
_audit_creation_date              2020-01-03
_audit_creation_method            'Materials Studio'
_symmetry_space_group_name_H-M    'P1'
_symmetry_Int_Tables_number       1
_symmetry_cell_setting            triclinic
loop_
_symmetry_equiv_pos_as_xyz
  x,y,z
_cell_length_a                    32.8240
_cell_length_b                    32.4673
_cell_length_c                    30.7726
_cell_angle_alpha                 96.4391
_cell_angle_beta                  74.8642
_cell_angle_gamma                 98.8510
loop_
_atom_site_label
_atom_site_type_symbol
_atom_site_fract_x
_atom_site_fract_y
_atom_site_fract_z
_atom_site_U_iso_or_equiv
_atom_site_adp_type
_atom_site_occupancy
C1     C     0.05318   0.15973   0.25961   0.00000  Uiso   1.00
C2     C     0.18634   0.16540   0.05333   0.00000  Uiso   1.00
C3     C     0.19903   0.09518   0.06278   0.00000  Uiso   1.00
C4     C     0.28076   0.17360   0.24023   0.00000  Uiso   1.00
C5     C     0.13949   0.19263   0.42146   0.00000  Uiso   1.00
C6     C     0.32628   0.17577   0.23710   0.00000  Uiso   1.00
C7     C     0.00790   0.15558   0.26524   0.00000  Uiso   1.00
C8     C     0.18446   0.32392   0.23848   0.00000  Uiso   1.00
C9     C     0.15248   0.01142   0.26224   0.00000  Uiso   1.00
C10    C     0.15519   0.05591   0.26100   0.00000  Uiso   1.00
C11    C     0.17766   0.27828   0.24058   0.00000  Uiso   1.00
C12    C     0.12247   0.23901   0.48987   0.00000  Uiso   1.00
C13    C     0.18570   0.14745   0.12914   0.00000  Uiso   1.00
C14    C     0.14820   0.18463   0.37134   0.00000  Uiso   1.00
C15    C     0.19267   0.08201   0.01942   0.00000  Uiso   1.00
C16    C     0.19354   0.13673   0.08028   0.00000  Uiso   1.00
C17    C     0.12662   0.23172   0.44322   0.00000  Uiso   1.00
C18    C     0.21299   0.06582   0.09003   0.00000  Uiso   1.00
C19    C     0.25929   0.07883   0.09180   0.00000  Uiso   1.00
C20    C     0.31355   0.12858   0.30265   0.00000  Uiso   1.00
C21    C     0.00462   0.10912   0.32967   0.00000  Uiso   1.00
C22    C     0.22553   0.01489   0.21124   0.00000  Uiso   1.00
C23    C     0.13584   0.21203   0.01338   0.00000  Uiso   1.00
C24    C     0.26130   0.32330   0.18504   0.00000  Uiso   1.00
C25    C     0.20213   0.04094   0.49891   0.00000  Uiso   1.00
C26    C     0.19783   0.20954   0.06469   0.00000  Uiso   1.00
C27    C     0.11712   0.26508   0.41712   0.00000  Uiso   1.00
C28    C     0.10649   0.30648   0.44369   0.00000  Uiso   1.00
C29    C     0.12471   0.09893   0.40133   0.00000  Uiso   1.00
C30    C     0.02189   0.20053   0.20242   0.00000  Uiso   1.00
C31    C     0.15317   0.17594   0.49166   0.00000  Uiso   1.00
C32    C     0.14736   0.16267   0.44798   0.00000  Uiso   1.00
C33    C     0.17197   0.15062   0.01402   0.00000  Uiso   1.00
C34    C     0.17651   0.10873   0.49643   0.00000  Uiso   1.00
C35    C     0.16301   0.09368   0.45720   0.00000  Uiso   1.00
C36    C     0.14748   0.11953   0.43389   0.00000  Uiso   1.00
H37    H     0.12231   0.32872   0.28038   0.00000  Uiso   1.00
H38    H     0.02614   0.08803   0.30718   0.00000  Uiso   1.00
H39    H     0.02339   0.13387   0.34704   0.00000  Uiso   1.00
H40    H     0.31500   0.09040   0.35573   0.00000  Uiso   1.00
H41    H     0.29182   0.14809   0.32735   0.00000  Uiso   1.00
H42    H     0.29464   0.10225   0.28738   0.00000  Uiso   1.00
H43    H     0.27149   0.30527   0.20807   0.00000  Uiso   1.00
H44    H     0.25126   0.30234   0.15757   0.00000  Uiso   1.00
H45    H     0.28923   0.01196   0.16909   0.00000  Uiso   1.00
H46    H     0.21713   0.03259   0.18662   0.00000  Uiso   1.00
H47    H     0.23916   0.03801   0.23484   0.00000  Uiso   1.00
H48    H     0.16298   0.06103   0.44516   0.00000  Uiso   1.00
H49    H     0.07606   0.30157   0.46991   0.00000  Uiso   1.00
H50    H     0.13256   0.32086   0.45947   0.00000  Uiso   1.00
H51    H     0.10274   0.32855   0.42034   0.00000  Uiso   1.00
H52    H     0.14545   0.27291   0.38897   0.00000  Uiso   1.00
H53    H     0.08947   0.25218   0.40306   0.00000  Uiso   1.00
H54    H     0.13045   0.21904   0.04940   0.00000  Uiso   1.00
H55    H     0.10995   0.26630   0.00887   0.00000  Uiso   1.00
H56    H     0.28032   0.07900   0.05707   0.00000  Uiso   1.00
H57    H     0.26333   0.11042   0.10936   0.00000  Uiso   1.00
H58    H     0.26905   0.05628   0.11049   0.00000  Uiso   1.00
H59    H     0.19237   0.06520   0.12485   0.00000  Uiso   1.00
H60    H     0.20985   0.03288   0.07590   0.00000  Uiso   1.00
N61    N     0.20983   0.00824   0.48259   0.00000  Uiso   1.00
N62    N     0.20719   0.24469   0.07380   0.00000  Uiso   1.00
N63    N     0.10633   0.08232   0.37551   0.00000  Uiso   1.00
N64    N     0.04493   0.22022   0.17482   0.00000  Uiso   1.00
O65    O     0.16667   0.16667   0.25000   0.00000  Uiso   1.00
O66    O     0.15451   0.12637   0.15458   0.00000  Uiso   1.00
O67    O     0.12940   0.20391   0.34968   0.00000  Uiso   1.00
O68    O     0.20824   0.17759   0.14606   0.00000  Uiso   1.00
O69    O     0.17451   0.15880   0.34968   0.00000  Uiso   1.00
O70    O     0.17930   0.08019   0.28213   0.00000  Uiso   1.00
O71    O     0.14632   0.26085   0.27013   0.00000  Uiso   1.00
O72    O     0.07412   0.13291   0.23413   0.00000  Uiso   1.00
O73    O     0.26693   0.19272   0.21360   0.00000  Uiso   1.00
O74    O     0.07071   0.18878   0.28213   0.00000  Uiso   1.00
O75    O     0.25491   0.15226   0.27013   0.00000  Uiso   1.00
O76    O     0.13760   0.06944   0.23413   0.00000  Uiso   1.00
O77    O     0.20345   0.25620   0.21360   0.00000  Uiso   1.00
Zn78   Zn    0.19338   0.13994   0.28734   0.00000  Uiso   1.00
Zn79   Zn    0.13379   0.12458   0.21875   0.00000  Uiso   1.00
Zn80   Zn    0.21056   0.19775   0.20657   0.00000  Uiso   1.00
Zn81   Zn    0.12893   0.20439   0.28733   0.00000  Uiso   1.00
C82    C     0.38651   0.15973   0.25961   0.00000  Uiso   1.00
C83    C     0.51968   0.16540   0.05333   0.00000  Uiso   1.00
C84    C     0.53236   0.09518   0.06278   0.00000  Uiso   1.00
C85    C     0.61409   0.17360   0.24023   0.00000  Uiso   1.00
C86    C     0.47283   0.19263   0.42146   0.00000  Uiso   1.00
C87    C     0.65961   0.17577   0.23710   0.00000  Uiso   1.00
C88    C     0.34124   0.15558   0.26524   0.00000  Uiso   1.00
C89    C     0.51780   0.32392   0.23848   0.00000  Uiso   1.00
C90    C     0.48581   0.01142   0.26224   0.00000  Uiso   1.00
C91    C     0.48853   0.05591   0.26100   0.00000  Uiso   1.00
C92    C     0.51099   0.27828   0.24058   0.00000  Uiso   1.00
C93    C     0.45580   0.23901   0.48987   0.00000  Uiso   1.00
C94    C     0.51903   0.14745   0.12914   0.00000  Uiso   1.00
C95    C     0.48154   0.18463   0.37134   0.00000  Uiso   1.00
C96    C     0.52601   0.08201   0.01942   0.00000  Uiso   1.00
C97    C     0.52688   0.13673   0.08028   0.00000  Uiso   1.00
C98    C     0.45996   0.23172   0.44322   0.00000  Uiso   1.00
C99    C     0.54633   0.06582   0.09003   0.00000  Uiso   1.00
C100   C     0.59262   0.07883   0.09180   0.00000  Uiso   1.00
C101   C     0.64688   0.12858   0.30265   0.00000  Uiso   1.00
C102   C     0.33795   0.10912   0.32967   0.00000  Uiso   1.00
C103   C     0.55886   0.01489   0.21124   0.00000  Uiso   1.00
C104   C     0.46917   0.21203   0.01338   0.00000  Uiso   1.00
C105   C     0.59464   0.32330   0.18504   0.00000  Uiso   1.00
C106   C     0.53547   0.04094   0.49891   0.00000  Uiso   1.00
C107   C     0.53117   0.20954   0.06469   0.00000  Uiso   1.00
C108   C     0.45045   0.26508   0.41712   0.00000  Uiso   1.00
C109   C     0.43983   0.30648   0.44369   0.00000  Uiso   1.00
C110   C     0.45804   0.09893   0.40133   0.00000  Uiso   1.00
C111   C     0.35522   0.20053   0.20242   0.00000  Uiso   1.00
C112   C     0.48650   0.17594   0.49166   0.00000  Uiso   1.00
C113   C     0.48070   0.16267   0.44798   0.00000  Uiso   1.00
C114   C     0.50530   0.15062   0.01402   0.00000  Uiso   1.00
C115   C     0.50985   0.10873   0.49643   0.00000  Uiso   1.00
C116   C     0.49635   0.09368   0.45720   0.00000  Uiso   1.00
C117   C     0.48081   0.11953   0.43389   0.00000  Uiso   1.00
H118   H     0.45565   0.32872   0.28038   0.00000  Uiso   1.00
H119   H     0.35947   0.08803   0.30718   0.00000  Uiso   1.00
H120   H     0.35672   0.13387   0.34704   0.00000  Uiso   1.00
H121   H     0.64833   0.09040   0.35573   0.00000  Uiso   1.00
H122   H     0.62515   0.14809   0.32735   0.00000  Uiso   1.00
H123   H     0.62797   0.10225   0.28738   0.00000  Uiso   1.00
H124   H     0.60482   0.30527   0.20807   0.00000  Uiso   1.00
H125   H     0.58459   0.30234   0.15757   0.00000  Uiso   1.00
H126   H     0.62257   0.01196   0.16909   0.00000  Uiso   1.00
H127   H     0.55046   0.03259   0.18662   0.00000  Uiso   1.00
H128   H     0.57249   0.03801   0.23484   0.00000  Uiso   1.00
H129   H     0.49631   0.06103   0.44516   0.00000  Uiso   1.00
H130   H     0.40939   0.30157   0.46991   0.00000  Uiso   1.00
H131   H     0.46589   0.32086   0.45947   0.00000  Uiso   1.00
H132   H     0.43607   0.32855   0.42034   0.00000  Uiso   1.00
H133   H     0.47879   0.27291   0.38897   0.00000  Uiso   1.00
H134   H     0.42280   0.25218   0.40306   0.00000  Uiso   1.00
H135   H     0.46378   0.21904   0.04940   0.00000  Uiso   1.00
H136   H     0.44328   0.26630   0.00887   0.00000  Uiso   1.00
H137   H     0.61366   0.07900   0.05707   0.00000  Uiso   1.00
H138   H     0.59666   0.11042   0.10936   0.00000  Uiso   1.00
H139   H     0.60238   0.05628   0.11049   0.00000  Uiso   1.00
H140   H     0.52570   0.06520   0.12485   0.00000  Uiso   1.00
H141   H     0.54319   0.03288   0.07590   0.00000  Uiso   1.00
N142   N     0.54316   0.00824   0.48259   0.00000  Uiso   1.00
N143   N     0.54052   0.24469   0.07380   0.00000  Uiso   1.00
N144   N     0.43967   0.08232   0.37551   0.00000  Uiso   1.00
N145   N     0.37826   0.22022   0.17482   0.00000  Uiso   1.00
O146   O     0.50000   0.16667   0.25000   0.00000  Uiso   1.00
O147   O     0.48784   0.12637   0.15458   0.00000  Uiso   1.00
O148   O     0.46274   0.20391   0.34968   0.00000  Uiso   1.00
O149   O     0.54157   0.17759   0.14606   0.00000  Uiso   1.00
O150   O     0.50785   0.15880   0.34968   0.00000  Uiso   1.00
O151   O     0.51264   0.08019   0.28213   0.00000  Uiso   1.00
O152   O     0.47965   0.26085   0.27013   0.00000  Uiso   1.00
O153   O     0.40745   0.13291   0.23413   0.00000  Uiso   1.00
O154   O     0.60026   0.19272   0.21360   0.00000  Uiso   1.00
O155   O     0.40405   0.18878   0.28213   0.00000  Uiso   1.00
O156   O     0.58824   0.15226   0.27013   0.00000  Uiso   1.00
O157   O     0.47093   0.06944   0.23413   0.00000  Uiso   1.00
O158   O     0.53678   0.25620   0.21360   0.00000  Uiso   1.00
Zn159  Zn    0.52672   0.13994   0.28734   0.00000  Uiso   1.00
Zn160  Zn    0.46713   0.12458   0.21875   0.00000  Uiso   1.00
Zn161  Zn    0.54389   0.19775   0.20657   0.00000  Uiso   1.00
Zn162  Zn    0.46226   0.20439   0.28733   0.00000  Uiso   1.00
C163   C     0.71985   0.15973   0.25961   0.00000  Uiso   1.00
C164   C     0.85301   0.16540   0.05333   0.00000  Uiso   1.00
C165   C     0.86570   0.09518   0.06278   0.00000  Uiso   1.00
C166   C     0.94742   0.17360   0.24023   0.00000  Uiso   1.00
C167   C     0.80616   0.19263   0.42146   0.00000  Uiso   1.00
C168   C     0.99294   0.17577   0.23710   0.00000  Uiso   1.00
C169   C     0.67457   0.15558   0.26524   0.00000  Uiso   1.00
C170   C     0.85113   0.32392   0.23848   0.00000  Uiso   1.00
C171   C     0.81914   0.01142   0.26224   0.00000  Uiso   1.00
C172   C     0.82186   0.05591   0.26100   0.00000  Uiso   1.00
C173   C     0.84432   0.27828   0.24058   0.00000  Uiso   1.00
C174   C     0.78914   0.23901   0.48987   0.00000  Uiso   1.00
C175   C     0.85237   0.14745   0.12914   0.00000  Uiso   1.00
C176   C     0.81487   0.18463   0.37134   0.00000  Uiso   1.00
C177   C     0.85934   0.08201   0.01942   0.00000  Uiso   1.00
C178   C     0.86021   0.13673   0.08028   0.00000  Uiso   1.00
C179   C     0.79329   0.23172   0.44322   0.00000  Uiso   1.00
C180   C     0.87966   0.06582   0.09003   0.00000  Uiso   1.00
C181   C     0.92595   0.07883   0.09180   0.00000  Uiso   1.00
C182   C     0.98021   0.12858   0.30265   0.00000  Uiso   1.00
C183   C     0.67129   0.10912   0.32967   0.00000  Uiso   1.00
C184   C     0.89219   0.01489   0.21124   0.00000  Uiso   1.00
C185   C     0.80251   0.21203   0.01338   0.00000  Uiso   1.00
C186   C     0.92797   0.32330   0.18504   0.00000  Uiso   1.00
C187   C     0.86880   0.04094   0.49891   0.00000  Uiso   1.00
C188   C     0.86450   0.20954   0.06469   0.00000  Uiso   1.00
C189   C     0.78379   0.26508   0.41712   0.00000  Uiso   1.00
C190   C     0.77316   0.30648   0.44369   0.00000  Uiso   1.00
C191   C     0.79137   0.09893   0.40133   0.00000  Uiso   1.00
C192   C     0.68855   0.20053   0.20242   0.00000  Uiso   1.00
C193   C     0.81983   0.17594   0.49166   0.00000  Uiso   1.00
C194   C     0.81403   0.16267   0.44798   0.00000  Uiso   1.00
C195   C     0.83864   0.15062   0.01402   0.00000  Uiso   1.00
C196   C     0.84318   0.10873   0.49643   0.00000  Uiso   1.00
C197   C     0.82968   0.09368   0.45720   0.00000  Uiso   1.00
C198   C     0.81415   0.11953   0.43389   0.00000  Uiso   1.00
H199   H     0.78898   0.32872   0.28038   0.00000  Uiso   1.00
H200   H     0.69280   0.08803   0.30718   0.00000  Uiso   1.00
H201   H     0.69006   0.13387   0.34704   0.00000  Uiso   1.00
H202   H     0.98166   0.09040   0.35573   0.00000  Uiso   1.00
H203   H     0.95849   0.14809   0.32735   0.00000  Uiso   1.00
H204   H     0.96130   0.10225   0.28738   0.00000  Uiso   1.00
H205   H     0.93816   0.30527   0.20807   0.00000  Uiso   1.00
H206   H     0.91793   0.30234   0.15757   0.00000  Uiso   1.00
H207   H     0.95590   0.01196   0.16909   0.00000  Uiso   1.00
H208   H     0.88380   0.03259   0.18662   0.00000  Uiso   1.00
H209   H     0.90582   0.03801   0.23484   0.00000  Uiso   1.00
H210   H     0.82964   0.06103   0.44516   0.00000  Uiso   1.00
H211   H     0.74272   0.30157   0.46991   0.00000  Uiso   1.00
H212   H     0.79923   0.32086   0.45947   0.00000  Uiso   1.00
H213   H     0.76941   0.32855   0.42034   0.00000  Uiso   1.00
H214   H     0.81212   0.27291   0.38897   0.00000  Uiso   1.00
H215   H     0.75613   0.25218   0.40306   0.00000  Uiso   1.00
H216   H     0.79711   0.21904   0.04940   0.00000  Uiso   1.00
H217   H     0.77662   0.26630   0.00887   0.00000  Uiso   1.00
H218   H     0.94699   0.07900   0.05707   0.00000  Uiso   1.00
H219   H     0.92999   0.11042   0.10936   0.00000  Uiso   1.00
H220   H     0.93571   0.05628   0.11049   0.00000  Uiso   1.00
H221   H     0.85903   0.06520   0.12485   0.00000  Uiso   1.00
H222   H     0.87652   0.03288   0.07590   0.00000  Uiso   1.00
N223   N     0.87649   0.00824   0.48259   0.00000  Uiso   1.00
N224   N     0.87385   0.24469   0.07380   0.00000  Uiso   1.00
N225   N     0.77300   0.08232   0.37551   0.00000  Uiso   1.00
N226   N     0.71160   0.22022   0.17482   0.00000  Uiso   1.00
O227   O     0.83333   0.16667   0.25000   0.00000  Uiso   1.00
O228   O     0.82118   0.12637   0.15458   0.00000  Uiso   1.00
O229   O     0.79607   0.20391   0.34968   0.00000  Uiso   1.00
O230   O     0.87491   0.17759   0.14606   0.00000  Uiso   1.00
O231   O     0.84118   0.15880   0.34968   0.00000  Uiso   1.00
O232   O     0.84597   0.08019   0.28213   0.00000  Uiso   1.00
O233   O     0.81298   0.26085   0.27013   0.00000  Uiso   1.00
O234   O     0.74078   0.13291   0.23413   0.00000  Uiso   1.00
O235   O     0.93360   0.19272   0.21360   0.00000  Uiso   1.00
O236   O     0.73738   0.18878   0.28213   0.00000  Uiso   1.00
O237   O     0.92158   0.15226   0.27013   0.00000  Uiso   1.00
O238   O     0.80426   0.06944   0.23413   0.00000  Uiso   1.00
O239   O     0.87012   0.25620   0.21360   0.00000  Uiso   1.00
Zn240  Zn    0.86005   0.13994   0.28734   0.00000  Uiso   1.00
Zn241  Zn    0.80046   0.12458   0.21875   0.00000  Uiso   1.00
Zn242  Zn    0.87723   0.19775   0.20657   0.00000  Uiso   1.00
Zn243  Zn    0.79560   0.20439   0.28733   0.00000  Uiso   1.00
C244   C     0.05318   0.49307   0.25961   0.00000  Uiso   1.00
C245   C     0.18634   0.49873   0.05333   0.00000  Uiso   1.00
C246   C     0.19903   0.42852   0.06278   0.00000  Uiso   1.00
C247   C     0.28076   0.50693   0.24023   0.00000  Uiso   1.00
C248   C     0.13949   0.52596   0.42146   0.00000  Uiso   1.00
C249   C     0.32628   0.50910   0.23710   0.00000  Uiso   1.00
C250   C     0.00790   0.48891   0.26524   0.00000  Uiso   1.00
C251   C     0.18446   0.65726   0.23848   0.00000  Uiso   1.00
C252   C     0.15248   0.34475   0.26224   0.00000  Uiso   1.00
C253   C     0.15519   0.38925   0.26100   0.00000  Uiso   1.00
C254   C     0.17766   0.61162   0.24058   0.00000  Uiso   1.00
C255   C     0.12247   0.57234   0.48987   0.00000  Uiso   1.00
C256   C     0.18570   0.48078   0.12914   0.00000  Uiso   1.00
C257   C     0.14820   0.51796   0.37134   0.00000  Uiso   1.00
C258   C     0.19267   0.41534   0.01942   0.00000  Uiso   1.00
C259   C     0.19354   0.47006   0.08028   0.00000  Uiso   1.00
C260   C     0.12662   0.56505   0.44322   0.00000  Uiso   1.00
C261   C     0.21299   0.39916   0.09003   0.00000  Uiso   1.00
C262   C     0.25929   0.41217   0.09180   0.00000  Uiso   1.00
C263   C     0.31355   0.46191   0.30265   0.00000  Uiso   1.00
C264   C     0.00462   0.44246   0.32967   0.00000  Uiso   1.00
C265   C     0.22553   0.34822   0.21124   0.00000  Uiso   1.00
C266   C     0.13584   0.54536   0.01338   0.00000  Uiso   1.00
C267   C     0.26130   0.65663   0.18504   0.00000  Uiso   1.00
C268   C     0.20213   0.37428   0.49891   0.00000  Uiso   1.00
C269   C     0.19783   0.54288   0.06469   0.00000  Uiso   1.00
C270   C     0.11712   0.59841   0.41712   0.00000  Uiso   1.00
C271   C     0.10649   0.63981   0.44369   0.00000  Uiso   1.00
C272   C     0.12471   0.43226   0.40133   0.00000  Uiso   1.00
C273   C     0.02189   0.53386   0.20242   0.00000  Uiso   1.00
C274   C     0.15317   0.50927   0.49166   0.00000  Uiso   1.00
C275   C     0.14736   0.49600   0.44798   0.00000  Uiso   1.00
C276   C     0.17197   0.48395   0.01402   0.00000  Uiso   1.00
C277   C     0.17651   0.44206   0.49643   0.00000  Uiso   1.00
C278   C     0.16301   0.42702   0.45720   0.00000  Uiso   1.00
C279   C     0.14748   0.45286   0.43389   0.00000  Uiso   1.00
H280   H     0.12231   0.66206   0.28038   0.00000  Uiso   1.00
H281   H     0.02614   0.42137   0.30718   0.00000  Uiso   1.00
H282   H     0.02339   0.46721   0.34704   0.00000  Uiso   1.00
H283   H     0.31500   0.42373   0.35573   0.00000  Uiso   1.00
H284   H     0.29182   0.48142   0.32735   0.00000  Uiso   1.00
H285   H     0.29464   0.43558   0.28738   0.00000  Uiso   1.00
H286   H     0.27149   0.63860   0.20807   0.00000  Uiso   1.00
H287   H     0.25126   0.63567   0.15757   0.00000  Uiso   1.00
H288   H     0.28923   0.34529   0.16909   0.00000  Uiso   1.00
H289   H     0.21713   0.36592   0.18662   0.00000  Uiso   1.00
H290   H     0.23916   0.37135   0.23484   0.00000  Uiso   1.00
H291   H     0.16298   0.39436   0.44516   0.00000  Uiso   1.00
H292   H     0.07606   0.63491   0.46991   0.00000  Uiso   1.00
H293   H     0.13256   0.65420   0.45947   0.00000  Uiso   1.00
H294   H     0.10274   0.66189   0.42034   0.00000  Uiso   1.00
H295   H     0.14545   0.60624   0.38897   0.00000  Uiso   1.00
H296   H     0.08947   0.58552   0.40306   0.00000  Uiso   1.00
H297   H     0.13045   0.55238   0.04940   0.00000  Uiso   1.00
H298   H     0.10995   0.59963   0.00887   0.00000  Uiso   1.00
H299   H     0.28032   0.41233   0.05707   0.00000  Uiso   1.00
H300   H     0.26333   0.44375   0.10936   0.00000  Uiso   1.00
H301   H     0.26905   0.38961   0.11049   0.00000  Uiso   1.00
H302   H     0.19237   0.39853   0.12485   0.00000  Uiso   1.00
H303   H     0.20985   0.36621   0.07590   0.00000  Uiso   1.00
N304   N     0.20983   0.34158   0.48259   0.00000  Uiso   1.00
N305   N     0.20719   0.57803   0.07380   0.00000  Uiso   1.00
N306   N     0.10633   0.41565   0.37551   0.00000  Uiso   1.00
N307   N     0.04493   0.55355   0.17482   0.00000  Uiso   1.00
O308   O     0.16667   0.50000   0.25000   0.00000  Uiso   1.00
O309   O     0.15451   0.45970   0.15458   0.00000  Uiso   1.00
O310   O     0.12940   0.53724   0.34968   0.00000  Uiso   1.00
O311   O     0.20824   0.51092   0.14606   0.00000  Uiso   1.00
O312   O     0.17451   0.49213   0.34968   0.00000  Uiso   1.00
O313   O     0.17930   0.41352   0.28213   0.00000  Uiso   1.00
O314   O     0.14632   0.59418   0.27013   0.00000  Uiso   1.00
O315   O     0.07412   0.46625   0.23413   0.00000  Uiso   1.00
O316   O     0.26693   0.52605   0.21360   0.00000  Uiso   1.00
O317   O     0.07071   0.52211   0.28213   0.00000  Uiso   1.00
O318   O     0.25491   0.48559   0.27013   0.00000  Uiso   1.00
O319   O     0.13760   0.40277   0.23413   0.00000  Uiso   1.00
O320   O     0.20345   0.58953   0.21360   0.00000  Uiso   1.00
Zn321  Zn    0.19338   0.47327   0.28734   0.00000  Uiso   1.00
Zn322  Zn    0.13379   0.45791   0.21875   0.00000  Uiso   1.00
Zn323  Zn    0.21056   0.53109   0.20657   0.00000  Uiso   1.00
Zn324  Zn    0.12893   0.53773   0.28733   0.00000  Uiso   1.00
C325   C     0.38651   0.49307   0.25961   0.00000  Uiso   1.00
C326   C     0.51968   0.49873   0.05333   0.00000  Uiso   1.00
C327   C     0.53236   0.42852   0.06278   0.00000  Uiso   1.00
C328   C     0.61409   0.50693   0.24023   0.00000  Uiso   1.00
C329   C     0.47283   0.52596   0.42146   0.00000  Uiso   1.00
C330   C     0.65961   0.50910   0.23710   0.00000  Uiso   1.00
C331   C     0.34124   0.48891   0.26524   0.00000  Uiso   1.00
C332   C     0.51780   0.65726   0.23848   0.00000  Uiso   1.00
C333   C     0.48581   0.34475   0.26224   0.00000  Uiso   1.00
C334   C     0.48853   0.38925   0.26100   0.00000  Uiso   1.00
C335   C     0.51099   0.61162   0.24058   0.00000  Uiso   1.00
C336   C     0.45580   0.57234   0.48987   0.00000  Uiso   1.00
C337   C     0.51903   0.48078   0.12914   0.00000  Uiso   1.00
C338   C     0.48154   0.51796   0.37134   0.00000  Uiso   1.00
C339   C     0.52601   0.41534   0.01942   0.00000  Uiso   1.00
C340   C     0.52688   0.47006   0.08028   0.00000  Uiso   1.00
C341   C     0.45996   0.56505   0.44322   0.00000  Uiso   1.00
C342   C     0.54633   0.39916   0.09003   0.00000  Uiso   1.00
C343   C     0.59262   0.41217   0.09180   0.00000  Uiso   1.00
C344   C     0.64688   0.46191   0.30265   0.00000  Uiso   1.00
C345   C     0.33795   0.44246   0.32967   0.00000  Uiso   1.00
C346   C     0.55886   0.34822   0.21124   0.00000  Uiso   1.00
C347   C     0.46917   0.54536   0.01338   0.00000  Uiso   1.00
C348   C     0.59464   0.65663   0.18504   0.00000  Uiso   1.00
C349   C     0.53547   0.37428   0.49891   0.00000  Uiso   1.00
C350   C     0.53117   0.54288   0.06469   0.00000  Uiso   1.00
C351   C     0.45045   0.59841   0.41712   0.00000  Uiso   1.00
C352   C     0.43983   0.63981   0.44369   0.00000  Uiso   1.00
C353   C     0.45804   0.43226   0.40133   0.00000  Uiso   1.00
C354   C     0.35522   0.53386   0.20242   0.00000  Uiso   1.00
C355   C     0.48650   0.50927   0.49166   0.00000  Uiso   1.00
C356   C     0.48070   0.49600   0.44798   0.00000  Uiso   1.00
C357   C     0.50530   0.48395   0.01402   0.00000  Uiso   1.00
C358   C     0.50985   0.44206   0.49643   0.00000  Uiso   1.00
C359   C     0.49635   0.42702   0.45720   0.00000  Uiso   1.00
C360   C     0.48081   0.45286   0.43389   0.00000  Uiso   1.00
H361   H     0.45565   0.66206   0.28038   0.00000  Uiso   1.00
H362   H     0.35947   0.42137   0.30718   0.00000  Uiso   1.00
H363   H     0.35672   0.46721   0.34704   0.00000  Uiso   1.00
H364   H     0.64833   0.42373   0.35573   0.00000  Uiso   1.00
H365   H     0.62515   0.48142   0.32735   0.00000  Uiso   1.00
H366   H     0.62797   0.43558   0.28738   0.00000  Uiso   1.00
H367   H     0.60482   0.63860   0.20807   0.00000  Uiso   1.00
H368   H     0.58459   0.63567   0.15757   0.00000  Uiso   1.00
H369   H     0.62257   0.34529   0.16909   0.00000  Uiso   1.00
H370   H     0.55046   0.36592   0.18662   0.00000  Uiso   1.00
H371   H     0.57249   0.37135   0.23484   0.00000  Uiso   1.00
H372   H     0.49631   0.39436   0.44516   0.00000  Uiso   1.00
H373   H     0.40939   0.63491   0.46991   0.00000  Uiso   1.00
H374   H     0.46589   0.65420   0.45947   0.00000  Uiso   1.00
H375   H     0.43607   0.66189   0.42034   0.00000  Uiso   1.00
H376   H     0.47879   0.60624   0.38897   0.00000  Uiso   1.00
H377   H     0.42280   0.58552   0.40306   0.00000  Uiso   1.00
H378   H     0.46378   0.55238   0.04940   0.00000  Uiso   1.00
H379   H     0.44328   0.59963   0.00887   0.00000  Uiso   1.00
H380   H     0.61366   0.41233   0.05707   0.00000  Uiso   1.00
H381   H     0.59666   0.44375   0.10936   0.00000  Uiso   1.00
H382   H     0.60238   0.38961   0.11049   0.00000  Uiso   1.00
H383   H     0.52570   0.39853   0.12485   0.00000  Uiso   1.00
H384   H     0.54319   0.36621   0.07590   0.00000  Uiso   1.00
N385   N     0.54316   0.34158   0.48259   0.00000  Uiso   1.00
N386   N     0.54052   0.57803   0.07380   0.00000  Uiso   1.00
N387   N     0.43967   0.41565   0.37551   0.00000  Uiso   1.00
N388   N     0.37826   0.55355   0.17482   0.00000  Uiso   1.00
O389   O     0.50000   0.50000   0.25000   0.00000  Uiso   1.00
O390   O     0.48784   0.45970   0.15458   0.00000  Uiso   1.00
O391   O     0.46274   0.53724   0.34968   0.00000  Uiso   1.00
O392   O     0.54157   0.51092   0.14606   0.00000  Uiso   1.00
O393   O     0.50785   0.49213   0.34968   0.00000  Uiso   1.00
O394   O     0.51264   0.41352   0.28213   0.00000  Uiso   1.00
O395   O     0.47965   0.59418   0.27013   0.00000  Uiso   1.00
O396   O     0.40745   0.46625   0.23413   0.00000  Uiso   1.00
O397   O     0.60026   0.52605   0.21360   0.00000  Uiso   1.00
O398   O     0.40405   0.52211   0.28213   0.00000  Uiso   1.00
O399   O     0.58824   0.48559   0.27013   0.00000  Uiso   1.00
O400   O     0.47093   0.40277   0.23413   0.00000  Uiso   1.00
O401   O     0.53678   0.58953   0.21360   0.00000  Uiso   1.00
Zn402  Zn    0.52672   0.47327   0.28734   0.00000  Uiso   1.00
Zn403  Zn    0.46713   0.45791   0.21875   0.00000  Uiso   1.00
Zn404  Zn    0.54389   0.53109   0.20657   0.00000  Uiso   1.00
Zn405  Zn    0.46226   0.53773   0.28733   0.00000  Uiso   1.00
C406   C     0.71985   0.49307   0.25961   0.00000  Uiso   1.00
C407   C     0.85301   0.49873   0.05333   0.00000  Uiso   1.00
C408   C     0.86570   0.42852   0.06278   0.00000  Uiso   1.00
C409   C     0.94742   0.50693   0.24023   0.00000  Uiso   1.00
C410   C     0.80616   0.52596   0.42146   0.00000  Uiso   1.00
C411   C     0.99294   0.50910   0.23710   0.00000  Uiso   1.00
C412   C     0.67457   0.48891   0.26524   0.00000  Uiso   1.00
C413   C     0.85113   0.65726   0.23848   0.00000  Uiso   1.00
C414   C     0.81914   0.34475   0.26224   0.00000  Uiso   1.00
C415   C     0.82186   0.38925   0.26100   0.00000  Uiso   1.00
C416   C     0.84432   0.61162   0.24058   0.00000  Uiso   1.00
C417   C     0.78914   0.57234   0.48987   0.00000  Uiso   1.00
C418   C     0.85237   0.48078   0.12914   0.00000  Uiso   1.00
C419   C     0.81487   0.51796   0.37134   0.00000  Uiso   1.00
C420   C     0.85934   0.41534   0.01942   0.00000  Uiso   1.00
C421   C     0.86021   0.47006   0.08028   0.00000  Uiso   1.00
C422   C     0.79329   0.56505   0.44322   0.00000  Uiso   1.00
C423   C     0.87966   0.39916   0.09003   0.00000  Uiso   1.00
C424   C     0.92595   0.41217   0.09180   0.00000  Uiso   1.00
C425   C     0.98021   0.46191   0.30265   0.00000  Uiso   1.00
C426   C     0.67129   0.44246   0.32967   0.00000  Uiso   1.00
C427   C     0.89219   0.34822   0.21124   0.00000  Uiso   1.00
C428   C     0.80251   0.54536   0.01338   0.00000  Uiso   1.00
C429   C     0.92797   0.65663   0.18504   0.00000  Uiso   1.00
C430   C     0.86880   0.37428   0.49891   0.00000  Uiso   1.00
C431   C     0.86450   0.54288   0.06469   0.00000  Uiso   1.00
C432   C     0.78379   0.59841   0.41712   0.00000  Uiso   1.00
C433   C     0.77316   0.63981   0.44369   0.00000  Uiso   1.00
C434   C     0.79137   0.43226   0.40133   0.00000  Uiso   1.00
C435   C     0.68855   0.53386   0.20242   0.00000  Uiso   1.00
C436   C     0.81983   0.50927   0.49166   0.00000  Uiso   1.00
C437   C     0.81403   0.49600   0.44798   0.00000  Uiso   1.00
C438   C     0.83864   0.48395   0.01402   0.00000  Uiso   1.00
C439   C     0.84318   0.44206   0.49643   0.00000  Uiso   1.00
C440   C     0.82968   0.42702   0.45720   0.00000  Uiso   1.00
C441   C     0.81415   0.45286   0.43389   0.00000  Uiso   1.00
H442   H     0.78898   0.66206   0.28038   0.00000  Uiso   1.00
H443   H     0.69280   0.42137   0.30718   0.00000  Uiso   1.00
H444   H     0.69006   0.46721   0.34704   0.00000  Uiso   1.00
H445   H     0.98166   0.42373   0.35573   0.00000  Uiso   1.00
H446   H     0.95849   0.48142   0.32735   0.00000  Uiso   1.00
H447   H     0.96130   0.43558   0.28738   0.00000  Uiso   1.00
H448   H     0.93816   0.63860   0.20807   0.00000  Uiso   1.00
H449   H     0.91793   0.63567   0.15757   0.00000  Uiso   1.00
H450   H     0.95590   0.34529   0.16909   0.00000  Uiso   1.00
H451   H     0.88380   0.36592   0.18662   0.00000  Uiso   1.00
H452   H     0.90582   0.37135   0.23484   0.00000  Uiso   1.00
H453   H     0.82964   0.39436   0.44516   0.00000  Uiso   1.00
H454   H     0.74272   0.63491   0.46991   0.00000  Uiso   1.00
H455   H     0.79923   0.65420   0.45947   0.00000  Uiso   1.00
H456   H     0.76941   0.66189   0.42034   0.00000  Uiso   1.00
H457   H     0.81212   0.60624   0.38897   0.00000  Uiso   1.00
H458   H     0.75613   0.58552   0.40306   0.00000  Uiso   1.00
H459   H     0.79711   0.55238   0.04940   0.00000  Uiso   1.00
H460   H     0.77662   0.59963   0.00887   0.00000  Uiso   1.00
H461   H     0.94699   0.41233   0.05707   0.00000  Uiso   1.00
H462   H     0.92999   0.44375   0.10936   0.00000  Uiso   1.00
H463   H     0.93571   0.38961   0.11049   0.00000  Uiso   1.00
H464   H     0.85903   0.39853   0.12485   0.00000  Uiso   1.00
H465   H     0.87652   0.36621   0.07590   0.00000  Uiso   1.00
N466   N     0.87649   0.34158   0.48259   0.00000  Uiso   1.00
N467   N     0.87385   0.57803   0.07380   0.00000  Uiso   1.00
N468   N     0.77300   0.41565   0.37551   0.00000  Uiso   1.00
N469   N     0.71160   0.55355   0.17482   0.00000  Uiso   1.00
O470   O     0.83333   0.50000   0.25000   0.00000  Uiso   1.00
O471   O     0.82118   0.45970   0.15458   0.00000  Uiso   1.00
O472   O     0.79607   0.53724   0.34968   0.00000  Uiso   1.00
O473   O     0.87491   0.51092   0.14606   0.00000  Uiso   1.00
O474   O     0.84118   0.49213   0.34968   0.00000  Uiso   1.00
O475   O     0.84597   0.41352   0.28213   0.00000  Uiso   1.00
O476   O     0.81298   0.59418   0.27013   0.00000  Uiso   1.00
O477   O     0.74078   0.46625   0.23413   0.00000  Uiso   1.00
O478   O     0.93360   0.52605   0.21360   0.00000  Uiso   1.00
O479   O     0.73738   0.52211   0.28213   0.00000  Uiso   1.00
O480   O     0.92158   0.48559   0.27013   0.00000  Uiso   1.00
O481   O     0.80426   0.40277   0.23413   0.00000  Uiso   1.00
O482   O     0.87012   0.58953   0.21360   0.00000  Uiso   1.00
Zn483  Zn    0.86005   0.47327   0.28734   0.00000  Uiso   1.00
Zn484  Zn    0.80046   0.45791   0.21875   0.00000  Uiso   1.00
Zn485  Zn    0.87723   0.53109   0.20657   0.00000  Uiso   1.00
Zn486  Zn    0.79560   0.53773   0.28733   0.00000  Uiso   1.00
C487   C     0.05318   0.82640   0.25961   0.00000  Uiso   1.00
C488   C     0.18634   0.83207   0.05333   0.00000  Uiso   1.00
C489   C     0.19903   0.76185   0.06278   0.00000  Uiso   1.00
C490   C     0.28076   0.84027   0.24023   0.00000  Uiso   1.00
C491   C     0.13949   0.85930   0.42146   0.00000  Uiso   1.00
C492   C     0.32628   0.84243   0.23710   0.00000  Uiso   1.00
C493   C     0.00790   0.82224   0.26524   0.00000  Uiso   1.00
C494   C     0.18446   0.99059   0.23848   0.00000  Uiso   1.00
C495   C     0.15248   0.67809   0.26224   0.00000  Uiso   1.00
C496   C     0.15519   0.72258   0.26100   0.00000  Uiso   1.00
C497   C     0.17766   0.94495   0.24058   0.00000  Uiso   1.00
C498   C     0.12247   0.90567   0.48987   0.00000  Uiso   1.00
C499   C     0.18570   0.81411   0.12914   0.00000  Uiso   1.00
C500   C     0.14820   0.85130   0.37134   0.00000  Uiso   1.00
C501   C     0.19267   0.74867   0.01942   0.00000  Uiso   1.00
C502   C     0.19354   0.80340   0.08028   0.00000  Uiso   1.00
C503   C     0.12662   0.89839   0.44322   0.00000  Uiso   1.00
C504   C     0.21299   0.73249   0.09003   0.00000  Uiso   1.00
C505   C     0.25929   0.74550   0.09180   0.00000  Uiso   1.00
C506   C     0.31355   0.79524   0.30265   0.00000  Uiso   1.00
C507   C     0.00462   0.77579   0.32967   0.00000  Uiso   1.00
C508   C     0.22553   0.68155   0.21124   0.00000  Uiso   1.00
C509   C     0.13584   0.87869   0.01338   0.00000  Uiso   1.00
C510   C     0.26130   0.98996   0.18504   0.00000  Uiso   1.00
C511   C     0.20213   0.70761   0.49891   0.00000  Uiso   1.00
C512   C     0.19783   0.87621   0.06469   0.00000  Uiso   1.00
C513   C     0.11712   0.93175   0.41712   0.00000  Uiso   1.00
C514   C     0.10649   0.97315   0.44369   0.00000  Uiso   1.00
C515   C     0.12471   0.76560   0.40133   0.00000  Uiso   1.00
C516   C     0.02189   0.86720   0.20242   0.00000  Uiso   1.00
C517   C     0.15317   0.84260   0.49166   0.00000  Uiso   1.00
C518   C     0.14736   0.82933   0.44798   0.00000  Uiso   1.00
C519   C     0.17197   0.81728   0.01402   0.00000  Uiso   1.00
C520   C     0.17651   0.77540   0.49643   0.00000  Uiso   1.00
C521   C     0.16301   0.76035   0.45720   0.00000  Uiso   1.00
C522   C     0.14748   0.78620   0.43389   0.00000  Uiso   1.00
H523   H     0.12231   0.99539   0.28038   0.00000  Uiso   1.00
H524   H     0.02614   0.75470   0.30718   0.00000  Uiso   1.00
H525   H     0.02339   0.80054   0.34704   0.00000  Uiso   1.00
H526   H     0.31500   0.75706   0.35573   0.00000  Uiso   1.00
H527   H     0.29182   0.81476   0.32735   0.00000  Uiso   1.00
H528   H     0.29464   0.76891   0.28738   0.00000  Uiso   1.00
H529   H     0.27149   0.97194   0.20807   0.00000  Uiso   1.00
H530   H     0.25126   0.96901   0.15757   0.00000  Uiso   1.00
H531   H     0.28923   0.67863   0.16909   0.00000  Uiso   1.00
H532   H     0.21713   0.69925   0.18662   0.00000  Uiso   1.00
H533   H     0.23916   0.70468   0.23484   0.00000  Uiso   1.00
H534   H     0.16298   0.72769   0.44516   0.00000  Uiso   1.00
H535   H     0.07606   0.96824   0.46991   0.00000  Uiso   1.00
H536   H     0.13256   0.98753   0.45947   0.00000  Uiso   1.00
H537   H     0.10274   0.99522   0.42034   0.00000  Uiso   1.00
H538   H     0.14545   0.93958   0.38897   0.00000  Uiso   1.00
H539   H     0.08947   0.91885   0.40306   0.00000  Uiso   1.00
H540   H     0.13045   0.88571   0.04940   0.00000  Uiso   1.00
H541   H     0.10995   0.93297   0.00887   0.00000  Uiso   1.00
H542   H     0.28032   0.74566   0.05707   0.00000  Uiso   1.00
H543   H     0.26333   0.77708   0.10936   0.00000  Uiso   1.00
H544   H     0.26905   0.72295   0.11049   0.00000  Uiso   1.00
H545   H     0.19237   0.73186   0.12485   0.00000  Uiso   1.00
H546   H     0.20985   0.69955   0.07590   0.00000  Uiso   1.00
N547   N     0.20983   0.67491   0.48259   0.00000  Uiso   1.00
N548   N     0.20719   0.91136   0.07380   0.00000  Uiso   1.00
N549   N     0.10633   0.74898   0.37551   0.00000  Uiso   1.00
N550   N     0.04493   0.88689   0.17482   0.00000  Uiso   1.00
O551   O     0.16667   0.83333   0.25000   0.00000  Uiso   1.00
O552   O     0.15451   0.79304   0.15458   0.00000  Uiso   1.00
O553   O     0.12940   0.87058   0.34968   0.00000  Uiso   1.00
O554   O     0.20824   0.84425   0.14606   0.00000  Uiso   1.00
O555   O     0.17451   0.82546   0.34968   0.00000  Uiso   1.00
O556   O     0.17930   0.74686   0.28213   0.00000  Uiso   1.00
O557   O     0.14632   0.92751   0.27013   0.00000  Uiso   1.00
O558   O     0.07412   0.79958   0.23413   0.00000  Uiso   1.00
O559   O     0.26693   0.85939   0.21360   0.00000  Uiso   1.00
O560   O     0.07071   0.85544   0.28213   0.00000  Uiso   1.00
O561   O     0.25491   0.81892   0.27013   0.00000  Uiso   1.00
O562   O     0.13760   0.73610   0.23413   0.00000  Uiso   1.00
O563   O     0.20345   0.92286   0.21360   0.00000  Uiso   1.00
Zn564  Zn    0.19338   0.80661   0.28734   0.00000  Uiso   1.00
Zn565  Zn    0.13379   0.79124   0.21875   0.00000  Uiso   1.00
Zn566  Zn    0.21056   0.86442   0.20657   0.00000  Uiso   1.00
Zn567  Zn    0.12893   0.87106   0.28733   0.00000  Uiso   1.00
C568   C     0.38651   0.82640   0.25961   0.00000  Uiso   1.00
C569   C     0.51968   0.83207   0.05333   0.00000  Uiso   1.00
C570   C     0.53236   0.76185   0.06278   0.00000  Uiso   1.00
C571   C     0.61409   0.84027   0.24023   0.00000  Uiso   1.00
C572   C     0.47283   0.85930   0.42146   0.00000  Uiso   1.00
C573   C     0.65961   0.84243   0.23710   0.00000  Uiso   1.00
C574   C     0.34124   0.82224   0.26524   0.00000  Uiso   1.00
C575   C     0.51780   0.99059   0.23848   0.00000  Uiso   1.00
C576   C     0.48581   0.67809   0.26224   0.00000  Uiso   1.00
C577   C     0.48853   0.72258   0.26100   0.00000  Uiso   1.00
C578   C     0.51099   0.94495   0.24058   0.00000  Uiso   1.00
C579   C     0.45580   0.90567   0.48987   0.00000  Uiso   1.00
C580   C     0.51903   0.81411   0.12914   0.00000  Uiso   1.00
C581   C     0.48154   0.85130   0.37134   0.00000  Uiso   1.00
C582   C     0.52601   0.74867   0.01942   0.00000  Uiso   1.00
C583   C     0.52688   0.80340   0.08028   0.00000  Uiso   1.00
C584   C     0.45996   0.89839   0.44322   0.00000  Uiso   1.00
C585   C     0.54633   0.73249   0.09003   0.00000  Uiso   1.00
C586   C     0.59262   0.74550   0.09180   0.00000  Uiso   1.00
C587   C     0.64688   0.79524   0.30265   0.00000  Uiso   1.00
C588   C     0.33795   0.77579   0.32967   0.00000  Uiso   1.00
C589   C     0.55886   0.68155   0.21124   0.00000  Uiso   1.00
C590   C     0.46917   0.87869   0.01338   0.00000  Uiso   1.00
C591   C     0.59464   0.98996   0.18504   0.00000  Uiso   1.00
C592   C     0.53547   0.70761   0.49891   0.00000  Uiso   1.00
C593   C     0.53117   0.87621   0.06469   0.00000  Uiso   1.00
C594   C     0.45045   0.93175   0.41712   0.00000  Uiso   1.00
C595   C     0.43983   0.97315   0.44369   0.00000  Uiso   1.00
C596   C     0.45804   0.76560   0.40133   0.00000  Uiso   1.00
C597   C     0.35522   0.86720   0.20242   0.00000  Uiso   1.00
C598   C     0.48650   0.84260   0.49166   0.00000  Uiso   1.00
C599   C     0.48070   0.82933   0.44798   0.00000  Uiso   1.00
C600   C     0.50530   0.81728   0.01402   0.00000  Uiso   1.00
C601   C     0.50985   0.77540   0.49643   0.00000  Uiso   1.00
C602   C     0.49635   0.76035   0.45720   0.00000  Uiso   1.00
C603   C     0.48081   0.78620   0.43389   0.00000  Uiso   1.00
H604   H     0.45565   0.99539   0.28038   0.00000  Uiso   1.00
H605   H     0.35947   0.75470   0.30718   0.00000  Uiso   1.00
H606   H     0.35672   0.80054   0.34704   0.00000  Uiso   1.00
H607   H     0.64833   0.75706   0.35573   0.00000  Uiso   1.00
H608   H     0.62515   0.81476   0.32735   0.00000  Uiso   1.00
H609   H     0.62797   0.76891   0.28738   0.00000  Uiso   1.00
H610   H     0.60482   0.97194   0.20807   0.00000  Uiso   1.00
H611   H     0.58459   0.96901   0.15757   0.00000  Uiso   1.00
H612   H     0.62257   0.67863   0.16909   0.00000  Uiso   1.00
H613   H     0.55046   0.69925   0.18662   0.00000  Uiso   1.00
H614   H     0.57249   0.70468   0.23484   0.00000  Uiso   1.00
H615   H     0.49631   0.72769   0.44516   0.00000  Uiso   1.00
H616   H     0.40939   0.96824   0.46991   0.00000  Uiso   1.00
H617   H     0.46589   0.98753   0.45947   0.00000  Uiso   1.00
H618   H     0.43607   0.99522   0.42034   0.00000  Uiso   1.00
H619   H     0.47879   0.93958   0.38897   0.00000  Uiso   1.00
H620   H     0.42280   0.91885   0.40306   0.00000  Uiso   1.00
H621   H     0.46378   0.88571   0.04940   0.00000  Uiso   1.00
H622   H     0.44328   0.93297   0.00887   0.00000  Uiso   1.00
H623   H     0.61366   0.74566   0.05707   0.00000  Uiso   1.00
H624   H     0.59666   0.77708   0.10936   0.00000  Uiso   1.00
H625   H     0.60238   0.72295   0.11049   0.00000  Uiso   1.00
H626   H     0.52570   0.73186   0.12485   0.00000  Uiso   1.00
H627   H     0.54319   0.69955   0.07590   0.00000  Uiso   1.00
N628   N     0.54316   0.67491   0.48259   0.00000  Uiso   1.00
N629   N     0.54052   0.91136   0.07380   0.00000  Uiso   1.00
N630   N     0.43967   0.74898   0.37551   0.00000  Uiso   1.00
N631   N     0.37826   0.88689   0.17482   0.00000  Uiso   1.00
O632   O     0.50000   0.83333   0.25000   0.00000  Uiso   1.00
O633   O     0.48784   0.79304   0.15458   0.00000  Uiso   1.00
O634   O     0.46274   0.87058   0.34968   0.00000  Uiso   1.00
O635   O     0.54157   0.84425   0.14606   0.00000  Uiso   1.00
O636   O     0.50785   0.82546   0.34968   0.00000  Uiso   1.00
O637   O     0.51264   0.74686   0.28213   0.00000  Uiso   1.00
O638   O     0.47965   0.92751   0.27013   0.00000  Uiso   1.00
O639   O     0.40745   0.79958   0.23413   0.00000  Uiso   1.00
O640   O     0.60026   0.85939   0.21360   0.00000  Uiso   1.00
O641   O     0.40405   0.85544   0.28213   0.00000  Uiso   1.00
O642   O     0.58824   0.81892   0.27013   0.00000  Uiso   1.00
O643   O     0.47093   0.73610   0.23413   0.00000  Uiso   1.00
O644   O     0.53678   0.92286   0.21360   0.00000  Uiso   1.00
Zn645  Zn    0.52672   0.80661   0.28734   0.00000  Uiso   1.00
Zn646  Zn    0.46713   0.79124   0.21875   0.00000  Uiso   1.00
Zn647  Zn    0.54389   0.86442   0.20657   0.00000  Uiso   1.00
Zn648  Zn    0.46226   0.87106   0.28733   0.00000  Uiso   1.00
C649   C     0.71985   0.82640   0.25961   0.00000  Uiso   1.00
C650   C     0.85301   0.83207   0.05333   0.00000  Uiso   1.00
C651   C     0.86570   0.76185   0.06278   0.00000  Uiso   1.00
C652   C     0.94742   0.84027   0.24023   0.00000  Uiso   1.00
C653   C     0.80616   0.85930   0.42146   0.00000  Uiso   1.00
C654   C     0.99294   0.84243   0.23710   0.00000  Uiso   1.00
C655   C     0.67457   0.82224   0.26524   0.00000  Uiso   1.00
C656   C     0.85113   0.99059   0.23848   0.00000  Uiso   1.00
C657   C     0.81914   0.67809   0.26224   0.00000  Uiso   1.00
C658   C     0.82186   0.72258   0.26100   0.00000  Uiso   1.00
C659   C     0.84432   0.94495   0.24058   0.00000  Uiso   1.00
C660   C     0.78914   0.90567   0.48987   0.00000  Uiso   1.00
C661   C     0.85237   0.81411   0.12914   0.00000  Uiso   1.00
C662   C     0.81487   0.85130   0.37134   0.00000  Uiso   1.00
C663   C     0.85934   0.74867   0.01942   0.00000  Uiso   1.00
C664   C     0.86021   0.80340   0.08028   0.00000  Uiso   1.00
C665   C     0.79329   0.89839   0.44322   0.00000  Uiso   1.00
C666   C     0.87966   0.73249   0.09003   0.00000  Uiso   1.00
C667   C     0.92595   0.74550   0.09180   0.00000  Uiso   1.00
C668   C     0.98021   0.79524   0.30265   0.00000  Uiso   1.00
C669   C     0.67129   0.77579   0.32967   0.00000  Uiso   1.00
C670   C     0.89219   0.68155   0.21124   0.00000  Uiso   1.00
C671   C     0.80251   0.87869   0.01338   0.00000  Uiso   1.00
C672   C     0.92797   0.98996   0.18504   0.00000  Uiso   1.00
C673   C     0.86880   0.70761   0.49891   0.00000  Uiso   1.00
C674   C     0.86450   0.87621   0.06469   0.00000  Uiso   1.00
C675   C     0.78379   0.93175   0.41712   0.00000  Uiso   1.00
C676   C     0.77316   0.97315   0.44369   0.00000  Uiso   1.00
C677   C     0.79137   0.76560   0.40133   0.00000  Uiso   1.00
C678   C     0.68855   0.86720   0.20242   0.00000  Uiso   1.00
C679   C     0.81983   0.84260   0.49166   0.00000  Uiso   1.00
C680   C     0.81403   0.82933   0.44798   0.00000  Uiso   1.00
C681   C     0.83864   0.81728   0.01402   0.00000  Uiso   1.00
C682   C     0.84318   0.77540   0.49643   0.00000  Uiso   1.00
C683   C     0.82968   0.76035   0.45720   0.00000  Uiso   1.00
C684   C     0.81415   0.78620   0.43389   0.00000  Uiso   1.00
H685   H     0.78898   0.99539   0.28038   0.00000  Uiso   1.00
H686   H     0.69280   0.75470   0.30718   0.00000  Uiso   1.00
H687   H     0.69006   0.80054   0.34704   0.00000  Uiso   1.00
H688   H     0.98166   0.75706   0.35573   0.00000  Uiso   1.00
H689   H     0.95849   0.81476   0.32735   0.00000  Uiso   1.00
H690   H     0.96130   0.76891   0.28738   0.00000  Uiso   1.00
H691   H     0.93816   0.97194   0.20807   0.00000  Uiso   1.00
H692   H     0.91793   0.96901   0.15757   0.00000  Uiso   1.00
H693   H     0.95590   0.67863   0.16909   0.00000  Uiso   1.00
H694   H     0.88380   0.69925   0.18662   0.00000  Uiso   1.00
H695   H     0.90582   0.70468   0.23484   0.00000  Uiso   1.00
H696   H     0.82964   0.72769   0.44516   0.00000  Uiso   1.00
H697   H     0.74272   0.96824   0.46991   0.00000  Uiso   1.00
H698   H     0.79923   0.98753   0.45947   0.00000  Uiso   1.00
H699   H     0.76941   0.99522   0.42034   0.00000  Uiso   1.00
H700   H     0.81212   0.93958   0.38897   0.00000  Uiso   1.00
H701   H     0.75613   0.91885   0.40306   0.00000  Uiso   1.00
H702   H     0.79711   0.88571   0.04940   0.00000  Uiso   1.00
H703   H     0.77662   0.93297   0.00887   0.00000  Uiso   1.00
H704   H     0.94699   0.74566   0.05707   0.00000  Uiso   1.00
H705   H     0.92999   0.77708   0.10936   0.00000  Uiso   1.00
H706   H     0.93571   0.72295   0.11049   0.00000  Uiso   1.00
H707   H     0.85903   0.73186   0.12485   0.00000  Uiso   1.00
H708   H     0.87652   0.69955   0.07590   0.00000  Uiso   1.00
N709   N     0.87649   0.67491   0.48259   0.00000  Uiso   1.00
N710   N     0.87385   0.91136   0.07380   0.00000  Uiso   1.00
N711   N     0.77300   0.74898   0.37551   0.00000  Uiso   1.00
N712   N     0.71160   0.88689   0.17482   0.00000  Uiso   1.00
O713   O     0.83333   0.83333   0.25000   0.00000  Uiso   1.00
O714   O     0.82118   0.79304   0.15458   0.00000  Uiso   1.00
O715   O     0.79607   0.87058   0.34968   0.00000  Uiso   1.00
O716   O     0.87491   0.84425   0.14606   0.00000  Uiso   1.00
O717   O     0.84118   0.82546   0.34968   0.00000  Uiso   1.00
O718   O     0.84597   0.74686   0.28213   0.00000  Uiso   1.00
O719   O     0.81298   0.92751   0.27013   0.00000  Uiso   1.00
O720   O     0.74078   0.79958   0.23413   0.00000  Uiso   1.00
O721   O     0.93360   0.85939   0.21360   0.00000  Uiso   1.00
O722   O     0.73738   0.85544   0.28213   0.00000  Uiso   1.00
O723   O     0.92158   0.81892   0.27013   0.00000  Uiso   1.00
O724   O     0.80426   0.73610   0.23413   0.00000  Uiso   1.00
O725   O     0.87012   0.92286   0.21360   0.00000  Uiso   1.00
Zn726  Zn    0.86005   0.80661   0.28734   0.00000  Uiso   1.00
Zn727  Zn    0.80046   0.79124   0.21875   0.00000  Uiso   1.00
Zn728  Zn    0.87723   0.86442   0.20657   0.00000  Uiso   1.00
Zn729  Zn    0.79560   0.87106   0.28733   0.00000  Uiso   1.00
C730   C     0.05318   0.15973   0.75961   0.00000  Uiso   1.00
C731   C     0.18634   0.16540   0.55333   0.00000  Uiso   1.00
C732   C     0.19903   0.09518   0.56278   0.00000  Uiso   1.00
C733   C     0.28076   0.17360   0.74023   0.00000  Uiso   1.00
C734   C     0.13949   0.19263   0.92146   0.00000  Uiso   1.00
C735   C     0.32628   0.17577   0.73710   0.00000  Uiso   1.00
C736   C     0.00790   0.15558   0.76524   0.00000  Uiso   1.00
C737   C     0.18446   0.32392   0.73848   0.00000  Uiso   1.00
C738   C     0.15248   0.01142   0.76224   0.00000  Uiso   1.00
C739   C     0.15519   0.05591   0.76100   0.00000  Uiso   1.00
C740   C     0.17766   0.27828   0.74058   0.00000  Uiso   1.00
C741   C     0.12247   0.23901   0.98987   0.00000  Uiso   1.00
C742   C     0.18570   0.14745   0.62914   0.00000  Uiso   1.00
C743   C     0.14820   0.18463   0.87134   0.00000  Uiso   1.00
C744   C     0.19267   0.08201   0.51942   0.00000  Uiso   1.00
C745   C     0.19354   0.13673   0.58028   0.00000  Uiso   1.00
C746   C     0.12662   0.23172   0.94322   0.00000  Uiso   1.00
C747   C     0.21299   0.06582   0.59003   0.00000  Uiso   1.00
C748   C     0.25929   0.07883   0.59180   0.00000  Uiso   1.00
C749   C     0.31355   0.12858   0.80265   0.00000  Uiso   1.00
C750   C     0.00462   0.10912   0.82967   0.00000  Uiso   1.00
C751   C     0.22553   0.01489   0.71124   0.00000  Uiso   1.00
C752   C     0.13584   0.21203   0.51338   0.00000  Uiso   1.00
C753   C     0.26130   0.32330   0.68504   0.00000  Uiso   1.00
C754   C     0.20213   0.04094   0.99891   0.00000  Uiso   1.00
C755   C     0.19783   0.20954   0.56469   0.00000  Uiso   1.00
C756   C     0.11712   0.26508   0.91712   0.00000  Uiso   1.00
C757   C     0.10649   0.30648   0.94369   0.00000  Uiso   1.00
C758   C     0.12471   0.09893   0.90133   0.00000  Uiso   1.00
C759   C     0.02189   0.20053   0.70242   0.00000  Uiso   1.00
C760   C     0.15317   0.17594   0.99166   0.00000  Uiso   1.00
C761   C     0.14736   0.16267   0.94798   0.00000  Uiso   1.00
C762   C     0.17197   0.15062   0.51402   0.00000  Uiso   1.00
C763   C     0.17651   0.10873   0.99643   0.00000  Uiso   1.00
C764   C     0.16301   0.09368   0.95720   0.00000  Uiso   1.00
C765   C     0.14748   0.11953   0.93389   0.00000  Uiso   1.00
H766   H     0.12231   0.32872   0.78038   0.00000  Uiso   1.00
H767   H     0.02614   0.08803   0.80718   0.00000  Uiso   1.00
H768   H     0.02339   0.13387   0.84704   0.00000  Uiso   1.00
H769   H     0.31500   0.09040   0.85573   0.00000  Uiso   1.00
H770   H     0.29182   0.14809   0.82735   0.00000  Uiso   1.00
H771   H     0.29464   0.10225   0.78738   0.00000  Uiso   1.00
H772   H     0.27149   0.30527   0.70807   0.00000  Uiso   1.00
H773   H     0.25126   0.30234   0.65757   0.00000  Uiso   1.00
H774   H     0.28923   0.01196   0.66909   0.00000  Uiso   1.00
H775   H     0.21713   0.03259   0.68662   0.00000  Uiso   1.00
H776   H     0.23916   0.03801   0.73484   0.00000  Uiso   1.00
H777   H     0.16298   0.06103   0.94516   0.00000  Uiso   1.00
H778   H     0.07606   0.30157   0.96991   0.00000  Uiso   1.00
H779   H     0.13256   0.32086   0.95947   0.00000  Uiso   1.00
H780   H     0.10274   0.32855   0.92034   0.00000  Uiso   1.00
H781   H     0.14545   0.27291   0.88897   0.00000  Uiso   1.00
H782   H     0.08947   0.25218   0.90306   0.00000  Uiso   1.00
H783   H     0.13045   0.21904   0.54940   0.00000  Uiso   1.00
H784   H     0.10995   0.26630   0.50887   0.00000  Uiso   1.00
H785   H     0.28032   0.07900   0.55707   0.00000  Uiso   1.00
H786   H     0.26333   0.11042   0.60936   0.00000  Uiso   1.00
H787   H     0.26905   0.05628   0.61049   0.00000  Uiso   1.00
H788   H     0.19237   0.06520   0.62485   0.00000  Uiso   1.00
H789   H     0.20985   0.03288   0.57590   0.00000  Uiso   1.00
N790   N     0.20983   0.00824   0.98259   0.00000  Uiso   1.00
N791   N     0.20719   0.24469   0.57380   0.00000  Uiso   1.00
N792   N     0.10633   0.08232   0.87551   0.00000  Uiso   1.00
N793   N     0.04493   0.22022   0.67482   0.00000  Uiso   1.00
O794   O     0.16667   0.16667   0.75000   0.00000  Uiso   1.00
O795   O     0.15451   0.12637   0.65458   0.00000  Uiso   1.00
O796   O     0.12940   0.20391   0.84968   0.00000  Uiso   1.00
O797   O     0.20824   0.17759   0.64606   0.00000  Uiso   1.00
O798   O     0.17451   0.15880   0.84968   0.00000  Uiso   1.00
O799   O     0.17930   0.08019   0.78213   0.00000  Uiso   1.00
O800   O     0.14632   0.26085   0.77013   0.00000  Uiso   1.00
O801   O     0.07412   0.13291   0.73413   0.00000  Uiso   1.00
O802   O     0.26693   0.19272   0.71360   0.00000  Uiso   1.00
O803   O     0.07071   0.18878   0.78213   0.00000  Uiso   1.00
O804   O     0.25491   0.15226   0.77013   0.00000  Uiso   1.00
O805   O     0.13760   0.06944   0.73413   0.00000  Uiso   1.00
O806   O     0.20345   0.25620   0.71360   0.00000  Uiso   1.00
Zn807  Zn    0.19338   0.13994   0.78734   0.00000  Uiso   1.00
Zn808  Zn    0.13379   0.12458   0.71875   0.00000  Uiso   1.00
Zn809  Zn    0.21056   0.19775   0.70657   0.00000  Uiso   1.00
Zn810  Zn    0.12893   0.20439   0.78733   0.00000  Uiso   1.00
C811   C     0.38651   0.15973   0.75961   0.00000  Uiso   1.00
C812   C     0.51968   0.16540   0.55333   0.00000  Uiso   1.00
C813   C     0.53236   0.09518   0.56278   0.00000  Uiso   1.00
C814   C     0.61409   0.17360   0.74023   0.00000  Uiso   1.00
C815   C     0.47283   0.19263   0.92146   0.00000  Uiso   1.00
C816   C     0.65961   0.17577   0.73710   0.00000  Uiso   1.00
C817   C     0.34124   0.15558   0.76524   0.00000  Uiso   1.00
C818   C     0.51780   0.32392   0.73848   0.00000  Uiso   1.00
C819   C     0.48581   0.01142   0.76224   0.00000  Uiso   1.00
C820   C     0.48853   0.05591   0.76100   0.00000  Uiso   1.00
C821   C     0.51099   0.27828   0.74058   0.00000  Uiso   1.00
C822   C     0.45580   0.23901   0.98987   0.00000  Uiso   1.00
C823   C     0.51903   0.14745   0.62914   0.00000  Uiso   1.00
C824   C     0.48154   0.18463   0.87134   0.00000  Uiso   1.00
C825   C     0.52601   0.08201   0.51942   0.00000  Uiso   1.00
C826   C     0.52688   0.13673   0.58028   0.00000  Uiso   1.00
C827   C     0.45996   0.23172   0.94322   0.00000  Uiso   1.00
C828   C     0.54633   0.06582   0.59003   0.00000  Uiso   1.00
C829   C     0.59262   0.07883   0.59180   0.00000  Uiso   1.00
C830   C     0.64688   0.12858   0.80265   0.00000  Uiso   1.00
C831   C     0.33795   0.10912   0.82967   0.00000  Uiso   1.00
C832   C     0.55886   0.01489   0.71124   0.00000  Uiso   1.00
C833   C     0.46917   0.21203   0.51338   0.00000  Uiso   1.00
C834   C     0.59464   0.32330   0.68504   0.00000  Uiso   1.00
C835   C     0.53547   0.04094   0.99891   0.00000  Uiso   1.00
C836   C     0.53117   0.20954   0.56469   0.00000  Uiso   1.00
C837   C     0.45045   0.26508   0.91712   0.00000  Uiso   1.00
C838   C     0.43983   0.30648   0.94369   0.00000  Uiso   1.00
C839   C     0.45804   0.09893   0.90133   0.00000  Uiso   1.00
C840   C     0.35522   0.20053   0.70242   0.00000  Uiso   1.00
C841   C     0.48650   0.17594   0.99166   0.00000  Uiso   1.00
C842   C     0.48070   0.16267   0.94798   0.00000  Uiso   1.00
C843   C     0.50530   0.15062   0.51402   0.00000  Uiso   1.00
C844   C     0.50985   0.10873   0.99643   0.00000  Uiso   1.00
C845   C     0.49635   0.09368   0.95720   0.00000  Uiso   1.00
C846   C     0.48081   0.11953   0.93389   0.00000  Uiso   1.00
H847   H     0.45565   0.32872   0.78038   0.00000  Uiso   1.00
H848   H     0.35947   0.08803   0.80718   0.00000  Uiso   1.00
H849   H     0.35672   0.13387   0.84704   0.00000  Uiso   1.00
H850   H     0.64833   0.09040   0.85573   0.00000  Uiso   1.00
H851   H     0.62515   0.14809   0.82735   0.00000  Uiso   1.00
H852   H     0.62797   0.10225   0.78738   0.00000  Uiso   1.00
H853   H     0.60482   0.30527   0.70807   0.00000  Uiso   1.00
H854   H     0.58459   0.30234   0.65757   0.00000  Uiso   1.00
H855   H     0.62257   0.01196   0.66909   0.00000  Uiso   1.00
H856   H     0.55046   0.03259   0.68662   0.00000  Uiso   1.00
H857   H     0.57249   0.03801   0.73484   0.00000  Uiso   1.00
H858   H     0.49631   0.06103   0.94516   0.00000  Uiso   1.00
H859   H     0.40939   0.30157   0.96991   0.00000  Uiso   1.00
H860   H     0.46589   0.32086   0.95947   0.00000  Uiso   1.00
H861   H     0.43607   0.32855   0.92034   0.00000  Uiso   1.00
H862   H     0.47879   0.27291   0.88897   0.00000  Uiso   1.00
H863   H     0.42280   0.25218   0.90306   0.00000  Uiso   1.00
H864   H     0.46378   0.21904   0.54940   0.00000  Uiso   1.00
H865   H     0.44328   0.26630   0.50887   0.00000  Uiso   1.00
H866   H     0.61366   0.07900   0.55707   0.00000  Uiso   1.00
H867   H     0.59666   0.11042   0.60936   0.00000  Uiso   1.00
H868   H     0.60238   0.05628   0.61049   0.00000  Uiso   1.00
H869   H     0.52570   0.06520   0.62485   0.00000  Uiso   1.00
H870   H     0.54319   0.03288   0.57590   0.00000  Uiso   1.00
N871   N     0.54316   0.00824   0.98259   0.00000  Uiso   1.00
N872   N     0.54052   0.24469   0.57380   0.00000  Uiso   1.00
N873   N     0.43967   0.08232   0.87551   0.00000  Uiso   1.00
N874   N     0.37826   0.22022   0.67482   0.00000  Uiso   1.00
O875   O     0.50000   0.16667   0.75000   0.00000  Uiso   1.00
O876   O     0.48784   0.12637   0.65458   0.00000  Uiso   1.00
O877   O     0.46274   0.20391   0.84968   0.00000  Uiso   1.00
O878   O     0.54157   0.17759   0.64606   0.00000  Uiso   1.00
O879   O     0.50785   0.15880   0.84968   0.00000  Uiso   1.00
O880   O     0.51264   0.08019   0.78213   0.00000  Uiso   1.00
O881   O     0.47965   0.26085   0.77013   0.00000  Uiso   1.00
O882   O     0.40745   0.13291   0.73413   0.00000  Uiso   1.00
O883   O     0.60026   0.19272   0.71360   0.00000  Uiso   1.00
O884   O     0.40405   0.18878   0.78213   0.00000  Uiso   1.00
O885   O     0.58824   0.15226   0.77013   0.00000  Uiso   1.00
O886   O     0.47093   0.06944   0.73413   0.00000  Uiso   1.00
O887   O     0.53678   0.25620   0.71360   0.00000  Uiso   1.00
Zn888  Zn    0.52672   0.13994   0.78734   0.00000  Uiso   1.00
Zn889  Zn    0.46713   0.12458   0.71875   0.00000  Uiso   1.00
Zn890  Zn    0.54389   0.19775   0.70657   0.00000  Uiso   1.00
Zn891  Zn    0.46226   0.20439   0.78733   0.00000  Uiso   1.00
C892   C     0.71985   0.15973   0.75961   0.00000  Uiso   1.00
C893   C     0.85301   0.16540   0.55333   0.00000  Uiso   1.00
C894   C     0.86570   0.09518   0.56278   0.00000  Uiso   1.00
C895   C     0.94742   0.17360   0.74023   0.00000  Uiso   1.00
C896   C     0.80616   0.19263   0.92146   0.00000  Uiso   1.00
C897   C     0.99294   0.17577   0.73710   0.00000  Uiso   1.00
C898   C     0.67457   0.15558   0.76524   0.00000  Uiso   1.00
C899   C     0.85113   0.32392   0.73848   0.00000  Uiso   1.00
C900   C     0.81914   0.01142   0.76224   0.00000  Uiso   1.00
C901   C     0.82186   0.05591   0.76100   0.00000  Uiso   1.00
C902   C     0.84432   0.27828   0.74058   0.00000  Uiso   1.00
C903   C     0.78914   0.23901   0.98987   0.00000  Uiso   1.00
C904   C     0.85237   0.14745   0.62914   0.00000  Uiso   1.00
C905   C     0.81487   0.18463   0.87134   0.00000  Uiso   1.00
C906   C     0.85934   0.08201   0.51942   0.00000  Uiso   1.00
C907   C     0.86021   0.13673   0.58028   0.00000  Uiso   1.00
C908   C     0.79329   0.23172   0.94322   0.00000  Uiso   1.00
C909   C     0.87966   0.06582   0.59003   0.00000  Uiso   1.00
C910   C     0.92595   0.07883   0.59180   0.00000  Uiso   1.00
C911   C     0.98021   0.12858   0.80265   0.00000  Uiso   1.00
C912   C     0.67129   0.10912   0.82967   0.00000  Uiso   1.00
C913   C     0.89219   0.01489   0.71124   0.00000  Uiso   1.00
C914   C     0.80251   0.21203   0.51338   0.00000  Uiso   1.00
C915   C     0.92797   0.32330   0.68504   0.00000  Uiso   1.00
C916   C     0.86880   0.04094   0.99891   0.00000  Uiso   1.00
C917   C     0.86450   0.20954   0.56469   0.00000  Uiso   1.00
C918   C     0.78379   0.26508   0.91712   0.00000  Uiso   1.00
C919   C     0.77316   0.30648   0.94369   0.00000  Uiso   1.00
C920   C     0.79137   0.09893   0.90133   0.00000  Uiso   1.00
C921   C     0.68855   0.20053   0.70242   0.00000  Uiso   1.00
C922   C     0.81983   0.17594   0.99166   0.00000  Uiso   1.00
C923   C     0.81403   0.16267   0.94798   0.00000  Uiso   1.00
C924   C     0.83864   0.15062   0.51402   0.00000  Uiso   1.00
C925   C     0.84318   0.10873   0.99643   0.00000  Uiso   1.00
C926   C     0.82968   0.09368   0.95720   0.00000  Uiso   1.00
C927   C     0.81415   0.11953   0.93389   0.00000  Uiso   1.00
H928   H     0.78898   0.32872   0.78038   0.00000  Uiso   1.00
H929   H     0.69280   0.08803   0.80718   0.00000  Uiso   1.00
H930   H     0.69006   0.13387   0.84704   0.00000  Uiso   1.00
H931   H     0.98166   0.09040   0.85573   0.00000  Uiso   1.00
H932   H     0.95849   0.14809   0.82735   0.00000  Uiso   1.00
H933   H     0.96130   0.10225   0.78738   0.00000  Uiso   1.00
H934   H     0.93816   0.30527   0.70807   0.00000  Uiso   1.00
H935   H     0.91793   0.30234   0.65757   0.00000  Uiso   1.00
H936   H     0.95590   0.01196   0.66909   0.00000  Uiso   1.00
H937   H     0.88380   0.03259   0.68662   0.00000  Uiso   1.00
H938   H     0.90582   0.03801   0.73484   0.00000  Uiso   1.00
H939   H     0.82964   0.06103   0.94516   0.00000  Uiso   1.00
H940   H     0.74272   0.30157   0.96991   0.00000  Uiso   1.00
H941   H     0.79923   0.32086   0.95947   0.00000  Uiso   1.00
H942   H     0.76941   0.32855   0.92034   0.00000  Uiso   1.00
H943   H     0.81212   0.27291   0.88897   0.00000  Uiso   1.00
H944   H     0.75613   0.25218   0.90306   0.00000  Uiso   1.00
H945   H     0.79711   0.21904   0.54940   0.00000  Uiso   1.00
H946   H     0.77662   0.26630   0.50887   0.00000  Uiso   1.00
H947   H     0.94699   0.07900   0.55707   0.00000  Uiso   1.00
H948   H     0.92999   0.11042   0.60936   0.00000  Uiso   1.00
H949   H     0.93571   0.05628   0.61049   0.00000  Uiso   1.00
H950   H     0.85903   0.06520   0.62485   0.00000  Uiso   1.00
H951   H     0.87652   0.03288   0.57590   0.00000  Uiso   1.00
N952   N     0.87649   0.00824   0.98259   0.00000  Uiso   1.00
N953   N     0.87385   0.24469   0.57380   0.00000  Uiso   1.00
N954   N     0.77300   0.08232   0.87551   0.00000  Uiso   1.00
N955   N     0.71160   0.22022   0.67482   0.00000  Uiso   1.00
O956   O     0.83333   0.16667   0.75000   0.00000  Uiso   1.00
O957   O     0.82118   0.12637   0.65458   0.00000  Uiso   1.00
O958   O     0.79607   0.20391   0.84968   0.00000  Uiso   1.00
O959   O     0.87491   0.17759   0.64606   0.00000  Uiso   1.00
O960   O     0.84118   0.15880   0.84968   0.00000  Uiso   1.00
O961   O     0.84597   0.08019   0.78213   0.00000  Uiso   1.00
O962   O     0.81298   0.26085   0.77013   0.00000  Uiso   1.00
O963   O     0.74078   0.13291   0.73413   0.00000  Uiso   1.00
O964   O     0.93360   0.19272   0.71360   0.00000  Uiso   1.00
O965   O     0.73738   0.18878   0.78213   0.00000  Uiso   1.00
O966   O     0.92158   0.15226   0.77013   0.00000  Uiso   1.00
O967   O     0.80426   0.06944   0.73413   0.00000  Uiso   1.00
O968   O     0.87012   0.25620   0.71360   0.00000  Uiso   1.00
Zn969  Zn    0.86005   0.13994   0.78734   0.00000  Uiso   1.00
Zn970  Zn    0.80046   0.12458   0.71875   0.00000  Uiso   1.00
Zn971  Zn    0.87723   0.19775   0.70657   0.00000  Uiso   1.00
Zn972  Zn    0.79560   0.20439   0.78733   0.00000  Uiso   1.00
C973   C     0.05318   0.49307   0.75961   0.00000  Uiso   1.00
C974   C     0.18634   0.49873   0.55333   0.00000  Uiso   1.00
C975   C     0.19903   0.42852   0.56278   0.00000  Uiso   1.00
C976   C     0.28076   0.50693   0.74023   0.00000  Uiso   1.00
C977   C     0.13949   0.52596   0.92146   0.00000  Uiso   1.00
C978   C     0.32628   0.50910   0.73710   0.00000  Uiso   1.00
C979   C     0.00790   0.48891   0.76524   0.00000  Uiso   1.00
C980   C     0.18446   0.65726   0.73848   0.00000  Uiso   1.00
C981   C     0.15248   0.34475   0.76224   0.00000  Uiso   1.00
C982   C     0.15519   0.38925   0.76100   0.00000  Uiso   1.00
C983   C     0.17766   0.61162   0.74058   0.00000  Uiso   1.00
C984   C     0.12247   0.57234   0.98987   0.00000  Uiso   1.00
C985   C     0.18570   0.48078   0.62914   0.00000  Uiso   1.00
C986   C     0.14820   0.51796   0.87134   0.00000  Uiso   1.00
C987   C     0.19267   0.41534   0.51942   0.00000  Uiso   1.00
C988   C     0.19354   0.47006   0.58028   0.00000  Uiso   1.00
C989   C     0.12662   0.56505   0.94322   0.00000  Uiso   1.00
C990   C     0.21299   0.39916   0.59003   0.00000  Uiso   1.00
C991   C     0.25929   0.41217   0.59180   0.00000  Uiso   1.00
C992   C     0.31355   0.46191   0.80265   0.00000  Uiso   1.00
C993   C     0.00462   0.44246   0.82967   0.00000  Uiso   1.00
C994   C     0.22553   0.34822   0.71124   0.00000  Uiso   1.00
C995   C     0.13584   0.54536   0.51338   0.00000  Uiso   1.00
C996   C     0.26130   0.65663   0.68504   0.00000  Uiso   1.00
C997   C     0.20213   0.37428   0.99891   0.00000  Uiso   1.00
C998   C     0.19783   0.54288   0.56469   0.00000  Uiso   1.00
C999   C     0.11712   0.59841   0.91712   0.00000  Uiso   1.00
C1000  C     0.10649   0.63981   0.94369   0.00000  Uiso   1.00
C1001  C     0.12471   0.43226   0.90133   0.00000  Uiso   1.00
C1002  C     0.02189   0.53386   0.70242   0.00000  Uiso   1.00
C1003  C     0.15317   0.50927   0.99166   0.00000  Uiso   1.00
C1004  C     0.14736   0.49600   0.94798   0.00000  Uiso   1.00
C1005  C     0.17197   0.48395   0.51402   0.00000  Uiso   1.00
C1006  C     0.17651   0.44206   0.99643   0.00000  Uiso   1.00
C1007  C     0.16301   0.42702   0.95720   0.00000  Uiso   1.00
C1008  C     0.14748   0.45286   0.93389   0.00000  Uiso   1.00
H1009  H     0.12231   0.66206   0.78038   0.00000  Uiso   1.00
H1010  H     0.02614   0.42137   0.80718   0.00000  Uiso   1.00
H1011  H     0.02339   0.46721   0.84704   0.00000  Uiso   1.00
H1012  H     0.31500   0.42373   0.85573   0.00000  Uiso   1.00
H1013  H     0.29182   0.48142   0.82735   0.00000  Uiso   1.00
H1014  H     0.29464   0.43558   0.78738   0.00000  Uiso   1.00
H1015  H     0.27149   0.63860   0.70807   0.00000  Uiso   1.00
H1016  H     0.25126   0.63567   0.65757   0.00000  Uiso   1.00
H1017  H     0.28923   0.34529   0.66909   0.00000  Uiso   1.00
H1018  H     0.21713   0.36592   0.68662   0.00000  Uiso   1.00
H1019  H     0.23916   0.37135   0.73484   0.00000  Uiso   1.00
H1020  H     0.16298   0.39436   0.94516   0.00000  Uiso   1.00
H1021  H     0.07606   0.63491   0.96991   0.00000  Uiso   1.00
H1022  H     0.13256   0.65420   0.95947   0.00000  Uiso   1.00
H1023  H     0.10274   0.66189   0.92034   0.00000  Uiso   1.00
H1024  H     0.14545   0.60624   0.88897   0.00000  Uiso   1.00
H1025  H     0.08947   0.58552   0.90306   0.00000  Uiso   1.00
H1026  H     0.13045   0.55238   0.54940   0.00000  Uiso   1.00
H1027  H     0.10995   0.59963   0.50887   0.00000  Uiso   1.00
H1028  H     0.28032   0.41233   0.55707   0.00000  Uiso   1.00
H1029  H     0.26333   0.44375   0.60936   0.00000  Uiso   1.00
H1030  H     0.26905   0.38961   0.61049   0.00000  Uiso   1.00
H1031  H     0.19237   0.39853   0.62485   0.00000  Uiso   1.00
H1032  H     0.20985   0.36621   0.57590   0.00000  Uiso   1.00
N1033  N     0.20983   0.34158   0.98259   0.00000  Uiso   1.00
N1034  N     0.20719   0.57803   0.57380   0.00000  Uiso   1.00
N1035  N     0.10633   0.41565   0.87551   0.00000  Uiso   1.00
N1036  N     0.04493   0.55355   0.67482   0.00000  Uiso   1.00
O1037  O     0.16667   0.50000   0.75000   0.00000  Uiso   1.00
O1038  O     0.15451   0.45970   0.65458   0.00000  Uiso   1.00
O1039  O     0.12940   0.53724   0.84968   0.00000  Uiso   1.00
O1040  O     0.20824   0.51092   0.64606   0.00000  Uiso   1.00
O1041  O     0.17451   0.49213   0.84968   0.00000  Uiso   1.00
O1042  O     0.17930   0.41352   0.78213   0.00000  Uiso   1.00
O1043  O     0.14632   0.59418   0.77013   0.00000  Uiso   1.00
O1044  O     0.07412   0.46625   0.73413   0.00000  Uiso   1.00
O1045  O     0.26693   0.52605   0.71360   0.00000  Uiso   1.00
O1046  O     0.07071   0.52211   0.78213   0.00000  Uiso   1.00
O1047  O     0.25491   0.48559   0.77013   0.00000  Uiso   1.00
O1048  O     0.13760   0.40277   0.73413   0.00000  Uiso   1.00
O1049  O     0.20345   0.58953   0.71360   0.00000  Uiso   1.00
Zn1050 Zn    0.19338   0.47327   0.78734   0.00000  Uiso   1.00
Zn1051 Zn    0.13379   0.45791   0.71875   0.00000  Uiso   1.00
Zn1052 Zn    0.21056   0.53109   0.70657   0.00000  Uiso   1.00
Zn1053 Zn    0.12893   0.53773   0.78733   0.00000  Uiso   1.00
C1054  C     0.38651   0.49307   0.75961   0.00000  Uiso   1.00
C1055  C     0.51968   0.49873   0.55333   0.00000  Uiso   1.00
C1056  C     0.53236   0.42852   0.56278   0.00000  Uiso   1.00
C1057  C     0.61409   0.50693   0.74023   0.00000  Uiso   1.00
C1058  C     0.47283   0.52596   0.92146   0.00000  Uiso   1.00
C1059  C     0.65961   0.50910   0.73710   0.00000  Uiso   1.00
C1060  C     0.34124   0.48891   0.76524   0.00000  Uiso   1.00
C1061  C     0.51780   0.65726   0.73848   0.00000  Uiso   1.00
C1062  C     0.48581   0.34475   0.76224   0.00000  Uiso   1.00
C1063  C     0.48853   0.38925   0.76100   0.00000  Uiso   1.00
C1064  C     0.51099   0.61162   0.74058   0.00000  Uiso   1.00
C1065  C     0.45580   0.57234   0.98987   0.00000  Uiso   1.00
C1066  C     0.51903   0.48078   0.62914   0.00000  Uiso   1.00
C1067  C     0.48154   0.51796   0.87134   0.00000  Uiso   1.00
C1068  C     0.52601   0.41534   0.51942   0.00000  Uiso   1.00
C1069  C     0.52688   0.47006   0.58028   0.00000  Uiso   1.00
C1070  C     0.45996   0.56505   0.94322   0.00000  Uiso   1.00
C1071  C     0.54633   0.39916   0.59003   0.00000  Uiso   1.00
C1072  C     0.59262   0.41217   0.59180   0.00000  Uiso   1.00
C1073  C     0.64688   0.46191   0.80265   0.00000  Uiso   1.00
C1074  C     0.33795   0.44246   0.82967   0.00000  Uiso   1.00
C1075  C     0.55886   0.34822   0.71124   0.00000  Uiso   1.00
C1076  C     0.46917   0.54536   0.51338   0.00000  Uiso   1.00
C1077  C     0.59464   0.65663   0.68504   0.00000  Uiso   1.00
C1078  C     0.53547   0.37428   0.99891   0.00000  Uiso   1.00
C1079  C     0.53117   0.54288   0.56469   0.00000  Uiso   1.00
C1080  C     0.45045   0.59841   0.91712   0.00000  Uiso   1.00
C1081  C     0.43983   0.63981   0.94369   0.00000  Uiso   1.00
C1082  C     0.45804   0.43226   0.90133   0.00000  Uiso   1.00
C1083  C     0.35522   0.53386   0.70242   0.00000  Uiso   1.00
C1084  C     0.48650   0.50927   0.99166   0.00000  Uiso   1.00
C1085  C     0.48070   0.49600   0.94798   0.00000  Uiso   1.00
C1086  C     0.50530   0.48395   0.51402   0.00000  Uiso   1.00
C1087  C     0.50985   0.44206   0.99643   0.00000  Uiso   1.00
C1088  C     0.49635   0.42702   0.95720   0.00000  Uiso   1.00
C1089  C     0.48081   0.45286   0.93389   0.00000  Uiso   1.00
H1090  H     0.45565   0.66206   0.78038   0.00000  Uiso   1.00
H1091  H     0.35947   0.42137   0.80718   0.00000  Uiso   1.00
H1092  H     0.35672   0.46721   0.84704   0.00000  Uiso   1.00
H1093  H     0.64833   0.42373   0.85573   0.00000  Uiso   1.00
H1094  H     0.62515   0.48142   0.82735   0.00000  Uiso   1.00
H1095  H     0.62797   0.43558   0.78738   0.00000  Uiso   1.00
H1096  H     0.60482   0.63860   0.70807   0.00000  Uiso   1.00
H1097  H     0.58459   0.63567   0.65757   0.00000  Uiso   1.00
H1098  H     0.62257   0.34529   0.66909   0.00000  Uiso   1.00
H1099  H     0.55046   0.36592   0.68662   0.00000  Uiso   1.00
H1100  H     0.57249   0.37135   0.73484   0.00000  Uiso   1.00
H1101  H     0.49631   0.39436   0.94516   0.00000  Uiso   1.00
H1102  H     0.40939   0.63491   0.96991   0.00000  Uiso   1.00
H1103  H     0.46589   0.65420   0.95947   0.00000  Uiso   1.00
H1104  H     0.43607   0.66189   0.92034   0.00000  Uiso   1.00
H1105  H     0.47879   0.60624   0.88897   0.00000  Uiso   1.00
H1106  H     0.42280   0.58552   0.90306   0.00000  Uiso   1.00
H1107  H     0.46378   0.55238   0.54940   0.00000  Uiso   1.00
H1108  H     0.44328   0.59963   0.50887   0.00000  Uiso   1.00
H1109  H     0.61366   0.41233   0.55707   0.00000  Uiso   1.00
H1110  H     0.59666   0.44375   0.60936   0.00000  Uiso   1.00
H1111  H     0.60238   0.38961   0.61049   0.00000  Uiso   1.00
H1112  H     0.52570   0.39853   0.62485   0.00000  Uiso   1.00
H1113  H     0.54319   0.36621   0.57590   0.00000  Uiso   1.00
N1114  N     0.54316   0.34158   0.98259   0.00000  Uiso   1.00
N1115  N     0.54052   0.57803   0.57380   0.00000  Uiso   1.00
N1116  N     0.43967   0.41565   0.87551   0.00000  Uiso   1.00
N1117  N     0.37826   0.55355   0.67482   0.00000  Uiso   1.00
O1118  O     0.50000   0.50000   0.75000   0.00000  Uiso   1.00
O1119  O     0.48784   0.45970   0.65458   0.00000  Uiso   1.00
O1120  O     0.46274   0.53724   0.84968   0.00000  Uiso   1.00
O1121  O     0.54157   0.51092   0.64606   0.00000  Uiso   1.00
O1122  O     0.50785   0.49213   0.84968   0.00000  Uiso   1.00
O1123  O     0.51264   0.41352   0.78213   0.00000  Uiso   1.00
O1124  O     0.47965   0.59418   0.77013   0.00000  Uiso   1.00
O1125  O     0.40745   0.46625   0.73413   0.00000  Uiso   1.00
O1126  O     0.60026   0.52605   0.71360   0.00000  Uiso   1.00
O1127  O     0.40405   0.52211   0.78213   0.00000  Uiso   1.00
O1128  O     0.58824   0.48559   0.77013   0.00000  Uiso   1.00
O1129  O     0.47093   0.40277   0.73413   0.00000  Uiso   1.00
O1130  O     0.53678   0.58953   0.71360   0.00000  Uiso   1.00
Zn1131 Zn    0.52672   0.47327   0.78734   0.00000  Uiso   1.00
Zn1132 Zn    0.46713   0.45791   0.71875   0.00000  Uiso   1.00
Zn1133 Zn    0.54389   0.53109   0.70657   0.00000  Uiso   1.00
Zn1134 Zn    0.46226   0.53773   0.78733   0.00000  Uiso   1.00
C1135  C     0.71985   0.49307   0.75961   0.00000  Uiso   1.00
C1136  C     0.85301   0.49873   0.55333   0.00000  Uiso   1.00
C1137  C     0.86570   0.42852   0.56278   0.00000  Uiso   1.00
C1138  C     0.94742   0.50693   0.74023   0.00000  Uiso   1.00
C1139  C     0.80616   0.52596   0.92146   0.00000  Uiso   1.00
C1140  C     0.99294   0.50910   0.73710   0.00000  Uiso   1.00
C1141  C     0.67457   0.48891   0.76524   0.00000  Uiso   1.00
C1142  C     0.85113   0.65726   0.73848   0.00000  Uiso   1.00
C1143  C     0.81914   0.34475   0.76224   0.00000  Uiso   1.00
C1144  C     0.82186   0.38925   0.76100   0.00000  Uiso   1.00
C1145  C     0.84432   0.61162   0.74058   0.00000  Uiso   1.00
C1146  C     0.78914   0.57234   0.98987   0.00000  Uiso   1.00
C1147  C     0.85237   0.48078   0.62914   0.00000  Uiso   1.00
C1148  C     0.81487   0.51796   0.87134   0.00000  Uiso   1.00
C1149  C     0.85934   0.41534   0.51942   0.00000  Uiso   1.00
C1150  C     0.86021   0.47006   0.58028   0.00000  Uiso   1.00
C1151  C     0.79329   0.56505   0.94322   0.00000  Uiso   1.00
C1152  C     0.87966   0.39916   0.59003   0.00000  Uiso   1.00
C1153  C     0.92595   0.41217   0.59180   0.00000  Uiso   1.00
C1154  C     0.98021   0.46191   0.80265   0.00000  Uiso   1.00
C1155  C     0.67129   0.44246   0.82967   0.00000  Uiso   1.00
C1156  C     0.89219   0.34822   0.71124   0.00000  Uiso   1.00
C1157  C     0.80251   0.54536   0.51338   0.00000  Uiso   1.00
C1158  C     0.92797   0.65663   0.68504   0.00000  Uiso   1.00
C1159  C     0.86880   0.37428   0.99891   0.00000  Uiso   1.00
C1160  C     0.86450   0.54288   0.56469   0.00000  Uiso   1.00
C1161  C     0.78379   0.59841   0.91712   0.00000  Uiso   1.00
C1162  C     0.77316   0.63981   0.94369   0.00000  Uiso   1.00
C1163  C     0.79137   0.43226   0.90133   0.00000  Uiso   1.00
C1164  C     0.68855   0.53386   0.70242   0.00000  Uiso   1.00
C1165  C     0.81983   0.50927   0.99166   0.00000  Uiso   1.00
C1166  C     0.81403   0.49600   0.94798   0.00000  Uiso   1.00
C1167  C     0.83864   0.48395   0.51402   0.00000  Uiso   1.00
C1168  C     0.84318   0.44206   0.99643   0.00000  Uiso   1.00
C1169  C     0.82968   0.42702   0.95720   0.00000  Uiso   1.00
C1170  C     0.81415   0.45286   0.93389   0.00000  Uiso   1.00
H1171  H     0.78898   0.66206   0.78038   0.00000  Uiso   1.00
H1172  H     0.69280   0.42137   0.80718   0.00000  Uiso   1.00
H1173  H     0.69006   0.46721   0.84704   0.00000  Uiso   1.00
H1174  H     0.98166   0.42373   0.85573   0.00000  Uiso   1.00
H1175  H     0.95849   0.48142   0.82735   0.00000  Uiso   1.00
H1176  H     0.96130   0.43558   0.78738   0.00000  Uiso   1.00
H1177  H     0.93816   0.63860   0.70807   0.00000  Uiso   1.00
H1178  H     0.91793   0.63567   0.65757   0.00000  Uiso   1.00
H1179  H     0.95590   0.34529   0.66909   0.00000  Uiso   1.00
H1180  H     0.88380   0.36592   0.68662   0.00000  Uiso   1.00
H1181  H     0.90582   0.37135   0.73484   0.00000  Uiso   1.00
H1182  H     0.82964   0.39436   0.94516   0.00000  Uiso   1.00
H1183  H     0.74272   0.63491   0.96991   0.00000  Uiso   1.00
H1184  H     0.79923   0.65420   0.95947   0.00000  Uiso   1.00
H1185  H     0.76941   0.66189   0.92034   0.00000  Uiso   1.00
H1186  H     0.81212   0.60624   0.88897   0.00000  Uiso   1.00
H1187  H     0.75613   0.58552   0.90306   0.00000  Uiso   1.00
H1188  H     0.79711   0.55238   0.54940   0.00000  Uiso   1.00
H1189  H     0.77662   0.59963   0.50887   0.00000  Uiso   1.00
H1190  H     0.94699   0.41233   0.55707   0.00000  Uiso   1.00
H1191  H     0.92999   0.44375   0.60936   0.00000  Uiso   1.00
H1192  H     0.93571   0.38961   0.61049   0.00000  Uiso   1.00
H1193  H     0.85903   0.39853   0.62485   0.00000  Uiso   1.00
H1194  H     0.87652   0.36621   0.57590   0.00000  Uiso   1.00
N1195  N     0.87649   0.34158   0.98259   0.00000  Uiso   1.00
N1196  N     0.87385   0.57803   0.57380   0.00000  Uiso   1.00
N1197  N     0.77300   0.41565   0.87551   0.00000  Uiso   1.00
N1198  N     0.71160   0.55355   0.67482   0.00000  Uiso   1.00
O1199  O     0.83333   0.50000   0.75000   0.00000  Uiso   1.00
O1200  O     0.82118   0.45970   0.65458   0.00000  Uiso   1.00
O1201  O     0.79607   0.53724   0.84968   0.00000  Uiso   1.00
O1202  O     0.87491   0.51092   0.64606   0.00000  Uiso   1.00
O1203  O     0.84118   0.49213   0.84968   0.00000  Uiso   1.00
O1204  O     0.84597   0.41352   0.78213   0.00000  Uiso   1.00
O1205  O     0.81298   0.59418   0.77013   0.00000  Uiso   1.00
O1206  O     0.74078   0.46625   0.73413   0.00000  Uiso   1.00
O1207  O     0.93360   0.52605   0.71360   0.00000  Uiso   1.00
O1208  O     0.73738   0.52211   0.78213   0.00000  Uiso   1.00
O1209  O     0.92158   0.48559   0.77013   0.00000  Uiso   1.00
O1210  O     0.80426   0.40277   0.73413   0.00000  Uiso   1.00
O1211  O     0.87012   0.58953   0.71360   0.00000  Uiso   1.00
Zn1212 Zn    0.86005   0.47327   0.78734   0.00000  Uiso   1.00
Zn1213 Zn    0.80046   0.45791   0.71875   0.00000  Uiso   1.00
Zn1214 Zn    0.87723   0.53109   0.70657   0.00000  Uiso   1.00
Zn1215 Zn    0.79560   0.53773   0.78733   0.00000  Uiso   1.00
C1216  C     0.05318   0.82640   0.75961   0.00000  Uiso   1.00
C1217  C     0.18634   0.83207   0.55333   0.00000  Uiso   1.00
C1218  C     0.19903   0.76185   0.56278   0.00000  Uiso   1.00
C1219  C     0.28076   0.84027   0.74023   0.00000  Uiso   1.00
C1220  C     0.13949   0.85930   0.92146   0.00000  Uiso   1.00
C1221  C     0.32628   0.84243   0.73710   0.00000  Uiso   1.00
C1222  C     0.00790   0.82224   0.76524   0.00000  Uiso   1.00
C1223  C     0.18446   0.99059   0.73848   0.00000  Uiso   1.00
C1224  C     0.15248   0.67809   0.76224   0.00000  Uiso   1.00
C1225  C     0.15519   0.72258   0.76100   0.00000  Uiso   1.00
C1226  C     0.17766   0.94495   0.74058   0.00000  Uiso   1.00
C1227  C     0.12247   0.90567   0.98987   0.00000  Uiso   1.00
C1228  C     0.18570   0.81411   0.62914   0.00000  Uiso   1.00
C1229  C     0.14820   0.85130   0.87134   0.00000  Uiso   1.00
C1230  C     0.19267   0.74867   0.51942   0.00000  Uiso   1.00
C1231  C     0.19354   0.80340   0.58028   0.00000  Uiso   1.00
C1232  C     0.12662   0.89839   0.94322   0.00000  Uiso   1.00
C1233  C     0.21299   0.73249   0.59003   0.00000  Uiso   1.00
C1234  C     0.25929   0.74550   0.59180   0.00000  Uiso   1.00
C1235  C     0.31355   0.79524   0.80265   0.00000  Uiso   1.00
C1236  C     0.00462   0.77579   0.82967   0.00000  Uiso   1.00
C1237  C     0.22553   0.68155   0.71124   0.00000  Uiso   1.00
C1238  C     0.13584   0.87869   0.51338   0.00000  Uiso   1.00
C1239  C     0.26130   0.98996   0.68504   0.00000  Uiso   1.00
C1240  C     0.20213   0.70761   0.99891   0.00000  Uiso   1.00
C1241  C     0.19783   0.87621   0.56469   0.00000  Uiso   1.00
C1242  C     0.11712   0.93175   0.91712   0.00000  Uiso   1.00
C1243  C     0.10649   0.97315   0.94369   0.00000  Uiso   1.00
C1244  C     0.12471   0.76560   0.90133   0.00000  Uiso   1.00
C1245  C     0.02189   0.86720   0.70242   0.00000  Uiso   1.00
C1246  C     0.15317   0.84260   0.99166   0.00000  Uiso   1.00
C1247  C     0.14736   0.82933   0.94798   0.00000  Uiso   1.00
C1248  C     0.17197   0.81728   0.51402   0.00000  Uiso   1.00
C1249  C     0.17651   0.77540   0.99643   0.00000  Uiso   1.00
C1250  C     0.16301   0.76035   0.95720   0.00000  Uiso   1.00
C1251  C     0.14748   0.78620   0.93389   0.00000  Uiso   1.00
H1252  H     0.12231   0.99539   0.78038   0.00000  Uiso   1.00
H1253  H     0.02614   0.75470   0.80718   0.00000  Uiso   1.00
H1254  H     0.02339   0.80054   0.84704   0.00000  Uiso   1.00
H1255  H     0.31500   0.75706   0.85573   0.00000  Uiso   1.00
H1256  H     0.29182   0.81476   0.82735   0.00000  Uiso   1.00
H1257  H     0.29464   0.76891   0.78738   0.00000  Uiso   1.00
H1258  H     0.27149   0.97194   0.70807   0.00000  Uiso   1.00
H1259  H     0.25126   0.96901   0.65757   0.00000  Uiso   1.00
H1260  H     0.28923   0.67863   0.66909   0.00000  Uiso   1.00
H1261  H     0.21713   0.69925   0.68662   0.00000  Uiso   1.00
H1262  H     0.23916   0.70468   0.73484   0.00000  Uiso   1.00
H1263  H     0.16298   0.72769   0.94516   0.00000  Uiso   1.00
H1264  H     0.07606   0.96824   0.96991   0.00000  Uiso   1.00
H1265  H     0.13256   0.98753   0.95947   0.00000  Uiso   1.00
H1266  H     0.10274   0.99522   0.92034   0.00000  Uiso   1.00
H1267  H     0.14545   0.93958   0.88897   0.00000  Uiso   1.00
H1268  H     0.08947   0.91885   0.90306   0.00000  Uiso   1.00
H1269  H     0.13045   0.88571   0.54940   0.00000  Uiso   1.00
H1270  H     0.10995   0.93297   0.50887   0.00000  Uiso   1.00
H1271  H     0.28032   0.74566   0.55707   0.00000  Uiso   1.00
H1272  H     0.26333   0.77708   0.60936   0.00000  Uiso   1.00
H1273  H     0.26905   0.72295   0.61049   0.00000  Uiso   1.00
H1274  H     0.19237   0.73186   0.62485   0.00000  Uiso   1.00
H1275  H     0.20985   0.69955   0.57590   0.00000  Uiso   1.00
N1276  N     0.20983   0.67491   0.98259   0.00000  Uiso   1.00
N1277  N     0.20719   0.91136   0.57380   0.00000  Uiso   1.00
N1278  N     0.10633   0.74898   0.87551   0.00000  Uiso   1.00
N1279  N     0.04493   0.88689   0.67482   0.00000  Uiso   1.00
O1280  O     0.16667   0.83333   0.75000   0.00000  Uiso   1.00
O1281  O     0.15451   0.79304   0.65458   0.00000  Uiso   1.00
O1282  O     0.12940   0.87058   0.84968   0.00000  Uiso   1.00
O1283  O     0.20824   0.84425   0.64606   0.00000  Uiso   1.00
O1284  O     0.17451   0.82546   0.84968   0.00000  Uiso   1.00
O1285  O     0.17930   0.74686   0.78213   0.00000  Uiso   1.00
O1286  O     0.14632   0.92751   0.77013   0.00000  Uiso   1.00
O1287  O     0.07412   0.79958   0.73413   0.00000  Uiso   1.00
O1288  O     0.26693   0.85939   0.71360   0.00000  Uiso   1.00
O1289  O     0.07071   0.85544   0.78213   0.00000  Uiso   1.00
O1290  O     0.25491   0.81892   0.77013   0.00000  Uiso   1.00
O1291  O     0.13760   0.73610   0.73413   0.00000  Uiso   1.00
O1292  O     0.20345   0.92286   0.71360   0.00000  Uiso   1.00
Zn1293 Zn    0.19338   0.80661   0.78734   0.00000  Uiso   1.00
Zn1294 Zn    0.13379   0.79124   0.71875   0.00000  Uiso   1.00
Zn1295 Zn    0.21056   0.86442   0.70657   0.00000  Uiso   1.00
Zn1296 Zn    0.12893   0.87106   0.78733   0.00000  Uiso   1.00
C1297  C     0.38651   0.82640   0.75961   0.00000  Uiso   1.00
C1298  C     0.51968   0.83207   0.55333   0.00000  Uiso   1.00
C1299  C     0.53236   0.76185   0.56278   0.00000  Uiso   1.00
C1300  C     0.61409   0.84027   0.74023   0.00000  Uiso   1.00
C1301  C     0.47283   0.85930   0.92146   0.00000  Uiso   1.00
C1302  C     0.65961   0.84243   0.73710   0.00000  Uiso   1.00
C1303  C     0.34124   0.82224   0.76524   0.00000  Uiso   1.00
C1304  C     0.51780   0.99059   0.73848   0.00000  Uiso   1.00
C1305  C     0.48581   0.67809   0.76224   0.00000  Uiso   1.00
C1306  C     0.48853   0.72258   0.76100   0.00000  Uiso   1.00
C1307  C     0.51099   0.94495   0.74058   0.00000  Uiso   1.00
C1308  C     0.45580   0.90567   0.98987   0.00000  Uiso   1.00
C1309  C     0.51903   0.81411   0.62914   0.00000  Uiso   1.00
C1310  C     0.48154   0.85130   0.87134   0.00000  Uiso   1.00
C1311  C     0.52601   0.74867   0.51942   0.00000  Uiso   1.00
C1312  C     0.52688   0.80340   0.58028   0.00000  Uiso   1.00
C1313  C     0.45996   0.89839   0.94322   0.00000  Uiso   1.00
C1314  C     0.54633   0.73249   0.59003   0.00000  Uiso   1.00
C1315  C     0.59262   0.74550   0.59180   0.00000  Uiso   1.00
C1316  C     0.64688   0.79524   0.80265   0.00000  Uiso   1.00
C1317  C     0.33795   0.77579   0.82967   0.00000  Uiso   1.00
C1318  C     0.55886   0.68155   0.71124   0.00000  Uiso   1.00
C1319  C     0.46917   0.87869   0.51338   0.00000  Uiso   1.00
C1320  C     0.59464   0.98996   0.68504   0.00000  Uiso   1.00
C1321  C     0.53547   0.70761   0.99891   0.00000  Uiso   1.00
C1322  C     0.53117   0.87621   0.56469   0.00000  Uiso   1.00
C1323  C     0.45045   0.93175   0.91712   0.00000  Uiso   1.00
C1324  C     0.43983   0.97315   0.94369   0.00000  Uiso   1.00
C1325  C     0.45804   0.76560   0.90133   0.00000  Uiso   1.00
C1326  C     0.35522   0.86720   0.70242   0.00000  Uiso   1.00
C1327  C     0.48650   0.84260   0.99166   0.00000  Uiso   1.00
C1328  C     0.48070   0.82933   0.94798   0.00000  Uiso   1.00
C1329  C     0.50530   0.81728   0.51402   0.00000  Uiso   1.00
C1330  C     0.50985   0.77540   0.99643   0.00000  Uiso   1.00
C1331  C     0.49635   0.76035   0.95720   0.00000  Uiso   1.00
C1332  C     0.48081   0.78620   0.93389   0.00000  Uiso   1.00
H1333  H     0.45565   0.99539   0.78038   0.00000  Uiso   1.00
H1334  H     0.35947   0.75470   0.80718   0.00000  Uiso   1.00
H1335  H     0.35672   0.80054   0.84704   0.00000  Uiso   1.00
H1336  H     0.64833   0.75706   0.85573   0.00000  Uiso   1.00
H1337  H     0.62515   0.81476   0.82735   0.00000  Uiso   1.00
H1338  H     0.62797   0.76891   0.78738   0.00000  Uiso   1.00
H1339  H     0.60482   0.97194   0.70807   0.00000  Uiso   1.00
H1340  H     0.58459   0.96901   0.65757   0.00000  Uiso   1.00
H1341  H     0.62257   0.67863   0.66909   0.00000  Uiso   1.00
H1342  H     0.55046   0.69925   0.68662   0.00000  Uiso   1.00
H1343  H     0.57249   0.70468   0.73484   0.00000  Uiso   1.00
H1344  H     0.49631   0.72769   0.94516   0.00000  Uiso   1.00
H1345  H     0.40939   0.96824   0.96991   0.00000  Uiso   1.00
H1346  H     0.46589   0.98753   0.95947   0.00000  Uiso   1.00
H1347  H     0.43607   0.99522   0.92034   0.00000  Uiso   1.00
H1348  H     0.47879   0.93958   0.88897   0.00000  Uiso   1.00
H1349  H     0.42280   0.91885   0.90306   0.00000  Uiso   1.00
H1350  H     0.46378   0.88571   0.54940   0.00000  Uiso   1.00
H1351  H     0.44328   0.93297   0.50887   0.00000  Uiso   1.00
H1352  H     0.61366   0.74566   0.55707   0.00000  Uiso   1.00
H1353  H     0.59666   0.77708   0.60936   0.00000  Uiso   1.00
H1354  H     0.60238   0.72295   0.61049   0.00000  Uiso   1.00
H1355  H     0.52570   0.73186   0.62485   0.00000  Uiso   1.00
H1356  H     0.54319   0.69955   0.57590   0.00000  Uiso   1.00
N1357  N     0.54316   0.67491   0.98259   0.00000  Uiso   1.00
N1358  N     0.54052   0.91136   0.57380   0.00000  Uiso   1.00
N1359  N     0.43967   0.74898   0.87551   0.00000  Uiso   1.00
N1360  N     0.37826   0.88689   0.67482   0.00000  Uiso   1.00
O1361  O     0.50000   0.83333   0.75000   0.00000  Uiso   1.00
O1362  O     0.48784   0.79304   0.65458   0.00000  Uiso   1.00
O1363  O     0.46274   0.87058   0.84968   0.00000  Uiso   1.00
O1364  O     0.54157   0.84425   0.64606   0.00000  Uiso   1.00
O1365  O     0.50785   0.82546   0.84968   0.00000  Uiso   1.00
O1366  O     0.51264   0.74686   0.78213   0.00000  Uiso   1.00
O1367  O     0.47965   0.92751   0.77013   0.00000  Uiso   1.00
O1368  O     0.40745   0.79958   0.73413   0.00000  Uiso   1.00
O1369  O     0.60026   0.85939   0.71360   0.00000  Uiso   1.00
O1370  O     0.40405   0.85544   0.78213   0.00000  Uiso   1.00
O1371  O     0.58824   0.81892   0.77013   0.00000  Uiso   1.00
O1372  O     0.47093   0.73610   0.73413   0.00000  Uiso   1.00
O1373  O     0.53678   0.92286   0.71360   0.00000  Uiso   1.00
Zn1374 Zn    0.52672   0.80661   0.78734   0.00000  Uiso   1.00
Zn1375 Zn    0.46713   0.79124   0.71875   0.00000  Uiso   1.00
Zn1376 Zn    0.54389   0.86442   0.70657   0.00000  Uiso   1.00
Zn1377 Zn    0.46226   0.87106   0.78733   0.00000  Uiso   1.00
C1378  C     0.71985   0.82640   0.75961   0.00000  Uiso   1.00
C1379  C     0.85301   0.83207   0.55333   0.00000  Uiso   1.00
C1380  C     0.86570   0.76185   0.56278   0.00000  Uiso   1.00
C1381  C     0.94742   0.84027   0.74023   0.00000  Uiso   1.00
C1382  C     0.80616   0.85930   0.92146   0.00000  Uiso   1.00
C1383  C     0.99294   0.84243   0.73710   0.00000  Uiso   1.00
C1384  C     0.67457   0.82224   0.76524   0.00000  Uiso   1.00
C1385  C     0.85113   0.99059   0.73848   0.00000  Uiso   1.00
C1386  C     0.81914   0.67809   0.76224   0.00000  Uiso   1.00
C1387  C     0.82186   0.72258   0.76100   0.00000  Uiso   1.00
C1388  C     0.84432   0.94495   0.74058   0.00000  Uiso   1.00
C1389  C     0.78914   0.90567   0.98987   0.00000  Uiso   1.00
C1390  C     0.85237   0.81411   0.62914   0.00000  Uiso   1.00
C1391  C     0.81487   0.85130   0.87134   0.00000  Uiso   1.00
C1392  C     0.85934   0.74867   0.51942   0.00000  Uiso   1.00
C1393  C     0.86021   0.80340   0.58028   0.00000  Uiso   1.00
C1394  C     0.79329   0.89839   0.94322   0.00000  Uiso   1.00
C1395  C     0.87966   0.73249   0.59003   0.00000  Uiso   1.00
C1396  C     0.92595   0.74550   0.59180   0.00000  Uiso   1.00
C1397  C     0.98021   0.79524   0.80265   0.00000  Uiso   1.00
C1398  C     0.67129   0.77579   0.82967   0.00000  Uiso   1.00
C1399  C     0.89219   0.68155   0.71124   0.00000  Uiso   1.00
C1400  C     0.80251   0.87869   0.51338   0.00000  Uiso   1.00
C1401  C     0.92797   0.98996   0.68504   0.00000  Uiso   1.00
C1402  C     0.86880   0.70761   0.99891   0.00000  Uiso   1.00
C1403  C     0.86450   0.87621   0.56469   0.00000  Uiso   1.00
C1404  C     0.78379   0.93175   0.91712   0.00000  Uiso   1.00
C1405  C     0.77316   0.97315   0.94369   0.00000  Uiso   1.00
C1406  C     0.79137   0.76560   0.90133   0.00000  Uiso   1.00
C1407  C     0.68855   0.86720   0.70242   0.00000  Uiso   1.00
C1408  C     0.81983   0.84260   0.99166   0.00000  Uiso   1.00
C1409  C     0.81403   0.82933   0.94798   0.00000  Uiso   1.00
C1410  C     0.83864   0.81728   0.51402   0.00000  Uiso   1.00
C1411  C     0.84318   0.77540   0.99643   0.00000  Uiso   1.00
C1412  C     0.82968   0.76035   0.95720   0.00000  Uiso   1.00
C1413  C     0.81415   0.78620   0.93389   0.00000  Uiso   1.00
H1414  H     0.78898   0.99539   0.78038   0.00000  Uiso   1.00
H1415  H     0.69280   0.75470   0.80718   0.00000  Uiso   1.00
H1416  H     0.69006   0.80054   0.84704   0.00000  Uiso   1.00
H1417  H     0.98166   0.75706   0.85573   0.00000  Uiso   1.00
H1418  H     0.95849   0.81476   0.82735   0.00000  Uiso   1.00
H1419  H     0.96130   0.76891   0.78738   0.00000  Uiso   1.00
H1420  H     0.93816   0.97194   0.70807   0.00000  Uiso   1.00
H1421  H     0.91793   0.96901   0.65757   0.00000  Uiso   1.00
H1422  H     0.95590   0.67863   0.66909   0.00000  Uiso   1.00
H1423  H     0.88380   0.69925   0.68662   0.00000  Uiso   1.00
H1424  H     0.90582   0.70468   0.73484   0.00000  Uiso   1.00
H1425  H     0.82964   0.72769   0.94516   0.00000  Uiso   1.00
H1426  H     0.74272   0.96824   0.96991   0.00000  Uiso   1.00
H1427  H     0.79923   0.98753   0.95947   0.00000  Uiso   1.00
H1428  H     0.76941   0.99522   0.92034   0.00000  Uiso   1.00
H1429  H     0.81212   0.93958   0.88897   0.00000  Uiso   1.00
H1430  H     0.75613   0.91885   0.90306   0.00000  Uiso   1.00
H1431  H     0.79711   0.88571   0.54940   0.00000  Uiso   1.00
H1432  H     0.77662   0.93297   0.50887   0.00000  Uiso   1.00
H1433  H     0.94699   0.74566   0.55707   0.00000  Uiso   1.00
H1434  H     0.92999   0.77708   0.60936   0.00000  Uiso   1.00
H1435  H     0.93571   0.72295   0.61049   0.00000  Uiso   1.00
H1436  H     0.85903   0.73186   0.62485   0.00000  Uiso   1.00
H1437  H     0.87652   0.69955   0.57590   0.00000  Uiso   1.00
N1438  N     0.87649   0.67491   0.98259   0.00000  Uiso   1.00
N1439  N     0.87385   0.91136   0.57380   0.00000  Uiso   1.00
N1440  N     0.77300   0.74898   0.87551   0.00000  Uiso   1.00
N1441  N     0.71160   0.88689   0.67482   0.00000  Uiso   1.00
O1442  O     0.83333   0.83333   0.75000   0.00000  Uiso   1.00
O1443  O     0.82118   0.79304   0.65458   0.00000  Uiso   1.00
O1444  O     0.79607   0.87058   0.84968   0.00000  Uiso   1.00
O1445  O     0.87491   0.84425   0.64606   0.00000  Uiso   1.00
O1446  O     0.84118   0.82546   0.84968   0.00000  Uiso   1.00
O1447  O     0.84597   0.74686   0.78213   0.00000  Uiso   1.00
O1448  O     0.81298   0.92751   0.77013   0.00000  Uiso   1.00
O1449  O     0.74078   0.79958   0.73413   0.00000  Uiso   1.00
O1450  O     0.93360   0.85939   0.71360   0.00000  Uiso   1.00
O1451  O     0.73738   0.85544   0.78213   0.00000  Uiso   1.00
O1452  O     0.92158   0.81892   0.77013   0.00000  Uiso   1.00
O1453  O     0.80426   0.73610   0.73413   0.00000  Uiso   1.00
O1454  O     0.87012   0.92286   0.71360   0.00000  Uiso   1.00
Zn1455 Zn    0.86005   0.80661   0.78734   0.00000  Uiso   1.00
Zn1456 Zn    0.80046   0.79124   0.71875   0.00000  Uiso   1.00
Zn1457 Zn    0.87723   0.86442   0.70657   0.00000  Uiso   1.00
Zn1458 Zn    0.79560   0.87106   0.78733   0.00000  Uiso   1.00
loop_
_geom_bond_atom_site_label_1
_geom_bond_atom_site_label_2
_geom_bond_distance
_geom_bond_site_symmetry_2
_ccdc_geom_bond_type
C1     O72     1.263   .     A
C1     O74     1.263   .     A
C1     C7      1.437   .     S
C2     C16     1.398   .     A
C2     C26     1.452   .     S
C2     C33     1.419   .     A
C3     C18     1.529   .     S
C3     C15     1.413   .     A
C3     C16     1.415   .     A
C4     O75     1.265   .     A
C4     C6      1.463   .     S
C4     O73     1.287   .     A
C5     C17     1.437   .     A
C5     C32     1.430   .     A
C5     C14     1.494   .     S
C6     C88     1.367   .     S
C6     C111    1.455   .     S
C7     C168    1.367   1_455 S
C7     C182    1.535   1_455 S
C8     C11     1.470   .     S
C8     C252    1.342   .     S
C8     C265    1.540   .     S
C9     C10     1.438   .     S
C9     C494    1.342   1_545 S
C9     H523    1.087   1_545 S
C10    O76     1.272   .     A
C10    O70     1.278   .     A
C11    O71     1.286   .     A
C11    O77     1.267   .     A
C12    C17     1.402   .     A
C12    C752    1.382   .     S
C12    H784    1.080   .     S
C13    O66     1.271   .     A
C13    C16     1.469   .     S
C13    O68     1.281   .     A
C14    O67     1.282   .     A
C14    O69     1.300   .     A
C15    C754    1.452   1_554 S
C15    C763    1.418   1_554 S
C17    C27     1.532   .     S
C18    C19     1.527   .     S
C18    H60     1.109   .     S
C18    H59     1.108   .     S
C19    H56     1.111   .     S
C19    H57     1.110   .     S
C19    H58     1.110   .     S
C20    H41     1.112   .     S
C20    H42     1.112   .     S
C20    C88     1.535   .     S
C20    C102    1.534   .     S
C21    H38     1.111   .     S
C21    H39     1.111   .     S
C21    C182    1.534   1_455 S
C21    H202    1.111   1_455 S
C22    H47     1.111   .     S
C22    H46     1.112   .     S
C22    C494    1.540   1_545 S
C22    C510    1.528   1_545 S
C23    H54     1.079   .     S
C23    C741    1.382   1_554 S
C23    C760    1.405   1_554 S
C24    H44     1.111   .     S
C24    H43     1.111   .     S
C24    C265    1.528   .     S
C24    H288    1.111   .     S
C25    N61     1.158   .     T
C25    C744    1.452   .     S
C26    N62     1.158   .     T
C27    H52     1.112   .     S
C27    H53     1.111   .     S
C27    C28     1.531   .     S
C28    H51     1.111   .     S
C28    H50     1.109   .     S
C28    H49     1.111   .     S
C29    N63     1.158   .     T
C29    C36     1.448   .     S
C30    N64     1.157   .     T
C30    C168    1.455   1_455 S
C31    C32     1.417   .     A
C31    C752    1.405   .     S
C31    C762    1.427   .     S
C32    C36     1.419   .     A
C33    C760    1.427   1_554 S
C33    C763    1.421   1_554 S
C34    C35     1.405   .     A
C34    C762    1.421   .     S
C34    C744    1.418   .     S
C35    C36     1.392   .     A
C35    H48     1.083   .     S
H37    C252    1.087   .     S
H40    C102    1.111   .     S
H45    C510    1.111   1_545 S
H55    C741    1.080   1_554 S
O65    Zn79    1.936   .     S
O65    Zn80    1.931   .     S
O65    Zn81    1.940   .     S
O65    Zn78    1.956   .     S
O66    Zn79    1.918   .     S
O67    Zn81    1.924   .     S
O68    Zn80    1.920   .     S
O69    Zn78    1.916   .     S
O70    Zn78    1.922   .     S
O71    Zn81    1.924   .     S
O72    Zn79    1.945   .     S
O73    Zn80    1.951   .     S
O74    Zn81    1.944   .     S
O75    Zn78    1.939   .     S
O76    Zn79    1.932   .     S
O77    Zn80    1.929   .     S
C82    O153    1.263   .     A
C82    O155    1.263   .     A
C82    C88     1.437   .     S
C83    C97     1.398   .     A
C83    C107    1.452   .     S
C83    C114    1.419   .     A
C84    C99     1.529   .     S
C84    C96     1.413   .     A
C84    C97     1.415   .     A
C85    O156    1.265   .     A
C85    C87     1.463   .     S
C85    O154    1.287   .     A
C86    C98     1.437   .     A
C86    C113    1.430   .     A
C86    C95     1.494   .     S
C87    C169    1.367   .     S
C87    C192    1.455   .     S
C89    C92     1.470   .     S
C89    C333    1.342   .     S
C89    C346    1.540   .     S
C90    C91     1.438   .     S
C90    C575    1.342   1_545 S
C90    H604    1.087   1_545 S
C91    O157    1.272   .     A
C91    O151    1.278   .     A
C92    O152    1.286   .     A
C92    O158    1.267   .     A
C93    C98     1.402   .     A
C93    C833    1.382   .     S
C93    H865    1.080   .     S
C94    O147    1.271   .     A
C94    C97     1.469   .     S
C94    O149    1.281   .     A
C95    O148    1.282   .     A
C95    O150    1.300   .     A
C96    C835    1.452   1_554 S
C96    C844    1.418   1_554 S
C98    C108    1.532   .     S
C99    C100    1.527   .     S
C99    H141    1.109   .     S
C99    H140    1.108   .     S
C100   H137    1.111   .     S
C100   H138    1.110   .     S
C100   H139    1.110   .     S
C101   H122    1.112   .     S
C101   H123    1.112   .     S
C101   C169    1.535   .     S
C101   C183    1.534   .     S
C102   H119    1.111   .     S
C102   H120    1.111   .     S
C103   H128    1.111   .     S
C103   H127    1.112   .     S
C103   C575    1.540   1_545 S
C103   C591    1.528   1_545 S
C104   H135    1.079   .     S
C104   C822    1.382   1_554 S
C104   C841    1.405   1_554 S
C105   H125    1.111   .     S
C105   H124    1.111   .     S
C105   C346    1.528   .     S
C105   H369    1.111   .     S
C106   N142    1.158   .     T
C106   C825    1.452   .     S
C107   N143    1.158   .     T
C108   H133    1.112   .     S
C108   H134    1.111   .     S
C108   C109    1.531   .     S
C109   H132    1.111   .     S
C109   H131    1.109   .     S
C109   H130    1.111   .     S
C110   N144    1.158   .     T
C110   C117    1.448   .     S
C111   N145    1.157   .     T
C112   C113    1.417   .     A
C112   C833    1.405   .     S
C112   C843    1.427   .     S
C113   C117    1.419   .     A
C114   C841    1.427   1_554 S
C114   C844    1.421   1_554 S
C115   C116    1.405   .     A
C115   C843    1.421   .     S
C115   C825    1.418   .     S
C116   C117    1.392   .     A
C116   H129    1.083   .     S
H118   C333    1.087   .     S
H121   C183    1.111   .     S
H126   C591    1.111   1_545 S
H136   C822    1.080   1_554 S
O146   Zn160   1.936   .     S
O146   Zn161   1.931   .     S
O146   Zn162   1.940   .     S
O146   Zn159   1.956   .     S
O147   Zn160   1.918   .     S
O148   Zn162   1.924   .     S
O149   Zn161   1.920   .     S
O150   Zn159   1.916   .     S
O151   Zn159   1.922   .     S
O152   Zn162   1.924   .     S
O153   Zn160   1.945   .     S
O154   Zn161   1.951   .     S
O155   Zn162   1.944   .     S
O156   Zn159   1.939   .     S
O157   Zn160   1.932   .     S
O158   Zn161   1.929   .     S
C163   O234    1.263   .     A
C163   O236    1.263   .     A
C163   C169    1.437   .     S
C164   C178    1.398   .     A
C164   C188    1.452   .     S
C164   C195    1.419   .     A
C165   C180    1.529   .     S
C165   C177    1.413   .     A
C165   C178    1.415   .     A
C166   O237    1.265   .     A
C166   C168    1.463   .     S
C166   O235    1.287   .     A
C167   C179    1.437   .     A
C167   C194    1.430   .     A
C167   C176    1.494   .     S
C168   C7      1.367   1_655 S
C168   C30     1.455   1_655 S
C170   C173    1.470   .     S
C170   C414    1.342   .     S
C170   C427    1.540   .     S
C171   C172    1.438   .     S
C171   C656    1.342   1_545 S
C171   H685    1.087   1_545 S
C172   O238    1.272   .     A
C172   O232    1.278   .     A
C173   O233    1.286   .     A
C173   O239    1.267   .     A
C174   C179    1.402   .     A
C174   C914    1.382   .     S
C174   H946    1.080   .     S
C175   O228    1.271   .     A
C175   C178    1.469   .     S
C175   O230    1.281   .     A
C176   O229    1.282   .     A
C176   O231    1.300   .     A
C177   C916    1.452   1_554 S
C177   C925    1.418   1_554 S
C179   C189    1.532   .     S
C180   C181    1.527   .     S
C180   H222    1.109   .     S
C180   H221    1.108   .     S
C181   H218    1.111   .     S
C181   H219    1.110   .     S
C181   H220    1.110   .     S
C182   H203    1.112   .     S
C182   H204    1.112   .     S
C182   C7      1.535   1_655 S
C182   C21     1.534   1_655 S
C183   H200    1.111   .     S
C183   H201    1.111   .     S
C184   H209    1.111   .     S
C184   H208    1.112   .     S
C184   C656    1.540   1_545 S
C184   C672    1.528   1_545 S
C185   H216    1.079   .     S
C185   C903    1.382   1_554 S
C185   C922    1.405   1_554 S
C186   H206    1.111   .     S
C186   H205    1.111   .     S
C186   C427    1.528   .     S
C186   H450    1.111   .     S
C187   N223    1.158   .     T
C187   C906    1.452   .     S
C188   N224    1.158   .     T
C189   H214    1.112   .     S
C189   H215    1.111   .     S
C189   C190    1.531   .     S
C190   H213    1.111   .     S
C190   H212    1.109   .     S
C190   H211    1.111   .     S
C191   N225    1.158   .     T
C191   C198    1.448   .     S
C192   N226    1.157   .     T
C193   C194    1.417   .     A
C193   C914    1.405   .     S
C193   C924    1.427   .     S
C194   C198    1.419   .     A
C195   C922    1.427   1_554 S
C195   C925    1.421   1_554 S
C196   C197    1.405   .     A
C196   C924    1.421   .     S
C196   C906    1.418   .     S
C197   C198    1.392   .     A
C197   H210    1.083   .     S
H199   C414    1.087   .     S
H202   C21     1.111   1_655 S
H207   C672    1.111   1_545 S
H217   C903    1.080   1_554 S
O227   Zn241   1.936   .     S
O227   Zn242   1.931   .     S
O227   Zn243   1.940   .     S
O227   Zn240   1.956   .     S
O228   Zn241   1.918   .     S
O229   Zn243   1.924   .     S
O230   Zn242   1.920   .     S
O231   Zn240   1.916   .     S
O232   Zn240   1.922   .     S
O233   Zn243   1.924   .     S
O234   Zn241   1.945   .     S
O235   Zn242   1.951   .     S
O236   Zn243   1.944   .     S
O237   Zn240   1.939   .     S
O238   Zn241   1.932   .     S
O239   Zn242   1.929   .     S
C244   O315    1.263   .     A
C244   O317    1.263   .     A
C244   C250    1.437   .     S
C245   C259    1.398   .     A
C245   C269    1.452   .     S
C245   C276    1.419   .     A
C246   C261    1.529   .     S
C246   C258    1.413   .     A
C246   C259    1.415   .     A
C247   O318    1.265   .     A
C247   C249    1.463   .     S
C247   O316    1.287   .     A
C248   C260    1.437   .     A
C248   C275    1.430   .     A
C248   C257    1.494   .     S
C249   C331    1.367   .     S
C249   C354    1.455   .     S
C250   C411    1.367   1_455 S
C250   C425    1.535   1_455 S
C251   C254    1.470   .     S
C251   C495    1.342   .     S
C251   C508    1.540   .     S
C252   C253    1.438   .     S
C253   O319    1.272   .     A
C253   O313    1.278   .     A
C254   O314    1.286   .     A
C254   O320    1.267   .     A
C255   C260    1.402   .     A
C255   C995    1.382   .     S
C255   H1027   1.080   .     S
C256   O309    1.271   .     A
C256   C259    1.469   .     S
C256   O311    1.281   .     A
C257   O310    1.282   .     A
C257   O312    1.300   .     A
C258   C997    1.452   1_554 S
C258   C1006   1.418   1_554 S
C260   C270    1.532   .     S
C261   C262    1.527   .     S
C261   H303    1.109   .     S
C261   H302    1.108   .     S
C262   H299    1.111   .     S
C262   H300    1.110   .     S
C262   H301    1.110   .     S
C263   H284    1.112   .     S
C263   H285    1.112   .     S
C263   C331    1.535   .     S
C263   C345    1.534   .     S
C264   H281    1.111   .     S
C264   H282    1.111   .     S
C264   C425    1.534   1_455 S
C264   H445    1.111   1_455 S
C265   H290    1.111   .     S
C265   H289    1.112   .     S
C266   H297    1.079   .     S
C266   C984    1.382   1_554 S
C266   C1003   1.405   1_554 S
C267   H287    1.111   .     S
C267   H286    1.111   .     S
C267   C508    1.528   .     S
C267   H531    1.111   .     S
C268   N304    1.158   .     T
C268   C987    1.452   .     S
C269   N305    1.158   .     T
C270   H295    1.112   .     S
C270   H296    1.111   .     S
C270   C271    1.531   .     S
C271   H294    1.111   .     S
C271   H293    1.109   .     S
C271   H292    1.111   .     S
C272   N306    1.158   .     T
C272   C279    1.448   .     S
C273   N307    1.157   .     T
C273   C411    1.455   1_455 S
C274   C275    1.417   .     A
C274   C995    1.405   .     S
C274   C1005   1.427   .     S
C275   C279    1.419   .     A
C276   C1003   1.427   1_554 S
C276   C1006   1.421   1_554 S
C277   C278    1.405   .     A
C277   C1005   1.421   .     S
C277   C987    1.418   .     S
C278   C279    1.392   .     A
C278   H291    1.083   .     S
H280   C495    1.087   .     S
H283   C345    1.111   .     S
H298   C984    1.080   1_554 S
O308   Zn322   1.936   .     S
O308   Zn323   1.931   .     S
O308   Zn324   1.940   .     S
O308   Zn321   1.956   .     S
O309   Zn322   1.918   .     S
O310   Zn324   1.924   .     S
O311   Zn323   1.920   .     S
O312   Zn321   1.916   .     S
O313   Zn321   1.922   .     S
O314   Zn324   1.924   .     S
O315   Zn322   1.945   .     S
O316   Zn323   1.951   .     S
O317   Zn324   1.944   .     S
O318   Zn321   1.939   .     S
O319   Zn322   1.932   .     S
O320   Zn323   1.929   .     S
C325   O396    1.263   .     A
C325   O398    1.263   .     A
C325   C331    1.437   .     S
C326   C340    1.398   .     A
C326   C350    1.452   .     S
C326   C357    1.419   .     A
C327   C342    1.529   .     S
C327   C339    1.413   .     A
C327   C340    1.415   .     A
C328   O399    1.265   .     A
C328   C330    1.463   .     S
C328   O397    1.287   .     A
C329   C341    1.437   .     A
C329   C356    1.430   .     A
C329   C338    1.494   .     S
C330   C412    1.367   .     S
C330   C435    1.455   .     S
C332   C335    1.470   .     S
C332   C576    1.342   .     S
C332   C589    1.540   .     S
C333   C334    1.438   .     S
C334   O400    1.272   .     A
C334   O394    1.278   .     A
C335   O395    1.286   .     A
C335   O401    1.267   .     A
C336   C341    1.402   .     A
C336   C1076   1.382   .     S
C336   H1108   1.080   .     S
C337   O390    1.271   .     A
C337   C340    1.469   .     S
C337   O392    1.281   .     A
C338   O391    1.282   .     A
C338   O393    1.300   .     A
C339   C1078   1.452   1_554 S
C339   C1087   1.418   1_554 S
C341   C351    1.532   .     S
C342   C343    1.527   .     S
C342   H384    1.109   .     S
C342   H383    1.108   .     S
C343   H380    1.111   .     S
C343   H381    1.110   .     S
C343   H382    1.110   .     S
C344   H365    1.112   .     S
C344   H366    1.112   .     S
C344   C412    1.535   .     S
C344   C426    1.534   .     S
C345   H362    1.111   .     S
C345   H363    1.111   .     S
C346   H371    1.111   .     S
C346   H370    1.112   .     S
C347   H378    1.079   .     S
C347   C1065   1.382   1_554 S
C347   C1084   1.405   1_554 S
C348   H368    1.111   .     S
C348   H367    1.111   .     S
C348   C589    1.528   .     S
C348   H612    1.111   .     S
C349   N385    1.158   .     T
C349   C1068   1.452   .     S
C350   N386    1.158   .     T
C351   H376    1.112   .     S
C351   H377    1.111   .     S
C351   C352    1.531   .     S
C352   H375    1.111   .     S
C352   H374    1.109   .     S
C352   H373    1.111   .     S
C353   N387    1.158   .     T
C353   C360    1.448   .     S
C354   N388    1.157   .     T
C355   C356    1.417   .     A
C355   C1076   1.405   .     S
C355   C1086   1.427   .     S
C356   C360    1.419   .     A
C357   C1084   1.427   1_554 S
C357   C1087   1.421   1_554 S
C358   C359    1.405   .     A
C358   C1086   1.421   .     S
C358   C1068   1.418   .     S
C359   C360    1.392   .     A
C359   H372    1.083   .     S
H361   C576    1.087   .     S
H364   C426    1.111   .     S
H379   C1065   1.080   1_554 S
O389   Zn403   1.936   .     S
O389   Zn404   1.931   .     S
O389   Zn405   1.940   .     S
O389   Zn402   1.956   .     S
O390   Zn403   1.918   .     S
O391   Zn405   1.924   .     S
O392   Zn404   1.920   .     S
O393   Zn402   1.916   .     S
O394   Zn402   1.922   .     S
O395   Zn405   1.924   .     S
O396   Zn403   1.945   .     S
O397   Zn404   1.951   .     S
O398   Zn405   1.944   .     S
O399   Zn402   1.939   .     S
O400   Zn403   1.932   .     S
O401   Zn404   1.929   .     S
C406   O477    1.263   .     A
C406   O479    1.263   .     A
C406   C412    1.437   .     S
C407   C421    1.398   .     A
C407   C431    1.452   .     S
C407   C438    1.419   .     A
C408   C423    1.529   .     S
C408   C420    1.413   .     A
C408   C421    1.415   .     A
C409   O480    1.265   .     A
C409   C411    1.463   .     S
C409   O478    1.287   .     A
C410   C422    1.437   .     A
C410   C437    1.430   .     A
C410   C419    1.494   .     S
C411   C250    1.367   1_655 S
C411   C273    1.455   1_655 S
C413   C416    1.470   .     S
C413   C657    1.342   .     S
C413   C670    1.540   .     S
C414   C415    1.438   .     S
C415   O481    1.272   .     A
C415   O475    1.278   .     A
C416   O476    1.286   .     A
C416   O482    1.267   .     A
C417   C422    1.402   .     A
C417   C1157   1.382   .     S
C417   H1189   1.080   .     S
C418   O471    1.271   .     A
C418   C421    1.469   .     S
C418   O473    1.281   .     A
C419   O472    1.282   .     A
C419   O474    1.300   .     A
C420   C1159   1.452   1_554 S
C420   C1168   1.418   1_554 S
C422   C432    1.532   .     S
C423   C424    1.527   .     S
C423   H465    1.109   .     S
C423   H464    1.108   .     S
C424   H461    1.111   .     S
C424   H462    1.110   .     S
C424   H463    1.110   .     S
C425   H446    1.112   .     S
C425   H447    1.112   .     S
C425   C250    1.535   1_655 S
C425   C264    1.534   1_655 S
C426   H443    1.111   .     S
C426   H444    1.111   .     S
C427   H452    1.111   .     S
C427   H451    1.112   .     S
C428   H459    1.079   .     S
C428   C1146   1.382   1_554 S
C428   C1165   1.405   1_554 S
C429   H449    1.111   .     S
C429   H448    1.111   .     S
C429   C670    1.528   .     S
C429   H693    1.111   .     S
C430   N466    1.158   .     T
C430   C1149   1.452   .     S
C431   N467    1.158   .     T
C432   H457    1.112   .     S
C432   H458    1.111   .     S
C432   C433    1.531   .     S
C433   H456    1.111   .     S
C433   H455    1.109   .     S
C433   H454    1.111   .     S
C434   N468    1.158   .     T
C434   C441    1.448   .     S
C435   N469    1.157   .     T
C436   C437    1.417   .     A
C436   C1157   1.405   .     S
C436   C1167   1.427   .     S
C437   C441    1.419   .     A
C438   C1165   1.427   1_554 S
C438   C1168   1.421   1_554 S
C439   C440    1.405   .     A
C439   C1167   1.421   .     S
C439   C1149   1.418   .     S
C440   C441    1.392   .     A
C440   H453    1.083   .     S
H442   C657    1.087   .     S
H445   C264    1.111   1_655 S
H460   C1146   1.080   1_554 S
O470   Zn484   1.936   .     S
O470   Zn485   1.931   .     S
O470   Zn486   1.940   .     S
O470   Zn483   1.956   .     S
O471   Zn484   1.918   .     S
O472   Zn486   1.924   .     S
O473   Zn485   1.920   .     S
O474   Zn483   1.916   .     S
O475   Zn483   1.922   .     S
O476   Zn486   1.924   .     S
O477   Zn484   1.945   .     S
O478   Zn485   1.951   .     S
O479   Zn486   1.944   .     S
O480   Zn483   1.939   .     S
O481   Zn484   1.932   .     S
O482   Zn485   1.929   .     S
C487   O558    1.263   .     A
C487   O560    1.263   .     A
C487   C493    1.437   .     S
C488   C502    1.398   .     A
C488   C512    1.452   .     S
C488   C519    1.419   .     A
C489   C504    1.529   .     S
C489   C501    1.413   .     A
C489   C502    1.415   .     A
C490   O561    1.265   .     A
C490   C492    1.463   .     S
C490   O559    1.287   .     A
C491   C503    1.437   .     A
C491   C518    1.430   .     A
C491   C500    1.494   .     S
C492   C574    1.367   .     S
C492   C597    1.455   .     S
C493   C654    1.367   1_455 S
C493   C668    1.535   1_455 S
C494   C497    1.470   .     S
C494   C9      1.342   1_565 S
C494   C22     1.540   1_565 S
C495   C496    1.438   .     S
C496   O562    1.272   .     A
C496   O556    1.278   .     A
C497   O557    1.286   .     A
C497   O563    1.267   .     A
C498   C503    1.402   .     A
C498   C1238   1.382   .     S
C498   H1270   1.080   .     S
C499   O552    1.271   .     A
C499   C502    1.469   .     S
C499   O554    1.281   .     A
C500   O553    1.282   .     A
C500   O555    1.300   .     A
C501   C1240   1.452   1_554 S
C501   C1249   1.418   1_554 S
C503   C513    1.532   .     S
C504   C505    1.527   .     S
C504   H546    1.109   .     S
C504   H545    1.108   .     S
C505   H542    1.111   .     S
C505   H543    1.110   .     S
C505   H544    1.110   .     S
C506   H527    1.112   .     S
C506   H528    1.112   .     S
C506   C574    1.535   .     S
C506   C588    1.534   .     S
C507   H524    1.111   .     S
C507   H525    1.111   .     S
C507   C668    1.534   1_455 S
C507   H688    1.111   1_455 S
C508   H533    1.111   .     S
C508   H532    1.112   .     S
C509   H540    1.079   .     S
C509   C1227   1.382   1_554 S
C509   C1246   1.405   1_554 S
C510   H530    1.111   .     S
C510   H529    1.111   .     S
C510   C22     1.528   1_565 S
C510   H45     1.111   1_565 S
C511   N547    1.158   .     T
C511   C1230   1.452   .     S
C512   N548    1.158   .     T
C513   H538    1.112   .     S
C513   H539    1.111   .     S
C513   C514    1.531   .     S
C514   H537    1.111   .     S
C514   H536    1.109   .     S
C514   H535    1.111   .     S
C515   N549    1.158   .     T
C515   C522    1.448   .     S
C516   N550    1.157   .     T
C516   C654    1.455   1_455 S
C517   C518    1.417   .     A
C517   C1238   1.405   .     S
C517   C1248   1.427   .     S
C518   C522    1.419   .     A
C519   C1246   1.427   1_554 S
C519   C1249   1.421   1_554 S
C520   C521    1.405   .     A
C520   C1248   1.421   .     S
C520   C1230   1.418   .     S
C521   C522    1.392   .     A
C521   H534    1.083   .     S
H523   C9      1.087   1_565 S
H526   C588    1.111   .     S
H541   C1227   1.080   1_554 S
O551   Zn565   1.936   .     S
O551   Zn566   1.931   .     S
O551   Zn567   1.940   .     S
O551   Zn564   1.956   .     S
O552   Zn565   1.918   .     S
O553   Zn567   1.924   .     S
O554   Zn566   1.920   .     S
O555   Zn564   1.916   .     S
O556   Zn564   1.922   .     S
O557   Zn567   1.924   .     S
O558   Zn565   1.945   .     S
O559   Zn566   1.951   .     S
O560   Zn567   1.944   .     S
O561   Zn564   1.939   .     S
O562   Zn565   1.932   .     S
O563   Zn566   1.929   .     S
C568   O639    1.263   .     A
C568   O641    1.263   .     A
C568   C574    1.437   .     S
C569   C583    1.398   .     A
C569   C593    1.452   .     S
C569   C600    1.419   .     A
C570   C585    1.529   .     S
C570   C582    1.413   .     A
C570   C583    1.415   .     A
C571   O642    1.265   .     A
C571   C573    1.463   .     S
C571   O640    1.287   .     A
C572   C584    1.437   .     A
C572   C599    1.430   .     A
C572   C581    1.494   .     S
C573   C655    1.367   .     S
C573   C678    1.455   .     S
C575   C578    1.470   .     S
C575   C90     1.342   1_565 S
C575   C103    1.540   1_565 S
C576   C577    1.438   .     S
C577   O643    1.272   .     A
C577   O637    1.278   .     A
C578   O638    1.286   .     A
C578   O644    1.267   .     A
C579   C584    1.402   .     A
C579   C1319   1.382   .     S
C579   H1351   1.080   .     S
C580   O633    1.271   .     A
C580   C583    1.469   .     S
C580   O635    1.281   .     A
C581   O634    1.282   .     A
C581   O636    1.300   .     A
C582   C1321   1.452   1_554 S
C582   C1330   1.418   1_554 S
C584   C594    1.532   .     S
C585   C586    1.527   .     S
C585   H627    1.109   .     S
C585   H626    1.108   .     S
C586   H623    1.111   .     S
C586   H624    1.110   .     S
C586   H625    1.110   .     S
C587   H608    1.112   .     S
C587   H609    1.112   .     S
C587   C655    1.535   .     S
C587   C669    1.534   .     S
C588   H605    1.111   .     S
C588   H606    1.111   .     S
C589   H614    1.111   .     S
C589   H613    1.112   .     S
C590   H621    1.079   .     S
C590   C1308   1.382   1_554 S
C590   C1327   1.405   1_554 S
C591   H611    1.111   .     S
C591   H610    1.111   .     S
C591   C103    1.528   1_565 S
C591   H126    1.111   1_565 S
C592   N628    1.158   .     T
C592   C1311   1.452   .     S
C593   N629    1.158   .     T
C594   H619    1.112   .     S
C594   H620    1.111   .     S
C594   C595    1.531   .     S
C595   H618    1.111   .     S
C595   H617    1.109   .     S
C595   H616    1.111   .     S
C596   N630    1.158   .     T
C596   C603    1.448   .     S
C597   N631    1.157   .     T
C598   C599    1.417   .     A
C598   C1319   1.405   .     S
C598   C1329   1.427   .     S
C599   C603    1.419   .     A
C600   C1327   1.427   1_554 S
C600   C1330   1.421   1_554 S
C601   C602    1.405   .     A
C601   C1329   1.421   .     S
C601   C1311   1.418   .     S
C602   C603    1.392   .     A
C602   H615    1.083   .     S
H604   C90     1.087   1_565 S
H607   C669    1.111   .     S
H622   C1308   1.080   1_554 S
O632   Zn646   1.936   .     S
O632   Zn647   1.931   .     S
O632   Zn648   1.940   .     S
O632   Zn645   1.956   .     S
O633   Zn646   1.918   .     S
O634   Zn648   1.924   .     S
O635   Zn647   1.920   .     S
O636   Zn645   1.916   .     S
O637   Zn645   1.922   .     S
O638   Zn648   1.924   .     S
O639   Zn646   1.945   .     S
O640   Zn647   1.951   .     S
O641   Zn648   1.944   .     S
O642   Zn645   1.939   .     S
O643   Zn646   1.932   .     S
O644   Zn647   1.929   .     S
C649   O720    1.263   .     A
C649   O722    1.263   .     A
C649   C655    1.437   .     S
C650   C664    1.398   .     A
C650   C674    1.452   .     S
C650   C681    1.419   .     A
C651   C666    1.529   .     S
C651   C663    1.413   .     A
C651   C664    1.415   .     A
C652   O723    1.265   .     A
C652   C654    1.463   .     S
C652   O721    1.287   .     A
C653   C665    1.437   .     A
C653   C680    1.430   .     A
C653   C662    1.494   .     S
C654   C493    1.367   1_655 S
C654   C516    1.455   1_655 S
C656   C659    1.470   .     S
C656   C171    1.342   1_565 S
C656   C184    1.540   1_565 S
C657   C658    1.438   .     S
C658   O724    1.272   .     A
C658   O718    1.278   .     A
C659   O719    1.286   .     A
C659   O725    1.267   .     A
C660   C665    1.402   .     A
C660   C1400   1.382   .     S
C660   H1432   1.080   .     S
C661   O714    1.271   .     A
C661   C664    1.469   .     S
C661   O716    1.281   .     A
C662   O715    1.282   .     A
C662   O717    1.300   .     A
C663   C1402   1.452   1_554 S
C663   C1411   1.418   1_554 S
C665   C675    1.532   .     S
C666   C667    1.527   .     S
C666   H708    1.109   .     S
C666   H707    1.108   .     S
C667   H704    1.111   .     S
C667   H705    1.110   .     S
C667   H706    1.110   .     S
C668   H689    1.112   .     S
C668   H690    1.112   .     S
C668   C493    1.535   1_655 S
C668   C507    1.534   1_655 S
C669   H686    1.111   .     S
C669   H687    1.111   .     S
C670   H695    1.111   .     S
C670   H694    1.112   .     S
C671   H702    1.079   .     S
C671   C1389   1.382   1_554 S
C671   C1408   1.405   1_554 S
C672   H692    1.111   .     S
C672   H691    1.111   .     S
C672   C184    1.528   1_565 S
C672   H207    1.111   1_565 S
C673   N709    1.158   .     T
C673   C1392   1.452   .     S
C674   N710    1.158   .     T
C675   H700    1.112   .     S
C675   H701    1.111   .     S
C675   C676    1.531   .     S
C676   H699    1.111   .     S
C676   H698    1.109   .     S
C676   H697    1.111   .     S
C677   N711    1.158   .     T
C677   C684    1.448   .     S
C678   N712    1.157   .     T
C679   C680    1.417   .     A
C679   C1400   1.405   .     S
C679   C1410   1.427   .     S
C680   C684    1.419   .     A
C681   C1408   1.427   1_554 S
C681   C1411   1.421   1_554 S
C682   C683    1.405   .     A
C682   C1410   1.421   .     S
C682   C1392   1.418   .     S
C683   C684    1.392   .     A
C683   H696    1.083   .     S
H685   C171    1.087   1_565 S
H688   C507    1.111   1_655 S
H703   C1389   1.080   1_554 S
O713   Zn727   1.936   .     S
O713   Zn728   1.931   .     S
O713   Zn729   1.940   .     S
O713   Zn726   1.956   .     S
O714   Zn727   1.918   .     S
O715   Zn729   1.924   .     S
O716   Zn728   1.920   .     S
O717   Zn726   1.916   .     S
O718   Zn726   1.922   .     S
O719   Zn729   1.924   .     S
O720   Zn727   1.945   .     S
O721   Zn728   1.951   .     S
O722   Zn729   1.944   .     S
O723   Zn726   1.939   .     S
O724   Zn727   1.932   .     S
O725   Zn728   1.929   .     S
C730   O801    1.263   .     A
C730   O803    1.263   .     A
C730   C736    1.437   .     S
C731   C745    1.398   .     A
C731   C755    1.452   .     S
C731   C762    1.419   .     A
C732   C747    1.529   .     S
C732   C744    1.413   .     A
C732   C745    1.415   .     A
C733   O804    1.265   .     A
C733   C735    1.463   .     S
C733   O802    1.287   .     A
C734   C746    1.437   .     A
C734   C761    1.430   .     A
C734   C743    1.494   .     S
C735   C817    1.367   .     S
C735   C840    1.455   .     S
C736   C897    1.367   1_455 S
C736   C911    1.535   1_455 S
C737   C740    1.470   .     S
C737   C981    1.342   .     S
C737   C994    1.540   .     S
C738   C739    1.438   .     S
C738   C1223   1.342   1_545 S
C738   H1252   1.087   1_545 S
C739   O805    1.272   .     A
C739   O799    1.278   .     A
C740   O800    1.286   .     A
C740   O806    1.267   .     A
C741   C746    1.402   .     A
C741   C23     1.382   1_556 S
C741   H55     1.080   1_556 S
C742   O795    1.271   .     A
C742   C745    1.469   .     S
C742   O797    1.281   .     A
C743   O796    1.282   .     A
C743   O798    1.300   .     A
C746   C756    1.532   .     S
C747   C748    1.527   .     S
C747   H789    1.109   .     S
C747   H788    1.108   .     S
C748   H785    1.111   .     S
C748   H786    1.110   .     S
C748   H787    1.110   .     S
C749   H770    1.112   .     S
C749   H771    1.112   .     S
C749   C817    1.535   .     S
C749   C831    1.534   .     S
C750   H767    1.111   .     S
C750   H768    1.111   .     S
C750   C911    1.534   1_455 S
C750   H931    1.111   1_455 S
C751   H776    1.111   .     S
C751   H775    1.112   .     S
C751   C1223   1.540   1_545 S
C751   C1239   1.528   1_545 S
C752   H783    1.079   .     S
C753   H773    1.111   .     S
C753   H772    1.111   .     S
C753   C994    1.528   .     S
C753   H1017   1.111   .     S
C754   N790    1.158   .     T
C754   C15     1.452   1_556 S
C755   N791    1.158   .     T
C756   H781    1.112   .     S
C756   H782    1.111   .     S
C756   C757    1.531   .     S
C757   H780    1.111   .     S
C757   H779    1.109   .     S
C757   H778    1.111   .     S
C758   N792    1.158   .     T
C758   C765    1.448   .     S
C759   N793    1.157   .     T
C759   C897    1.455   1_455 S
C760   C761    1.417   .     A
C760   C23     1.405   1_556 S
C760   C33     1.427   1_556 S
C761   C765    1.419   .     A
C763   C764    1.405   .     A
C763   C33     1.421   1_556 S
C763   C15     1.418   1_556 S
C764   C765    1.392   .     A
C764   H777    1.083   .     S
H766   C981    1.087   .     S
H769   C831    1.111   .     S
H774   C1239   1.111   1_545 S
O794   Zn808   1.936   .     S
O794   Zn809   1.931   .     S
O794   Zn810   1.940   .     S
O794   Zn807   1.956   .     S
O795   Zn808   1.918   .     S
O796   Zn810   1.924   .     S
O797   Zn809   1.920   .     S
O798   Zn807   1.916   .     S
O799   Zn807   1.922   .     S
O800   Zn810   1.924   .     S
O801   Zn808   1.945   .     S
O802   Zn809   1.951   .     S
O803   Zn810   1.944   .     S
O804   Zn807   1.939   .     S
O805   Zn808   1.932   .     S
O806   Zn809   1.929   .     S
C811   O882    1.263   .     A
C811   O884    1.263   .     A
C811   C817    1.437   .     S
C812   C826    1.398   .     A
C812   C836    1.452   .     S
C812   C843    1.419   .     A
C813   C828    1.529   .     S
C813   C825    1.413   .     A
C813   C826    1.415   .     A
C814   O885    1.265   .     A
C814   C816    1.463   .     S
C814   O883    1.287   .     A
C815   C827    1.437   .     A
C815   C842    1.430   .     A
C815   C824    1.494   .     S
C816   C898    1.367   .     S
C816   C921    1.455   .     S
C818   C821    1.470   .     S
C818   C1062   1.342   .     S
C818   C1075   1.540   .     S
C819   C820    1.438   .     S
C819   C1304   1.342   1_545 S
C819   H1333   1.087   1_545 S
C820   O886    1.272   .     A
C820   O880    1.278   .     A
C821   O881    1.286   .     A
C821   O887    1.267   .     A
C822   C827    1.402   .     A
C822   C104    1.382   1_556 S
C822   H136    1.080   1_556 S
C823   O876    1.271   .     A
C823   C826    1.469   .     S
C823   O878    1.281   .     A
C824   O877    1.282   .     A
C824   O879    1.300   .     A
C827   C837    1.532   .     S
C828   C829    1.527   .     S
C828   H870    1.109   .     S
C828   H869    1.108   .     S
C829   H866    1.111   .     S
C829   H867    1.110   .     S
C829   H868    1.110   .     S
C830   H851    1.112   .     S
C830   H852    1.112   .     S
C830   C898    1.535   .     S
C830   C912    1.534   .     S
C831   H848    1.111   .     S
C831   H849    1.111   .     S
C832   H857    1.111   .     S
C832   H856    1.112   .     S
C832   C1304   1.540   1_545 S
C832   C1320   1.528   1_545 S
C833   H864    1.079   .     S
C834   H854    1.111   .     S
C834   H853    1.111   .     S
C834   C1075   1.528   .     S
C834   H1098   1.111   .     S
C835   N871    1.158   .     T
C835   C96     1.452   1_556 S
C836   N872    1.158   .     T
C837   H862    1.112   .     S
C837   H863    1.111   .     S
C837   C838    1.531   .     S
C838   H861    1.111   .     S
C838   H860    1.109   .     S
C838   H859    1.111   .     S
C839   N873    1.158   .     T
C839   C846    1.448   .     S
C840   N874    1.157   .     T
C841   C842    1.417   .     A
C841   C104    1.405   1_556 S
C841   C114    1.427   1_556 S
C842   C846    1.419   .     A
C844   C845    1.405   .     A
C844   C114    1.421   1_556 S
C844   C96     1.418   1_556 S
C845   C846    1.392   .     A
C845   H858    1.083   .     S
H847   C1062   1.087   .     S
H850   C912    1.111   .     S
H855   C1320   1.111   1_545 S
O875   Zn889   1.936   .     S
O875   Zn890   1.931   .     S
O875   Zn891   1.940   .     S
O875   Zn888   1.956   .     S
O876   Zn889   1.918   .     S
O877   Zn891   1.924   .     S
O878   Zn890   1.920   .     S
O879   Zn888   1.916   .     S
O880   Zn888   1.922   .     S
O881   Zn891   1.924   .     S
O882   Zn889   1.945   .     S
O883   Zn890   1.951   .     S
O884   Zn891   1.944   .     S
O885   Zn888   1.939   .     S
O886   Zn889   1.932   .     S
O887   Zn890   1.929   .     S
C892   O963    1.263   .     A
C892   O965    1.263   .     A
C892   C898    1.437   .     S
C893   C907    1.398   .     A
C893   C917    1.452   .     S
C893   C924    1.419   .     A
C894   C909    1.529   .     S
C894   C906    1.413   .     A
C894   C907    1.415   .     A
C895   O966    1.265   .     A
C895   C897    1.463   .     S
C895   O964    1.287   .     A
C896   C908    1.437   .     A
C896   C923    1.430   .     A
C896   C905    1.494   .     S
C897   C736    1.367   1_655 S
C897   C759    1.455   1_655 S
C899   C902    1.470   .     S
C899   C1143   1.342   .     S
C899   C1156   1.540   .     S
C900   C901    1.438   .     S
C900   C1385   1.342   1_545 S
C900   H1414   1.087   1_545 S
C901   O967    1.272   .     A
C901   O961    1.278   .     A
C902   O962    1.286   .     A
C902   O968    1.267   .     A
C903   C908    1.402   .     A
C903   C185    1.382   1_556 S
C903   H217    1.080   1_556 S
C904   O957    1.271   .     A
C904   C907    1.469   .     S
C904   O959    1.281   .     A
C905   O958    1.282   .     A
C905   O960    1.300   .     A
C908   C918    1.532   .     S
C909   C910    1.527   .     S
C909   H951    1.109   .     S
C909   H950    1.108   .     S
C910   H947    1.111   .     S
C910   H948    1.110   .     S
C910   H949    1.110   .     S
C911   H932    1.112   .     S
C911   H933    1.112   .     S
C911   C736    1.535   1_655 S
C911   C750    1.534   1_655 S
C912   H929    1.111   .     S
C912   H930    1.111   .     S
C913   H938    1.111   .     S
C913   H937    1.112   .     S
C913   C1385   1.540   1_545 S
C913   C1401   1.528   1_545 S
C914   H945    1.079   .     S
C915   H935    1.111   .     S
C915   H934    1.111   .     S
C915   C1156   1.528   .     S
C915   H1179   1.111   .     S
C916   N952    1.158   .     T
C916   C177    1.452   1_556 S
C917   N953    1.158   .     T
C918   H943    1.112   .     S
C918   H944    1.111   .     S
C918   C919    1.531   .     S
C919   H942    1.111   .     S
C919   H941    1.109   .     S
C919   H940    1.111   .     S
C920   N954    1.158   .     T
C920   C927    1.448   .     S
C921   N955    1.157   .     T
C922   C923    1.417   .     A
C922   C185    1.405   1_556 S
C922   C195    1.427   1_556 S
C923   C927    1.419   .     A
C925   C926    1.405   .     A
C925   C195    1.421   1_556 S
C925   C177    1.418   1_556 S
C926   C927    1.392   .     A
C926   H939    1.083   .     S
H928   C1143   1.087   .     S
H931   C750    1.111   1_655 S
H936   C1401   1.111   1_545 S
O956   Zn970   1.936   .     S
O956   Zn971   1.931   .     S
O956   Zn972   1.940   .     S
O956   Zn969   1.956   .     S
O957   Zn970   1.918   .     S
O958   Zn972   1.924   .     S
O959   Zn971   1.920   .     S
O960   Zn969   1.916   .     S
O961   Zn969   1.922   .     S
O962   Zn972   1.924   .     S
O963   Zn970   1.945   .     S
O964   Zn971   1.951   .     S
O965   Zn972   1.944   .     S
O966   Zn969   1.939   .     S
O967   Zn970   1.932   .     S
O968   Zn971   1.929   .     S
C973   O1044   1.263   .     A
C973   O1046   1.263   .     A
C973   C979    1.437   .     S
C974   C988    1.398   .     A
C974   C998    1.452   .     S
C974   C1005   1.419   .     A
C975   C990    1.529   .     S
C975   C987    1.413   .     A
C975   C988    1.415   .     A
C976   O1047   1.265   .     A
C976   C978    1.463   .     S
C976   O1045   1.287   .     A
C977   C989    1.437   .     A
C977   C1004   1.430   .     A
C977   C986    1.494   .     S
C978   C1060   1.367   .     S
C978   C1083   1.455   .     S
C979   C1140   1.367   1_455 S
C979   C1154   1.535   1_455 S
C980   C983    1.470   .     S
C980   C1224   1.342   .     S
C980   C1237   1.540   .     S
C981   C982    1.438   .     S
C982   O1048   1.272   .     A
C982   O1042   1.278   .     A
C983   O1043   1.286   .     A
C983   O1049   1.267   .     A
C984   C989    1.402   .     A
C984   C266    1.382   1_556 S
C984   H298    1.080   1_556 S
C985   O1038   1.271   .     A
C985   C988    1.469   .     S
C985   O1040   1.281   .     A
C986   O1039   1.282   .     A
C986   O1041   1.300   .     A
C989   C999    1.532   .     S
C990   C991    1.527   .     S
C990   H1032   1.109   .     S
C990   H1031   1.108   .     S
C991   H1028   1.111   .     S
C991   H1029   1.110   .     S
C991   H1030   1.110   .     S
C992   H1013   1.112   .     S
C992   H1014   1.112   .     S
C992   C1060   1.535   .     S
C992   C1074   1.534   .     S
C993   H1010   1.111   .     S
C993   H1011   1.111   .     S
C993   C1154   1.534   1_455 S
C993   H1174   1.111   1_455 S
C994   H1019   1.111   .     S
C994   H1018   1.112   .     S
C995   H1026   1.079   .     S
C996   H1016   1.111   .     S
C996   H1015   1.111   .     S
C996   C1237   1.528   .     S
C996   H1260   1.111   .     S
C997   N1033   1.158   .     T
C997   C258    1.452   1_556 S
C998   N1034   1.158   .     T
C999   H1024   1.112   .     S
C999   H1025   1.111   .     S
C999   C1000   1.531   .     S
C1000  H1023   1.111   .     S
C1000  H1022   1.109   .     S
C1000  H1021   1.111   .     S
C1001  N1035   1.158   .     T
C1001  C1008   1.448   .     S
C1002  N1036   1.157   .     T
C1002  C1140   1.455   1_455 S
C1003  C1004   1.417   .     A
C1003  C266    1.405   1_556 S
C1003  C276    1.427   1_556 S
C1004  C1008   1.419   .     A
C1006  C1007   1.405   .     A
C1006  C276    1.421   1_556 S
C1006  C258    1.418   1_556 S
C1007  C1008   1.392   .     A
C1007  H1020   1.083   .     S
H1009  C1224   1.087   .     S
H1012  C1074   1.111   .     S
O1037  Zn1051  1.936   .     S
O1037  Zn1052  1.931   .     S
O1037  Zn1053  1.940   .     S
O1037  Zn1050  1.956   .     S
O1038  Zn1051  1.918   .     S
O1039  Zn1053  1.924   .     S
O1040  Zn1052  1.920   .     S
O1041  Zn1050  1.916   .     S
O1042  Zn1050  1.922   .     S
O1043  Zn1053  1.924   .     S
O1044  Zn1051  1.945   .     S
O1045  Zn1052  1.951   .     S
O1046  Zn1053  1.944   .     S
O1047  Zn1050  1.939   .     S
O1048  Zn1051  1.932   .     S
O1049  Zn1052  1.929   .     S
C1054  O1125   1.263   .     A
C1054  O1127   1.263   .     A
C1054  C1060   1.437   .     S
C1055  C1069   1.398   .     A
C1055  C1079   1.452   .     S
C1055  C1086   1.419   .     A
C1056  C1071   1.529   .     S
C1056  C1068   1.413   .     A
C1056  C1069   1.415   .     A
C1057  O1128   1.265   .     A
C1057  C1059   1.463   .     S
C1057  O1126   1.287   .     A
C1058  C1070   1.437   .     A
C1058  C1085   1.430   .     A
C1058  C1067   1.494   .     S
C1059  C1141   1.367   .     S
C1059  C1164   1.455   .     S
C1061  C1064   1.470   .     S
C1061  C1305   1.342   .     S
C1061  C1318   1.540   .     S
C1062  C1063   1.438   .     S
C1063  O1129   1.272   .     A
C1063  O1123   1.278   .     A
C1064  O1124   1.286   .     A
C1064  O1130   1.267   .     A
C1065  C1070   1.402   .     A
C1065  C347    1.382   1_556 S
C1065  H379    1.080   1_556 S
C1066  O1119   1.271   .     A
C1066  C1069   1.469   .     S
C1066  O1121   1.281   .     A
C1067  O1120   1.282   .     A
C1067  O1122   1.300   .     A
C1070  C1080   1.532   .     S
C1071  C1072   1.527   .     S
C1071  H1113   1.109   .     S
C1071  H1112   1.108   .     S
C1072  H1109   1.111   .     S
C1072  H1110   1.110   .     S
C1072  H1111   1.110   .     S
C1073  H1094   1.112   .     S
C1073  H1095   1.112   .     S
C1073  C1141   1.535   .     S
C1073  C1155   1.534   .     S
C1074  H1091   1.111   .     S
C1074  H1092   1.111   .     S
C1075  H1100   1.111   .     S
C1075  H1099   1.112   .     S
C1076  H1107   1.079   .     S
C1077  H1097   1.111   .     S
C1077  H1096   1.111   .     S
C1077  C1318   1.528   .     S
C1077  H1341   1.111   .     S
C1078  N1114   1.158   .     T
C1078  C339    1.452   1_556 S
C1079  N1115   1.158   .     T
C1080  H1105   1.112   .     S
C1080  H1106   1.111   .     S
C1080  C1081   1.531   .     S
C1081  H1104   1.111   .     S
C1081  H1103   1.109   .     S
C1081  H1102   1.111   .     S
C1082  N1116   1.158   .     T
C1082  C1089   1.448   .     S
C1083  N1117   1.157   .     T
C1084  C1085   1.417   .     A
C1084  C347    1.405   1_556 S
C1084  C357    1.427   1_556 S
C1085  C1089   1.419   .     A
C1087  C1088   1.405   .     A
C1087  C357    1.421   1_556 S
C1087  C339    1.418   1_556 S
C1088  C1089   1.392   .     A
C1088  H1101   1.083   .     S
H1090  C1305   1.087   .     S
H1093  C1155   1.111   .     S
O1118  Zn1132  1.936   .     S
O1118  Zn1133  1.931   .     S
O1118  Zn1134  1.940   .     S
O1118  Zn1131  1.956   .     S
O1119  Zn1132  1.918   .     S
O1120  Zn1134  1.924   .     S
O1121  Zn1133  1.920   .     S
O1122  Zn1131  1.916   .     S
O1123  Zn1131  1.922   .     S
O1124  Zn1134  1.924   .     S
O1125  Zn1132  1.945   .     S
O1126  Zn1133  1.951   .     S
O1127  Zn1134  1.944   .     S
O1128  Zn1131  1.939   .     S
O1129  Zn1132  1.932   .     S
O1130  Zn1133  1.929   .     S
C1135  O1206   1.263   .     A
C1135  O1208   1.263   .     A
C1135  C1141   1.437   .     S
C1136  C1150   1.398   .     A
C1136  C1160   1.452   .     S
C1136  C1167   1.419   .     A
C1137  C1152   1.529   .     S
C1137  C1149   1.413   .     A
C1137  C1150   1.415   .     A
C1138  O1209   1.265   .     A
C1138  C1140   1.463   .     S
C1138  O1207   1.287   .     A
C1139  C1151   1.437   .     A
C1139  C1166   1.430   .     A
C1139  C1148   1.494   .     S
C1140  C979    1.367   1_655 S
C1140  C1002   1.455   1_655 S
C1142  C1145   1.470   .     S
C1142  C1386   1.342   .     S
C1142  C1399   1.540   .     S
C1143  C1144   1.438   .     S
C1144  O1210   1.272   .     A
C1144  O1204   1.278   .     A
C1145  O1205   1.286   .     A
C1145  O1211   1.267   .     A
C1146  C1151   1.402   .     A
C1146  C428    1.382   1_556 S
C1146  H460    1.080   1_556 S
C1147  O1200   1.271   .     A
C1147  C1150   1.469   .     S
C1147  O1202   1.281   .     A
C1148  O1201   1.282   .     A
C1148  O1203   1.300   .     A
C1151  C1161   1.532   .     S
C1152  C1153   1.527   .     S
C1152  H1194   1.109   .     S
C1152  H1193   1.108   .     S
C1153  H1190   1.111   .     S
C1153  H1191   1.110   .     S
C1153  H1192   1.110   .     S
C1154  H1175   1.112   .     S
C1154  H1176   1.112   .     S
C1154  C979    1.535   1_655 S
C1154  C993    1.534   1_655 S
C1155  H1172   1.111   .     S
C1155  H1173   1.111   .     S
C1156  H1181   1.111   .     S
C1156  H1180   1.112   .     S
C1157  H1188   1.079   .     S
C1158  H1178   1.111   .     S
C1158  H1177   1.111   .     S
C1158  C1399   1.528   .     S
C1158  H1422   1.111   .     S
C1159  N1195   1.158   .     T
C1159  C420    1.452   1_556 S
C1160  N1196   1.158   .     T
C1161  H1186   1.112   .     S
C1161  H1187   1.111   .     S
C1161  C1162   1.531   .     S
C1162  H1185   1.111   .     S
C1162  H1184   1.109   .     S
C1162  H1183   1.111   .     S
C1163  N1197   1.158   .     T
C1163  C1170   1.448   .     S
C1164  N1198   1.157   .     T
C1165  C1166   1.417   .     A
C1165  C428    1.405   1_556 S
C1165  C438    1.427   1_556 S
C1166  C1170   1.419   .     A
C1168  C1169   1.405   .     A
C1168  C438    1.421   1_556 S
C1168  C420    1.418   1_556 S
C1169  C1170   1.392   .     A
C1169  H1182   1.083   .     S
H1171  C1386   1.087   .     S
H1174  C993    1.111   1_655 S
O1199  Zn1213  1.936   .     S
O1199  Zn1214  1.931   .     S
O1199  Zn1215  1.940   .     S
O1199  Zn1212  1.956   .     S
O1200  Zn1213  1.918   .     S
O1201  Zn1215  1.924   .     S
O1202  Zn1214  1.920   .     S
O1203  Zn1212  1.916   .     S
O1204  Zn1212  1.922   .     S
O1205  Zn1215  1.924   .     S
O1206  Zn1213  1.945   .     S
O1207  Zn1214  1.951   .     S
O1208  Zn1215  1.944   .     S
O1209  Zn1212  1.939   .     S
O1210  Zn1213  1.932   .     S
O1211  Zn1214  1.929   .     S
C1216  O1287   1.263   .     A
C1216  O1289   1.263   .     A
C1216  C1222   1.437   .     S
C1217  C1231   1.398   .     A
C1217  C1241   1.452   .     S
C1217  C1248   1.419   .     A
C1218  C1233   1.529   .     S
C1218  C1230   1.413   .     A
C1218  C1231   1.415   .     A
C1219  O1290   1.265   .     A
C1219  C1221   1.463   .     S
C1219  O1288   1.287   .     A
C1220  C1232   1.437   .     A
C1220  C1247   1.430   .     A
C1220  C1229   1.494   .     S
C1221  C1303   1.367   .     S
C1221  C1326   1.455   .     S
C1222  C1383   1.367   1_455 S
C1222  C1397   1.535   1_455 S
C1223  C1226   1.470   .     S
C1223  C738    1.342   1_565 S
C1223  C751    1.540   1_565 S
C1224  C1225   1.438   .     S
C1225  O1291   1.272   .     A
C1225  O1285   1.278   .     A
C1226  O1286   1.286   .     A
C1226  O1292   1.267   .     A
C1227  C1232   1.402   .     A
C1227  C509    1.382   1_556 S
C1227  H541    1.080   1_556 S
C1228  O1281   1.271   .     A
C1228  C1231   1.469   .     S
C1228  O1283   1.281   .     A
C1229  O1282   1.282   .     A
C1229  O1284   1.300   .     A
C1232  C1242   1.532   .     S
C1233  C1234   1.527   .     S
C1233  H1275   1.109   .     S
C1233  H1274   1.108   .     S
C1234  H1271   1.111   .     S
C1234  H1272   1.110   .     S
C1234  H1273   1.110   .     S
C1235  H1256   1.112   .     S
C1235  H1257   1.112   .     S
C1235  C1303   1.535   .     S
C1235  C1317   1.534   .     S
C1236  H1253   1.111   .     S
C1236  H1254   1.111   .     S
C1236  C1397   1.534   1_455 S
C1236  H1417   1.111   1_455 S
C1237  H1262   1.111   .     S
C1237  H1261   1.112   .     S
C1238  H1269   1.079   .     S
C1239  H1259   1.111   .     S
C1239  H1258   1.111   .     S
C1239  C751    1.528   1_565 S
C1239  H774    1.111   1_565 S
C1240  N1276   1.158   .     T
C1240  C501    1.452   1_556 S
C1241  N1277   1.158   .     T
C1242  H1267   1.112   .     S
C1242  H1268   1.111   .     S
C1242  C1243   1.531   .     S
C1243  H1266   1.111   .     S
C1243  H1265   1.109   .     S
C1243  H1264   1.111   .     S
C1244  N1278   1.158   .     T
C1244  C1251   1.448   .     S
C1245  N1279   1.157   .     T
C1245  C1383   1.455   1_455 S
C1246  C1247   1.417   .     A
C1246  C509    1.405   1_556 S
C1246  C519    1.427   1_556 S
C1247  C1251   1.419   .     A
C1249  C1250   1.405   .     A
C1249  C519    1.421   1_556 S
C1249  C501    1.418   1_556 S
C1250  C1251   1.392   .     A
C1250  H1263   1.083   .     S
H1252  C738    1.087   1_565 S
H1255  C1317   1.111   .     S
O1280  Zn1294  1.936   .     S
O1280  Zn1295  1.931   .     S
O1280  Zn1296  1.940   .     S
O1280  Zn1293  1.956   .     S
O1281  Zn1294  1.918   .     S
O1282  Zn1296  1.924   .     S
O1283  Zn1295  1.920   .     S
O1284  Zn1293  1.916   .     S
O1285  Zn1293  1.922   .     S
O1286  Zn1296  1.924   .     S
O1287  Zn1294  1.945   .     S
O1288  Zn1295  1.951   .     S
O1289  Zn1296  1.944   .     S
O1290  Zn1293  1.939   .     S
O1291  Zn1294  1.932   .     S
O1292  Zn1295  1.929   .     S
C1297  O1368   1.263   .     A
C1297  O1370   1.263   .     A
C1297  C1303   1.437   .     S
C1298  C1312   1.398   .     A
C1298  C1322   1.452   .     S
C1298  C1329   1.419   .     A
C1299  C1314   1.529   .     S
C1299  C1311   1.413   .     A
C1299  C1312   1.415   .     A
C1300  O1371   1.265   .     A
C1300  C1302   1.463   .     S
C1300  O1369   1.287   .     A
C1301  C1313   1.437   .     A
C1301  C1328   1.430   .     A
C1301  C1310   1.494   .     S
C1302  C1384   1.367   .     S
C1302  C1407   1.455   .     S
C1304  C1307   1.470   .     S
C1304  C819    1.342   1_565 S
C1304  C832    1.540   1_565 S
C1305  C1306   1.438   .     S
C1306  O1372   1.272   .     A
C1306  O1366   1.278   .     A
C1307  O1367   1.286   .     A
C1307  O1373   1.267   .     A
C1308  C1313   1.402   .     A
C1308  C590    1.382   1_556 S
C1308  H622    1.080   1_556 S
C1309  O1362   1.271   .     A
C1309  C1312   1.469   .     S
C1309  O1364   1.281   .     A
C1310  O1363   1.282   .     A
C1310  O1365   1.300   .     A
C1313  C1323   1.532   .     S
C1314  C1315   1.527   .     S
C1314  H1356   1.109   .     S
C1314  H1355   1.108   .     S
C1315  H1352   1.111   .     S
C1315  H1353   1.110   .     S
C1315  H1354   1.110   .     S
C1316  H1337   1.112   .     S
C1316  H1338   1.112   .     S
C1316  C1384   1.535   .     S
C1316  C1398   1.534   .     S
C1317  H1334   1.111   .     S
C1317  H1335   1.111   .     S
C1318  H1343   1.111   .     S
C1318  H1342   1.112   .     S
C1319  H1350   1.079   .     S
C1320  H1340   1.111   .     S
C1320  H1339   1.111   .     S
C1320  C832    1.528   1_565 S
C1320  H855    1.111   1_565 S
C1321  N1357   1.158   .     T
C1321  C582    1.452   1_556 S
C1322  N1358   1.158   .     T
C1323  H1348   1.112   .     S
C1323  H1349   1.111   .     S
C1323  C1324   1.531   .     S
C1324  H1347   1.111   .     S
C1324  H1346   1.109   .     S
C1324  H1345   1.111   .     S
C1325  N1359   1.158   .     T
C1325  C1332   1.448   .     S
C1326  N1360   1.157   .     T
C1327  C1328   1.417   .     A
C1327  C590    1.405   1_556 S
C1327  C600    1.427   1_556 S
C1328  C1332   1.419   .     A
C1330  C1331   1.405   .     A
C1330  C600    1.421   1_556 S
C1330  C582    1.418   1_556 S
C1331  C1332   1.392   .     A
C1331  H1344   1.083   .     S
H1333  C819    1.087   1_565 S
H1336  C1398   1.111   .     S
O1361  Zn1375  1.936   .     S
O1361  Zn1376  1.931   .     S
O1361  Zn1377  1.940   .     S
O1361  Zn1374  1.956   .     S
O1362  Zn1375  1.918   .     S
O1363  Zn1377  1.924   .     S
O1364  Zn1376  1.920   .     S
O1365  Zn1374  1.916   .     S
O1366  Zn1374  1.922   .     S
O1367  Zn1377  1.924   .     S
O1368  Zn1375  1.945   .     S
O1369  Zn1376  1.951   .     S
O1370  Zn1377  1.944   .     S
O1371  Zn1374  1.939   .     S
O1372  Zn1375  1.932   .     S
O1373  Zn1376  1.929   .     S
C1378  O1449   1.263   .     A
C1378  O1451   1.263   .     A
C1378  C1384   1.437   .     S
C1379  C1393   1.398   .     A
C1379  C1403   1.452   .     S
C1379  C1410   1.419   .     A
C1380  C1395   1.529   .     S
C1380  C1392   1.413   .     A
C1380  C1393   1.415   .     A
C1381  O1452   1.265   .     A
C1381  C1383   1.463   .     S
C1381  O1450   1.287   .     A
C1382  C1394   1.437   .     A
C1382  C1409   1.430   .     A
C1382  C1391   1.494   .     S
C1383  C1222   1.367   1_655 S
C1383  C1245   1.455   1_655 S
C1385  C1388   1.470   .     S
C1385  C900    1.342   1_565 S
C1385  C913    1.540   1_565 S
C1386  C1387   1.438   .     S
C1387  O1453   1.272   .     A
C1387  O1447   1.278   .     A
C1388  O1448   1.286   .     A
C1388  O1454   1.267   .     A
C1389  C1394   1.402   .     A
C1389  C671    1.382   1_556 S
C1389  H703    1.080   1_556 S
C1390  O1443   1.271   .     A
C1390  C1393   1.469   .     S
C1390  O1445   1.281   .     A
C1391  O1444   1.282   .     A
C1391  O1446   1.300   .     A
C1394  C1404   1.532   .     S
C1395  C1396   1.527   .     S
C1395  H1437   1.109   .     S
C1395  H1436   1.108   .     S
C1396  H1433   1.111   .     S
C1396  H1434   1.110   .     S
C1396  H1435   1.110   .     S
C1397  H1418   1.112   .     S
C1397  H1419   1.112   .     S
C1397  C1222   1.535   1_655 S
C1397  C1236   1.534   1_655 S
C1398  H1415   1.111   .     S
C1398  H1416   1.111   .     S
C1399  H1424   1.111   .     S
C1399  H1423   1.112   .     S
C1400  H1431   1.079   .     S
C1401  H1421   1.111   .     S
C1401  H1420   1.111   .     S
C1401  C913    1.528   1_565 S
C1401  H936    1.111   1_565 S
C1402  N1438   1.158   .     T
C1402  C663    1.452   1_556 S
C1403  N1439   1.158   .     T
C1404  H1429   1.112   .     S
C1404  H1430   1.111   .     S
C1404  C1405   1.531   .     S
C1405  H1428   1.111   .     S
C1405  H1427   1.109   .     S
C1405  H1426   1.111   .     S
C1406  N1440   1.158   .     T
C1406  C1413   1.448   .     S
C1407  N1441   1.157   .     T
C1408  C1409   1.417   .     A
C1408  C671    1.405   1_556 S
C1408  C681    1.427   1_556 S
C1409  C1413   1.419   .     A
C1411  C1412   1.405   .     A
C1411  C681    1.421   1_556 S
C1411  C663    1.418   1_556 S
C1412  C1413   1.392   .     A
C1412  H1425   1.083   .     S
H1414  C900    1.087   1_565 S
H1417  C1236   1.111   1_655 S
O1442  Zn1456  1.936   .     S
O1442  Zn1457  1.931   .     S
O1442  Zn1458  1.940   .     S
O1442  Zn1455  1.956   .     S
O1443  Zn1456  1.918   .     S
O1444  Zn1458  1.924   .     S
O1445  Zn1457  1.920   .     S
O1446  Zn1455  1.916   .     S
O1447  Zn1455  1.922   .     S
O1448  Zn1458  1.924   .     S
O1449  Zn1456  1.945   .     S
O1450  Zn1457  1.951   .     S
O1451  Zn1458  1.944   .     S
O1452  Zn1455  1.939   .     S
O1453  Zn1456  1.932   .     S
O1454  Zn1457  1.929   .     S
