data_str_m1_o1_o2_pcu_sym.14
_audit_creation_date              2020-01-03
_audit_creation_method            'Materials Studio'
_symmetry_space_group_name_H-M    'P1'
_symmetry_Int_Tables_number       1
_symmetry_cell_setting            triclinic
loop_
_symmetry_equiv_pos_as_xyz
  x,y,z
_cell_length_a                    36.6546
_cell_length_b                    36.7910
_cell_length_c                    34.4745
_cell_angle_alpha                 89.9862
_cell_angle_beta                  90.0464
_cell_angle_gamma                 90.2909
loop_
_atom_site_label
_atom_site_type_symbol
_atom_site_fract_x
_atom_site_fract_y
_atom_site_fract_z
_atom_site_U_iso_or_equiv
_atom_site_adp_type
_atom_site_occupancy
C1     C     0.23227   0.47202   0.04139   0.00000  Uiso   1.00
C2     C     0.02383   0.22781   0.45902   0.00000  Uiso   1.00
C3     C     0.34856   0.40208   0.74993   0.00000  Uiso   1.00
C4     C     0.40162   0.15236   0.25041   0.00000  Uiso   1.00
C5     C     0.09874   0.34766   0.75013   0.00000  Uiso   1.00
C6     C     0.34795   0.40192   0.25003   0.00000  Uiso   1.00
C7     C     0.15200   0.09799   0.75027   0.00000  Uiso   1.00
C8     C     0.09838   0.15179   0.75017   0.00000  Uiso   1.00
C9     C     0.40169   0.34826   0.25007   0.00000  Uiso   1.00
C10    C     0.15169   0.40228   0.75039   0.00000  Uiso   1.00
C11    C     0.34866   0.09774   0.25016   0.00000  Uiso   1.00
C12    C     0.40192   0.34802   0.74999   0.00000  Uiso   1.00
C13    C     0.23570   0.47007   0.54079   0.00000  Uiso   1.00
C14    C     0.09801   0.15202   0.25027   0.00000  Uiso   1.00
C15    C     0.34837   0.09766   0.75039   0.00000  Uiso   1.00
C16    C     0.15131   0.40229   0.24999   0.00000  Uiso   1.00
C17    C     0.24998   0.49988   0.10244   0.00000  Uiso   1.00
C18    C     0.25008   0.49982   0.89773   0.00000  Uiso   1.00
C19    C     0.49925   0.24985   0.10210   0.00000  Uiso   1.00
C20    C     0.00042   0.24968   0.89685   0.00000  Uiso   1.00
C21    C     0.49995   0.25011   0.60238   0.00000  Uiso   1.00
C22    C     0.00001   0.25015   0.39777   0.00000  Uiso   1.00
C23    C     0.24862   0.00017   0.60203   0.00000  Uiso   1.00
C24    C     0.27905   0.01603   0.45751   0.00000  Uiso   1.00
C25    C     0.25010   0.00009   0.39684   0.00000  Uiso   1.00
C26    C     0.12848   0.43257   0.16238   0.00000  Uiso   1.00
C27    C     0.36528   0.06780   0.83976   0.00000  Uiso   1.00
C28    C     0.03405   0.10550   0.28842   0.00000  Uiso   1.00
C29    C     0.39397   0.32892   0.84086   0.00000  Uiso   1.00
C30    C     0.37168   0.06887   0.16201   0.00000  Uiso   1.00
C31    C     0.13798   0.42933   0.84132   0.00000  Uiso   1.00
C32    C     0.44973   0.39228   0.18273   0.00000  Uiso   1.00
C33    C     0.03978   0.10087   0.80125   0.00000  Uiso   1.00
C34    C     0.10150   0.03475   0.71470   0.00000  Uiso   1.00
C35    C     0.01977   0.27644   0.54130   0.00000  Uiso   1.00
C36    C     0.32922   0.39476   0.15896   0.00000  Uiso   1.00
C37    C     0.07014   0.36411   0.84067   0.00000  Uiso   1.00
C38    C     0.37665   0.19110   0.17219   0.00000  Uiso   1.00
C39    C     0.38885   0.44879   0.82116   0.00000  Uiso   1.00
C40    C     0.09827   0.03932   0.20212   0.00000  Uiso   1.00
C41    C     0.43209   0.13340   0.83962   0.00000  Uiso   1.00
C42    C     0.11746   0.31029   0.16982   0.00000  Uiso   1.00
C43    C     0.37541   0.18462   0.66425   0.00000  Uiso   1.00
C44    C     0.11314   0.31981   0.34079   0.00000  Uiso   1.00
C45    C     0.30169   0.36151   0.67812   0.00000  Uiso   1.00
C46    C     0.47563   0.27261   0.45870   0.00000  Uiso   1.00
C47    C     0.21161   0.15005   0.29839   0.00000  Uiso   1.00
C48    C     0.12252   0.31786   0.66275   0.00000  Uiso   1.00
C49    C     0.38827   0.17912   0.34148   0.00000  Uiso   1.00
C50    C     0.21659   0.14529   0.78628   0.00000  Uiso   1.00
C51    C     0.35542   0.42006   0.34133   0.00000  Uiso   1.00
C52    C     0.35999   0.30034   0.31948   0.00000  Uiso   1.00
C53    C     0.15077   0.20945   0.69942   0.00000  Uiso   1.00
C54    C     0.31968   0.11478   0.34022   0.00000  Uiso   1.00
C55    C     0.12931   0.44037   0.67117   0.00000  Uiso   1.00
C56    C     0.14731   0.21484   0.21242   0.00000  Uiso   1.00
C57    C     0.26369   0.02968   0.54098   0.00000  Uiso   1.00
C58    C     0.42012   0.35256   0.65839   0.00000  Uiso   1.00
C59    C     0.18028   0.38552   0.34054   0.00000  Uiso   1.00
C60    C     0.36780   0.06213   0.66867   0.00000  Uiso   1.00
C61    C     0.23682   0.41541   0.11742   0.00000  Uiso   1.00
C62    C     0.27730   0.41837   0.88456   0.00000  Uiso   1.00
C63    C     0.48245   0.15706   0.10235   0.00000  Uiso   1.00
C64    C     0.08652   0.25660   0.88252   0.00000  Uiso   1.00
C65    C     0.26151   0.08503   0.11551   0.00000  Uiso   1.00
C66    C     0.22177   0.08126   0.88537   0.00000  Uiso   1.00
C67    C     0.00998   0.34103   0.10264   0.00000  Uiso   1.00
C68    C     0.22110   0.48391   0.45733   0.00000  Uiso   1.00
C69    C     0.41508   0.23968   0.88197   0.00000  Uiso   1.00
C70    C     0.48364   0.16574   0.61502   0.00000  Uiso   1.00
C71    C     0.03219   0.17010   0.38559   0.00000  Uiso   1.00
C72    C     0.23576   0.40696   0.60074   0.00000  Uiso   1.00
C73    C     0.33538   0.00974   0.38142   0.00000  Uiso   1.00
C74    C     0.01913   0.33113   0.62267   0.00000  Uiso   1.00
C75    C     0.46986   0.33056   0.38516   0.00000  Uiso   1.00
C76    C     0.25591   0.09176   0.60355   0.00000  Uiso   1.00
C77    C     0.16395   0.49298   0.38334   0.00000  Uiso   1.00
C78    C     0.23189   0.47180   0.08198   0.00000  Uiso   1.00
C79    C     0.27317   0.47573   0.91809   0.00000  Uiso   1.00
C80    C     0.48406   0.22003   0.08138   0.00000  Uiso   1.00
C81    C     0.27323   0.47603   0.95867   0.00000  Uiso   1.00
C82    C     0.02994   0.26559   0.91685   0.00000  Uiso   1.00
C83    C     0.26817   0.02789   0.08202   0.00000  Uiso   1.00
C84    C     0.22710   0.02372   0.91839   0.00000  Uiso   1.00
C85    C     0.01544   0.27899   0.08138   0.00000  Uiso   1.00
C86    C     0.47168   0.23277   0.91718   0.00000  Uiso   1.00
C87    C     0.47994   0.22333   0.58198   0.00000  Uiso   1.00
C88    C     0.02414   0.22736   0.41847   0.00000  Uiso   1.00
C89    C     0.23404   0.47014   0.58111   0.00000  Uiso   1.00
C90    C     0.27914   0.01666   0.41710   0.00000  Uiso   1.00
C91    C     0.01995   0.27688   0.58185   0.00000  Uiso   1.00
C92    C     0.48632   0.21943   0.04108   0.00000  Uiso   1.00
C93    C     0.47583   0.27312   0.41813   0.00000  Uiso   1.00
C94    C     0.26341   0.03014   0.58138   0.00000  Uiso   1.00
C95    C     0.22094   0.48373   0.41694   0.00000  Uiso   1.00
C96    C     0.25052   0.49958   0.02129   0.00000  Uiso   1.00
C97    C     0.25045   0.49965   0.97894   0.00000  Uiso   1.00
C98    C     0.00167   0.24857   0.02060   0.00000  Uiso   1.00
C99    C     0.00152   0.24860   0.97789   0.00000  Uiso   1.00
C100   C     0.49954   0.25025   0.52126   0.00000  Uiso   1.00
C101   C     0.49958   0.25015   0.47896   0.00000  Uiso   1.00
C102   C     0.25005   0.49976   0.52050   0.00000  Uiso   1.00
C103   C     0.03036   0.26468   0.95727   0.00000  Uiso   1.00
C104   C     0.25014   0.49979   0.47784   0.00000  Uiso   1.00
C105   C     0.25003   0.00002   0.35486   0.00000  Uiso   1.00
C106   C     0.24951   0.00002   0.64473   0.00000  Uiso   1.00
C107   C     0.00001   0.25000   0.35522   0.00000  Uiso   1.00
C108   C     0.49999   0.25004   0.64484   0.00000  Uiso   1.00
C109   C     0.00010   0.24995   0.85486   0.00000  Uiso   1.00
C110   C     0.49962   0.24998   0.14475   0.00000  Uiso   1.00
C111   C     0.25002  -0.00000   0.85520   0.00000  Uiso   1.00
C112   C     0.24998   0.00000   0.14486   0.00000  Uiso   1.00
C113   C     0.17984   0.07005   0.25002   0.00000  Uiso   1.00
C114   C     0.26841   0.02735   0.04145   0.00000  Uiso   1.00
C115   C     0.32017   0.42999   0.74999   0.00000  Uiso   1.00
C116   C     0.43009   0.17996   0.25031   0.00000  Uiso   1.00
C117   C     0.07018   0.31991   0.75004   0.00000  Uiso   1.00
C118   C     0.32001   0.43001   0.25002   0.00000  Uiso   1.00
C119   C     0.17995   0.06992   0.74998   0.00000  Uiso   1.00
C120   C     0.06986   0.32010   0.25037   0.00000  Uiso   1.00
C121   C     0.42981   0.18009   0.75003   0.00000  Uiso   1.00
C122   C     0.18012   0.42993   0.75034   0.00000  Uiso   1.00
C123   C     0.32017   0.06991   0.25006   0.00000  Uiso   1.00
C124   C     0.42993   0.31996   0.75003   0.00000  Uiso   1.00
C125   C     0.22744   0.02328   0.95895   0.00000  Uiso   1.00
C126   C     0.07005   0.18008   0.24999   0.00000  Uiso   1.00
C127   C     0.31989   0.07006   0.75035   0.00000  Uiso   1.00
C128   C     0.17986   0.43005   0.24996   0.00000  Uiso   1.00
C129   C     0.07016   0.17995   0.75005   0.00000  Uiso   1.00
C130   C     0.42990   0.32011   0.25005   0.00000  Uiso   1.00
C131   C     0.13729   0.38921   0.21440   0.00000  Uiso   1.00
C132   C     0.36186   0.11103   0.78595   0.00000  Uiso   1.00
C133   C     0.08749   0.11520   0.24849   0.00000  Uiso   1.00
C134   C     0.39486   0.36760   0.78433   0.00000  Uiso   1.00
C135   C     0.36213   0.11128   0.21458   0.00000  Uiso   1.00
C136   C     0.01611   0.27819   0.04099   0.00000  Uiso   1.00
C137   C     0.13934   0.38783   0.78592   0.00000  Uiso   1.00
C138   C     0.39654   0.37018   0.21674   0.00000  Uiso   1.00
C139   C     0.08827   0.11500   0.75579   0.00000  Uiso   1.00
C140   C     0.11502   0.08788   0.75331   0.00000  Uiso   1.00
C141   C     0.36768   0.39498   0.21583   0.00000  Uiso   1.00
C142   C     0.11218   0.36084   0.78581   0.00000  Uiso   1.00
C143   C     0.38721   0.14026   0.21484   0.00000  Uiso   1.00
C144   C     0.36985   0.39629   0.78363   0.00000  Uiso   1.00
C145   C     0.11450   0.08829   0.24587   0.00000  Uiso   1.00
C146   C     0.38889   0.13813   0.78581   0.00000  Uiso   1.00
C147   C     0.47226   0.23286   0.95758   0.00000  Uiso   1.00
C148   C     0.11181   0.36057   0.21462   0.00000  Uiso   1.00
C149   C     0.38638   0.14008   0.71458   0.00000  Uiso   1.00
C150   C     0.11109   0.36184   0.28585   0.00000  Uiso   1.00
C151   C     0.35423   0.38088   0.71626   0.00000  Uiso   1.00
C152   C     0.16186   0.13511   0.25465   0.00000  Uiso   1.00
C153   C     0.11252   0.36092   0.71455   0.00000  Uiso   1.00
C154   C     0.38943   0.13779   0.28593   0.00000  Uiso   1.00
C155   C     0.16248   0.13477   0.74754   0.00000  Uiso   1.00
C156   C     0.35487   0.38212   0.28426   0.00000  Uiso   1.00
C157   C     0.37984   0.35341   0.28347   0.00000  Uiso   1.00
C158   C     0.47964   0.22389   0.54141   0.00000  Uiso   1.00
C159   C     0.13543   0.16163   0.74488   0.00000  Uiso   1.00
C160   C     0.36215   0.11092   0.28584   0.00000  Uiso   1.00
C161   C     0.13775   0.38976   0.71476   0.00000  Uiso   1.00
C162   C     0.13504   0.16220   0.25228   0.00000  Uiso   1.00
C163   C     0.38231   0.35524   0.71568   0.00000  Uiso   1.00
C164   C     0.13813   0.38893   0.28568   0.00000  Uiso   1.00
C165   C     0.36119   0.11122   0.71473   0.00000  Uiso   1.00
C166   C     0.09833   0.34771   0.25033   0.00000  Uiso   1.00
C167   C     0.40123   0.15236   0.75013   0.00000  Uiso   1.00
C168   C     0.15163   0.09822   0.25010   0.00000  Uiso   1.00
H169   H     0.21846   0.45060   0.02545   0.00000  Uiso   1.00
H170   H     0.04225   0.21042   0.47507   0.00000  Uiso   1.00
H171   H     0.12882   0.29701   0.68496   0.00000  Uiso   1.00
H172   H     0.41492   0.12888   0.33942   0.00000  Uiso   1.00
H173   H     0.37591   0.16936   0.36896   0.00000  Uiso   1.00
H174   H     0.36673   0.19197   0.32341   0.00000  Uiso   1.00
H175   H     0.40905   0.20005   0.34883   0.00000  Uiso   1.00
H176   H     0.20772   0.16644   0.73142   0.00000  Uiso   1.00
H177   H     0.20380   0.16687   0.80416   0.00000  Uiso   1.00
H178   H     0.24625   0.15110   0.78371   0.00000  Uiso   1.00
H179   H     0.21327   0.11864   0.80100   0.00000  Uiso   1.00
H180   H     0.32876   0.37036   0.33675   0.00000  Uiso   1.00
H181   H     0.22519   0.44665   0.52529   0.00000  Uiso   1.00
H182   H     0.38279   0.41082   0.35088   0.00000  Uiso   1.00
H183   H     0.33904   0.42684   0.36739   0.00000  Uiso   1.00
H184   H     0.35849   0.44492   0.32331   0.00000  Uiso   1.00
H185   H     0.38682   0.34518   0.34277   0.00000  Uiso   1.00
H186   H     0.36855   0.28244   0.34374   0.00000  Uiso   1.00
H187   H     0.36044   0.28421   0.29225   0.00000  Uiso   1.00
H188   H     0.33163   0.30944   0.32483   0.00000  Uiso   1.00
H189   H     0.16613   0.20768   0.75747   0.00000  Uiso   1.00
H190   H     0.15621   0.23909   0.69797   0.00000  Uiso   1.00
H191   H     0.12615   0.20328   0.68180   0.00000  Uiso   1.00
H192   H     0.30203   0.02772   0.47293   0.00000  Uiso   1.00
H193   H     0.17428   0.19502   0.68645   0.00000  Uiso   1.00
H194   H     0.36935   0.08696   0.34022   0.00000  Uiso   1.00
H195   H     0.29702   0.09541   0.34589   0.00000  Uiso   1.00
H196   H     0.30913   0.13740   0.32204   0.00000  Uiso   1.00
H197   H     0.32884   0.12593   0.36853   0.00000  Uiso   1.00
H198   H     0.15062   0.39040   0.65558   0.00000  Uiso   1.00
H199   H     0.13885   0.45186   0.64318   0.00000  Uiso   1.00
H200   H     0.13471   0.46072   0.69421   0.00000  Uiso   1.00
H201   H     0.09950   0.43508   0.66906   0.00000  Uiso   1.00
H202   H     0.16681   0.20713   0.26821   0.00000  Uiso   1.00
H203   H     0.03508   0.29678   0.52531   0.00000  Uiso   1.00
H204   H     0.15509   0.24398   0.21425   0.00000  Uiso   1.00
H205   H     0.12055   0.21270   0.19744   0.00000  Uiso   1.00
H206   H     0.16835   0.20038   0.19519   0.00000  Uiso   1.00
H207   H     0.36873   0.32911   0.66382   0.00000  Uiso   1.00
H208   H     0.42538   0.33564   0.63236   0.00000  Uiso   1.00
H209   H     0.44552   0.35390   0.67595   0.00000  Uiso   1.00
H210   H     0.41264   0.38036   0.64878   0.00000  Uiso   1.00
H211   H     0.13076   0.41371   0.33966   0.00000  Uiso   1.00
H212   H     0.20282   0.40499   0.34639   0.00000  Uiso   1.00
H213   H     0.19111   0.36286   0.32262   0.00000  Uiso   1.00
H214   H     0.45721   0.29018   0.47449   0.00000  Uiso   1.00
H215   H     0.17085   0.37452   0.36879   0.00000  Uiso   1.00
H216   H     0.34569   0.11256   0.65624   0.00000  Uiso   1.00
H217   H     0.35505   0.05031   0.64229   0.00000  Uiso   1.00
H218   H     0.36593   0.04170   0.69232   0.00000  Uiso   1.00
H219   H     0.39697   0.06812   0.66250   0.00000  Uiso   1.00
H220   H     0.19172   0.43235   0.08647   0.00000  Uiso   1.00
H221   H     0.22015   0.39447   0.13245   0.00000  Uiso   1.00
H222   H     0.25613   0.42712   0.13884   0.00000  Uiso   1.00
H223   H     0.25230   0.40215   0.09364   0.00000  Uiso   1.00
H224   H     0.31981   0.44476   0.91242   0.00000  Uiso   1.00
H225   H     0.27425   0.05320   0.52571   0.00000  Uiso   1.00
H226   H     0.26710   0.40235   0.90969   0.00000  Uiso   1.00
H227   H     0.29650   0.40133   0.86770   0.00000  Uiso   1.00
H228   H     0.25404   0.42546   0.86539   0.00000  Uiso   1.00
H229   H     0.44986   0.19875   0.12454   0.00000  Uiso   1.00
H230   H     0.46400   0.13662   0.11580   0.00000  Uiso   1.00
H231   H     0.00744   0.15959   0.12042   0.00000  Uiso   1.00
H232   H     0.48998   0.14728   0.07297   0.00000  Uiso   1.00
H233   H     0.07134   0.30356   0.91103   0.00000  Uiso   1.00
H234   H     0.10760   0.27144   0.86560   0.00000  Uiso   1.00
H235   H     0.07381   0.23594   0.86324   0.00000  Uiso   1.00
H236   H     0.19796   0.47236   0.47257   0.00000  Uiso   1.00
H237   H     0.09993   0.24277   0.90735   0.00000  Uiso   1.00
H238   H     0.30796   0.06758   0.08737   0.00000  Uiso   1.00
H239   H     0.27725   0.10567   0.13209   0.00000  Uiso   1.00
H240   H     0.24025   0.07356   0.13497   0.00000  Uiso   1.00
H241   H     0.24820   0.09857   0.09043   0.00000  Uiso   1.00
H242   H     0.17998   0.05400   0.91338   0.00000  Uiso   1.00
H243   H     0.23249   0.09695   0.91050   0.00000  Uiso   1.00
H244   H     0.20190   0.09840   0.86947   0.00000  Uiso   1.00
H245   H     0.24455   0.07471   0.86538   0.00000  Uiso   1.00
H246   H     0.05809   0.31447   0.09070   0.00000  Uiso   1.00
H247   H     0.15739   0.38429   0.15837   0.00000  Uiso   1.00
H248   H     0.02357   0.36162   0.12132   0.00000  Uiso   1.00
H249   H     0.48279   0.33457   0.11517   0.00000  Uiso   1.00
H250   H     0.00633   0.35268   0.07315   0.00000  Uiso   1.00
H251   H     0.43076   0.19401   0.91254   0.00000  Uiso   1.00
H252   H     0.39329   0.22377   0.86730   0.00000  Uiso   1.00
H253   H     0.42736   0.25824   0.86025   0.00000  Uiso   1.00
H254   H     0.40264   0.25576   0.90578   0.00000  Uiso   1.00
H255   H     0.43795   0.18599   0.58751   0.00000  Uiso   1.00
H256   H     0.46697   0.14584   0.63157   0.00000  Uiso   1.00
H257   H     0.00568   0.17588   0.63437   0.00000  Uiso   1.00
H258   H     0.10248   0.42175   0.15052   0.00000  Uiso   1.00
H259   H     0.49593   0.15168   0.58971   0.00000  Uiso   1.00
H260   H     0.07268   0.19938   0.41352   0.00000  Uiso   1.00
H261   H     0.02234   0.15393   0.41077   0.00000  Uiso   1.00
H262   H     0.05283   0.15394   0.36967   0.00000  Uiso   1.00
H263   H     0.00903   0.17551   0.36565   0.00000  Uiso   1.00
H264   H     0.20165   0.44663   0.62458   0.00000  Uiso   1.00
H265   H     0.21947   0.38589   0.61611   0.00000  Uiso   1.00
H266   H     0.26202   0.41099   0.61626   0.00000  Uiso   1.00
H267   H     0.24134   0.39713   0.57089   0.00000  Uiso   1.00
H268   H     0.32020   0.05524   0.41250   0.00000  Uiso   1.00
H269   H     0.14372   0.44609   0.13859   0.00000  Uiso   1.00
H270   H     0.35717   0.02562   0.36675   0.00000  Uiso   1.00
H271   H     0.32283   0.49142   0.35962   0.00000  Uiso   1.00
H272   H     0.34790   0.49339   0.40501   0.00000  Uiso   1.00
H273   H     0.06167   0.31540   0.58621   0.00000  Uiso   1.00
H274   H     0.02443   0.35869   0.61071   0.00000  Uiso   1.00
H275   H     0.02723   0.33081   0.65368   0.00000  Uiso   1.00
H276   H     0.48936   0.32564   0.62075   0.00000  Uiso   1.00
H277   H     0.42811   0.30243   0.41235   0.00000  Uiso   1.00
H278   H     0.47937   0.34665   0.41055   0.00000  Uiso   1.00
H279   H     0.45018   0.34714   0.36836   0.00000  Uiso   1.00
H280   H     0.29079   0.45758   0.97447   0.00000  Uiso   1.00
H281   H     0.12198   0.45326   0.18467   0.00000  Uiso   1.00
H282   H     0.49345   0.32447   0.36609   0.00000  Uiso   1.00
H283   H     0.30484   0.06714   0.59040   0.00000  Uiso   1.00
H284   H     0.26920   0.11279   0.62194   0.00000  Uiso   1.00
H285   H     0.22935   0.08429   0.61695   0.00000  Uiso   1.00
H286   H     0.25103   0.10337   0.57425   0.00000  Uiso   1.00
H287   H     0.17955   0.44572   0.41106   0.00000  Uiso   1.00
H288   H     0.14272   0.47829   0.36645   0.00000  Uiso   1.00
H289   H     0.17640   0.01390   0.36419   0.00000  Uiso   1.00
H290   H     0.15078   0.00650   0.40849   0.00000  Uiso   1.00
H291   H     0.33850   0.11799   0.84084   0.00000  Uiso   1.00
H292   H     0.37872   0.07661   0.86704   0.00000  Uiso   1.00
H293   H     0.38608   0.05562   0.82027   0.00000  Uiso   1.00
H294   H     0.34484   0.04657   0.84721   0.00000  Uiso   1.00
H295   H     0.04198   0.08325   0.23392   0.00000  Uiso   1.00
H296   H     0.04717   0.08430   0.30657   0.00000  Uiso   1.00
H297   H     0.00435   0.09960   0.28650   0.00000  Uiso   1.00
H298   H     0.03758   0.13244   0.30244   0.00000  Uiso   1.00
H299   H     0.42040   0.37879   0.83730   0.00000  Uiso   1.00
H300   H     0.47526   0.19616   0.02578   0.00000  Uiso   1.00
H301   H     0.36634   0.33781   0.84995   0.00000  Uiso   1.00
H302   H     0.40998   0.32210   0.86719   0.00000  Uiso   1.00
H303   H     0.39145   0.30418   0.82258   0.00000  Uiso   1.00
H304   H     0.34110   0.11618   0.15889   0.00000  Uiso   1.00
H305   H     0.39769   0.08059   0.15120   0.00000  Uiso   1.00
H306   H     0.35713   0.05594   0.13735   0.00000  Uiso   1.00
H307   H     0.37809   0.04749   0.18366   0.00000  Uiso   1.00
H308   H     0.16451   0.37904   0.83960   0.00000  Uiso   1.00
H309   H     0.12551   0.41969   0.86879   0.00000  Uiso   1.00
H310   H     0.11651   0.44212   0.82310   0.00000  Uiso   1.00
H311   H     0.05372   0.27593   0.97240   0.00000  Uiso   1.00
H312   H     0.15875   0.45027   0.84866   0.00000  Uiso   1.00
H313   H     0.40624   0.36428   0.15761   0.00000  Uiso   1.00
H314   H     0.43957   0.42052   0.17994   0.00000  Uiso   1.00
H315   H     0.46751   0.38636   0.15755   0.00000  Uiso   1.00
H316   H     0.46641   0.39035   0.20956   0.00000  Uiso   1.00
H317   H     0.04172   0.08455   0.74356   0.00000  Uiso   1.00
H318   H     0.05192   0.07606   0.81404   0.00000  Uiso   1.00
H319   H     0.00962   0.09842   0.80270   0.00000  Uiso   1.00
H320   H     0.04833   0.12460   0.81903   0.00000  Uiso   1.00
H321   H     0.08370   0.04323   0.77097   0.00000  Uiso   1.00
H322   H     0.28222   0.04881   0.02557   0.00000  Uiso   1.00
H323   H     0.09344   0.00574   0.71723   0.00000  Uiso   1.00
H324   H     0.12789   0.03641   0.69896   0.00000  Uiso   1.00
H325   H     0.08018   0.04919   0.69782   0.00000  Uiso   1.00
H326   H     0.37936   0.42089   0.16313   0.00000  Uiso   1.00
H327   H     0.32225   0.41122   0.13302   0.00000  Uiso   1.00
H328   H     0.30439   0.39184   0.17717   0.00000  Uiso   1.00
H329   H     0.33827   0.36746   0.14926   0.00000  Uiso   1.00
H330   H     0.11974   0.33609   0.83979   0.00000  Uiso   1.00
H331   H     0.04769   0.34457   0.84659   0.00000  Uiso   1.00
H332   H     0.05918   0.38671   0.82272   0.00000  Uiso   1.00
H333   H     0.20994   0.04159   0.97496   0.00000  Uiso   1.00
H334   H     0.07961   0.37520   0.86887   0.00000  Uiso   1.00
H335   H     0.39950   0.14209   0.15564   0.00000  Uiso   1.00
H336   H     0.38670   0.20416   0.14519   0.00000  Uiso   1.00
H337   H     0.37997   0.21078   0.19639   0.00000  Uiso   1.00
H338   H     0.34724   0.18448   0.16849   0.00000  Uiso   1.00
H339   H     0.36180   0.40340   0.84295   0.00000  Uiso   1.00
H340   H     0.37969   0.46627   0.84549   0.00000  Uiso   1.00
H341   H     0.38892   0.46534   0.79420   0.00000  Uiso   1.00
H342   H     0.41714   0.43975   0.82709   0.00000  Uiso   1.00
H343   H     0.08411   0.04255   0.26040   0.00000  Uiso   1.00
H344   H     0.02753   0.30128   0.02567   0.00000  Uiso   1.00
H345   H     0.09294   0.00963   0.20166   0.00000  Uiso   1.00
H346   H     0.12245   0.04515   0.18375   0.00000  Uiso   1.00
H347   H     0.07440   0.05331   0.18929   0.00000  Uiso   1.00
H348   H     0.38261   0.16158   0.84055   0.00000  Uiso   1.00
H349   H     0.45498   0.15257   0.84506   0.00000  Uiso   1.00
H350   H     0.44216   0.11081   0.82112   0.00000  Uiso   1.00
H351   H     0.42330   0.12219   0.86801   0.00000  Uiso   1.00
H352   H     0.09767   0.36126   0.15569   0.00000  Uiso   1.00
H353   H     0.10564   0.29901   0.14270   0.00000  Uiso   1.00
H354   H     0.11307   0.29010   0.19327   0.00000  Uiso   1.00
H355   H     0.44927   0.22119   0.97295   0.00000  Uiso   1.00
H356   H     0.14719   0.31474   0.16553   0.00000  Uiso   1.00
H357   H     0.40487   0.13693   0.65779   0.00000  Uiso   1.00
H358   H     0.34895   0.17373   0.65366   0.00000  Uiso   1.00
H359   H     0.38942   0.19849   0.63983   0.00000  Uiso   1.00
H360   H     0.36985   0.20507   0.68715   0.00000  Uiso   1.00
H361   H     0.08660   0.37011   0.33995   0.00000  Uiso   1.00
H362   H     0.12595   0.32916   0.36821   0.00000  Uiso   1.00
H363   H     0.13438   0.30720   0.32217   0.00000  Uiso   1.00
H364   H     0.09246   0.29880   0.34817   0.00000  Uiso   1.00
H365   H     0.34669   0.39086   0.65716   0.00000  Uiso   1.00
H366   H     0.46439   0.20341   0.52554   0.00000  Uiso   1.00
H367   H     0.30565   0.34377   0.65241   0.00000  Uiso   1.00
H368   H     0.27640   0.37740   0.67379   0.00000  Uiso   1.00
H369   H     0.29785   0.34403   0.70416   0.00000  Uiso   1.00
H370   H     0.20808   0.16525   0.24042   0.00000  Uiso   1.00
H371   H     0.20017   0.17533   0.31082   0.00000  Uiso   1.00
H372   H     0.24183   0.15209   0.29893   0.00000  Uiso   1.00
H373   H     0.20320   0.12688   0.31704   0.00000  Uiso   1.00
H374   H     0.09214   0.36528   0.65850   0.00000  Uiso   1.00
H375   H     0.14859   0.32930   0.65178   0.00000  Uiso   1.00
H376   H     0.10810   0.30436   0.63838   0.00000  Uiso   1.00
N377   N     0.15047   0.40367   0.17862   0.00000  Uiso   1.00
N378   N     0.35799   0.41273   0.18048   0.00000  Uiso   1.00
N379   N     0.09967   0.34532   0.82135   0.00000  Uiso   1.00
N380   N     0.39721   0.15837   0.17976   0.00000  Uiso   1.00
N381   N     0.36438   0.41790   0.81751   0.00000  Uiso   1.00
N382   N     0.10445   0.05098   0.24177   0.00000  Uiso   1.00
N383   N     0.40227   0.15278   0.82143   0.00000  Uiso   1.00
N384   N     0.09976   0.34421   0.17922   0.00000  Uiso   1.00
N385   N     0.39833   0.15566   0.67886   0.00000  Uiso   1.00
N386   N     0.09529   0.34990   0.32150   0.00000  Uiso   1.00
N387   N     0.33243   0.38623   0.68246   0.00000  Uiso   1.00
N388   N     0.34690   0.09823   0.82168   0.00000  Uiso   1.00
N389   N     0.19942   0.14483   0.25874   0.00000  Uiso   1.00
N390   N     0.09967   0.34615   0.67881   0.00000  Uiso   1.00
N391   N     0.40582   0.14931   0.32145   0.00000  Uiso   1.00
N392   N     0.20031   0.14440   0.74805   0.00000  Uiso   1.00
N393   N     0.33709   0.39174   0.31960   0.00000  Uiso   1.00
N394   N     0.38467   0.33116   0.31699   0.00000  Uiso   1.00
N395   N     0.14541   0.19880   0.73953   0.00000  Uiso   1.00
N396   N     0.34937   0.09573   0.32144   0.00000  Uiso   1.00
N397   N     0.14859   0.40704   0.67945   0.00000  Uiso   1.00
N398   N     0.14501   0.19974   0.25109   0.00000  Uiso   1.00
N399   N     0.04968   0.10562   0.24989   0.00000  Uiso   1.00
N400   N     0.39079   0.33644   0.68065   0.00000  Uiso   1.00
N401   N     0.15076   0.40439   0.32123   0.00000  Uiso   1.00
N402   N     0.34895   0.09512   0.67929   0.00000  Uiso   1.00
N403   N     0.21326   0.44330   0.10191   0.00000  Uiso   1.00
N404   N     0.29594   0.45079   0.89795   0.00000  Uiso   1.00
N405   N     0.46399   0.19165   0.09990   0.00000  Uiso   1.00
N406   N     0.05953   0.28201   0.89647   0.00000  Uiso   1.00
N407   N     0.28587   0.05688   0.10207   0.00000  Uiso   1.00
N408   N     0.20378   0.04844   0.89862   0.00000  Uiso   1.00
N409   N     0.03225   0.30874   0.10092   0.00000  Uiso   1.00
N410   N     0.41235   0.35760   0.81974   0.00000  Uiso   1.00
N411   N     0.44233   0.21528   0.89730   0.00000  Uiso   1.00
N412   N     0.46077   0.19531   0.60204   0.00000  Uiso   1.00
N413   N     0.04860   0.20376   0.39876   0.00000  Uiso   1.00
N414   N     0.21562   0.44064   0.59954   0.00000  Uiso   1.00
N415   N     0.30839   0.03418   0.39713   0.00000  Uiso   1.00
N416   N     0.04024   0.30433   0.60168   0.00000  Uiso   1.00
N417   N     0.45226   0.29738   0.39803   0.00000  Uiso   1.00
N418   N     0.27938   0.06034   0.60096   0.00000  Uiso   1.00
N419   N     0.19115   0.46748   0.39667   0.00000  Uiso   1.00
N420   N     0.34888   0.09683   0.17883   0.00000  Uiso   1.00
N421   N     0.15559   0.39944   0.82149   0.00000  Uiso   1.00
N422   N     0.41971   0.36649   0.18376   0.00000  Uiso   1.00
N423   N     0.05086   0.10533   0.76115   0.00000  Uiso   1.00
N424   N     0.10498   0.05034   0.75304   0.00000  Uiso   1.00
O425   O     0.25000  -0.00000   0.25000   0.00000  Uiso   1.00
O426   O     0.25000   0.46964   0.66317   0.00000  Uiso   1.00
O427   O     0.46964   0.25000   0.33683   0.00000  Uiso   1.00
O428   O     0.03036   0.25000   0.66317   0.00000  Uiso   1.00
O429   O    -0.00000   0.21964   0.83683   0.00000  Uiso   1.00
O430   O     0.00000   0.28036   0.16317   0.00000  Uiso   1.00
O431   O     0.28036  -0.00000   0.83683   0.00000  Uiso   1.00
O432   O     0.21964  -0.00000   0.16317   0.00000  Uiso   1.00
O433   O     0.00000   0.28036   0.83683   0.00000  Uiso   1.00
O434   O    -0.00000   0.21964   0.16317   0.00000  Uiso   1.00
O435   O     0.21964  -0.00000   0.83683   0.00000  Uiso   1.00
O436   O     0.25000  -0.00000   0.75000   0.00000  Uiso   1.00
O437   O     0.28036  -0.00000   0.16317   0.00000  Uiso   1.00
O438   O     0.20725   0.07307   0.27282   0.00000  Uiso   1.00
O439   O     0.29274   0.42693   0.72718   0.00000  Uiso   1.00
O440   O     0.42693   0.20725   0.27282   0.00000  Uiso   1.00
O441   O     0.07307   0.29275   0.72718   0.00000  Uiso   1.00
O442   O     0.29274   0.42693   0.27282   0.00000  Uiso   1.00
O443   O     0.20725   0.07307   0.72718   0.00000  Uiso   1.00
O444   O     0.07307   0.29275   0.27282   0.00000  Uiso   1.00
O445   O     0.42693   0.20725   0.72718   0.00000  Uiso   1.00
O446   O     0.20725   0.42693   0.72718   0.00000  Uiso   1.00
O447   O    -0.00000   0.25000   0.25000   0.00000  Uiso   1.00
O448   O     0.29274   0.07307   0.27282   0.00000  Uiso   1.00
O449   O     0.42693   0.29274   0.72718   0.00000  Uiso   1.00
O450   O     0.07307   0.20726   0.27282   0.00000  Uiso   1.00
O451   O     0.29274   0.07307   0.72718   0.00000  Uiso   1.00
O452   O     0.20725   0.42693   0.27282   0.00000  Uiso   1.00
O453   O     0.07307   0.20726   0.72718   0.00000  Uiso   1.00
O454   O     0.42693   0.29274   0.27282   0.00000  Uiso   1.00
O455   O     0.45725   0.32307   0.77282   0.00000  Uiso   1.00
O456   O     0.04274   0.17693   0.22718   0.00000  Uiso   1.00
O457   O     0.17693   0.45726   0.77282   0.00000  Uiso   1.00
O458   O     0.00000   0.25000   0.75000   0.00000  Uiso   1.00
O459   O     0.32307   0.04274   0.22718   0.00000  Uiso   1.00
O460   O     0.04274   0.17693   0.77282   0.00000  Uiso   1.00
O461   O     0.45725   0.32307   0.22718   0.00000  Uiso   1.00
O462   O     0.32307   0.04274   0.77282   0.00000  Uiso   1.00
O463   O     0.17693   0.45726   0.22718   0.00000  Uiso   1.00
O464   O     0.45725   0.17693   0.22718   0.00000  Uiso   1.00
O465   O     0.04274   0.32307   0.77282   0.00000  Uiso   1.00
O466   O     0.17693   0.04274   0.22718   0.00000  Uiso   1.00
O467   O     0.32307   0.45726   0.77282   0.00000  Uiso   1.00
O468   O     0.04274   0.32307   0.22718   0.00000  Uiso   1.00
O469   O     0.25000   0.46964   0.33683   0.00000  Uiso   1.00
O470   O     0.45725   0.17693   0.77282   0.00000  Uiso   1.00
O471   O     0.32307   0.45726   0.22718   0.00000  Uiso   1.00
O472   O     0.17693   0.04274   0.77282   0.00000  Uiso   1.00
O473   O     0.25000   0.03036   0.66317   0.00000  Uiso   1.00
O474   O     0.03036   0.25000   0.33683   0.00000  Uiso   1.00
O475   O     0.46964   0.25000   0.66317   0.00000  Uiso   1.00
O476   O     0.25000   0.03036   0.33683   0.00000  Uiso   1.00
Zn477  Zn    0.20660  -0.00000   0.21760   0.00000  Uiso   1.00
Zn478  Zn    0.04340   0.25000   0.28240   0.00000  Uiso   1.00
Zn479  Zn    0.25000   0.45660   0.71760   0.00000  Uiso   1.00
Zn480  Zn    0.25000   0.04340   0.28240   0.00000  Uiso   1.00
Zn481  Zn    0.04340   0.25000   0.71760   0.00000  Uiso   1.00
Zn482  Zn    0.45660   0.25000   0.28240   0.00000  Uiso   1.00
Zn483  Zn    0.25000   0.04340   0.71760   0.00000  Uiso   1.00
Zn484  Zn    0.25000   0.45660   0.28240   0.00000  Uiso   1.00
Zn485  Zn    0.29340  -0.00000   0.78240   0.00000  Uiso   1.00
Zn486  Zn   -0.00000   0.20660   0.21760   0.00000  Uiso   1.00
Zn487  Zn    0.00000   0.29340   0.78240   0.00000  Uiso   1.00
Zn488  Zn    0.29340  -0.00000   0.21760   0.00000  Uiso   1.00
Zn489  Zn    0.20660  -0.00000   0.78240   0.00000  Uiso   1.00
Zn490  Zn    0.00000   0.29340   0.21760   0.00000  Uiso   1.00
Zn491  Zn    0.00000   0.20660   0.78240   0.00000  Uiso   1.00
Zn492  Zn    0.45660   0.25000   0.71760   0.00000  Uiso   1.00
C493   C     0.73227   0.47202   0.04139   0.00000  Uiso   1.00
C494   C     0.52383   0.22781   0.45902   0.00000  Uiso   1.00
C495   C     0.84856   0.40208   0.74993   0.00000  Uiso   1.00
C496   C     0.90162   0.15236   0.25041   0.00000  Uiso   1.00
C497   C     0.59874   0.34766   0.75013   0.00000  Uiso   1.00
C498   C     0.84795   0.40192   0.25003   0.00000  Uiso   1.00
C499   C     0.65200   0.09799   0.75027   0.00000  Uiso   1.00
C500   C     0.59838   0.15179   0.75017   0.00000  Uiso   1.00
C501   C     0.90169   0.34826   0.25007   0.00000  Uiso   1.00
C502   C     0.65169   0.40228   0.75039   0.00000  Uiso   1.00
C503   C     0.84866   0.09774   0.25016   0.00000  Uiso   1.00
C504   C     0.90192   0.34802   0.74999   0.00000  Uiso   1.00
C505   C     0.73570   0.47007   0.54079   0.00000  Uiso   1.00
C506   C     0.59801   0.15202   0.25027   0.00000  Uiso   1.00
C507   C     0.84837   0.09766   0.75039   0.00000  Uiso   1.00
C508   C     0.65131   0.40229   0.24999   0.00000  Uiso   1.00
C509   C     0.74998   0.49988   0.10244   0.00000  Uiso   1.00
C510   C     0.75008   0.49982   0.89773   0.00000  Uiso   1.00
C511   C     0.99925   0.24985   0.10210   0.00000  Uiso   1.00
C512   C     0.50042   0.24968   0.89685   0.00000  Uiso   1.00
C513   C     0.99995   0.25011   0.60238   0.00000  Uiso   1.00
C514   C     0.50001   0.25015   0.39777   0.00000  Uiso   1.00
C515   C     0.74862   0.00017   0.60203   0.00000  Uiso   1.00
C516   C     0.77905   0.01603   0.45751   0.00000  Uiso   1.00
C517   C     0.75010   0.00009   0.39684   0.00000  Uiso   1.00
C518   C     0.62848   0.43257   0.16238   0.00000  Uiso   1.00
C519   C     0.86528   0.06780   0.83976   0.00000  Uiso   1.00
C520   C     0.53405   0.10550   0.28842   0.00000  Uiso   1.00
C521   C     0.89397   0.32892   0.84086   0.00000  Uiso   1.00
C522   C     0.87168   0.06887   0.16201   0.00000  Uiso   1.00
C523   C     0.63798   0.42933   0.84132   0.00000  Uiso   1.00
C524   C     0.94973   0.39228   0.18273   0.00000  Uiso   1.00
C525   C     0.53978   0.10087   0.80125   0.00000  Uiso   1.00
C526   C     0.60150   0.03475   0.71470   0.00000  Uiso   1.00
C527   C     0.51977   0.27644   0.54130   0.00000  Uiso   1.00
C528   C     0.82922   0.39476   0.15896   0.00000  Uiso   1.00
C529   C     0.57014   0.36411   0.84067   0.00000  Uiso   1.00
C530   C     0.87665   0.19110   0.17219   0.00000  Uiso   1.00
C531   C     0.88885   0.44879   0.82116   0.00000  Uiso   1.00
C532   C     0.59827   0.03932   0.20212   0.00000  Uiso   1.00
C533   C     0.93209   0.13340   0.83962   0.00000  Uiso   1.00
C534   C     0.61746   0.31029   0.16982   0.00000  Uiso   1.00
C535   C     0.87541   0.18462   0.66425   0.00000  Uiso   1.00
C536   C     0.61314   0.31981   0.34079   0.00000  Uiso   1.00
C537   C     0.80169   0.36151   0.67812   0.00000  Uiso   1.00
C538   C     0.97563   0.27261   0.45870   0.00000  Uiso   1.00
C539   C     0.71161   0.15005   0.29839   0.00000  Uiso   1.00
C540   C     0.62252   0.31786   0.66275   0.00000  Uiso   1.00
C541   C     0.88827   0.17912   0.34148   0.00000  Uiso   1.00
C542   C     0.71659   0.14529   0.78628   0.00000  Uiso   1.00
C543   C     0.85542   0.42006   0.34133   0.00000  Uiso   1.00
C544   C     0.85999   0.30034   0.31948   0.00000  Uiso   1.00
C545   C     0.65077   0.20945   0.69942   0.00000  Uiso   1.00
C546   C     0.81968   0.11478   0.34022   0.00000  Uiso   1.00
C547   C     0.62931   0.44037   0.67117   0.00000  Uiso   1.00
C548   C     0.64731   0.21484   0.21242   0.00000  Uiso   1.00
C549   C     0.76369   0.02968   0.54098   0.00000  Uiso   1.00
C550   C     0.92012   0.35256   0.65839   0.00000  Uiso   1.00
C551   C     0.68028   0.38552   0.34054   0.00000  Uiso   1.00
C552   C     0.86780   0.06213   0.66867   0.00000  Uiso   1.00
C553   C     0.73682   0.41541   0.11742   0.00000  Uiso   1.00
C554   C     0.77730   0.41837   0.88456   0.00000  Uiso   1.00
C555   C     0.98245   0.15706   0.10235   0.00000  Uiso   1.00
C556   C     0.58652   0.25660   0.88252   0.00000  Uiso   1.00
C557   C     0.76151   0.08503   0.11551   0.00000  Uiso   1.00
C558   C     0.72177   0.08126   0.88537   0.00000  Uiso   1.00
C559   C     0.50998   0.34103   0.10264   0.00000  Uiso   1.00
C560   C     0.72110   0.48391   0.45733   0.00000  Uiso   1.00
C561   C     0.91508   0.23968   0.88197   0.00000  Uiso   1.00
C562   C     0.98364   0.16574   0.61502   0.00000  Uiso   1.00
C563   C     0.53219   0.17010   0.38559   0.00000  Uiso   1.00
C564   C     0.73576   0.40696   0.60074   0.00000  Uiso   1.00
C565   C     0.83538   0.00974   0.38142   0.00000  Uiso   1.00
C566   C     0.51913   0.33113   0.62267   0.00000  Uiso   1.00
C567   C     0.96986   0.33056   0.38516   0.00000  Uiso   1.00
C568   C     0.75591   0.09176   0.60355   0.00000  Uiso   1.00
C569   C     0.66395   0.49298   0.38334   0.00000  Uiso   1.00
C570   C     0.73189   0.47180   0.08198   0.00000  Uiso   1.00
C571   C     0.77317   0.47573   0.91809   0.00000  Uiso   1.00
C572   C     0.98406   0.22003   0.08138   0.00000  Uiso   1.00
C573   C     0.77323   0.47603   0.95867   0.00000  Uiso   1.00
C574   C     0.52994   0.26559   0.91685   0.00000  Uiso   1.00
C575   C     0.76817   0.02789   0.08202   0.00000  Uiso   1.00
C576   C     0.72710   0.02372   0.91839   0.00000  Uiso   1.00
C577   C     0.51544   0.27899   0.08138   0.00000  Uiso   1.00
C578   C     0.97168   0.23277   0.91718   0.00000  Uiso   1.00
C579   C     0.97994   0.22333   0.58198   0.00000  Uiso   1.00
C580   C     0.52414   0.22736   0.41847   0.00000  Uiso   1.00
C581   C     0.73404   0.47014   0.58111   0.00000  Uiso   1.00
C582   C     0.77914   0.01666   0.41710   0.00000  Uiso   1.00
C583   C     0.51995   0.27688   0.58185   0.00000  Uiso   1.00
C584   C     0.98632   0.21943   0.04108   0.00000  Uiso   1.00
C585   C     0.97583   0.27312   0.41813   0.00000  Uiso   1.00
C586   C     0.76341   0.03014   0.58138   0.00000  Uiso   1.00
C587   C     0.72094   0.48373   0.41694   0.00000  Uiso   1.00
C588   C     0.75052   0.49958   0.02129   0.00000  Uiso   1.00
C589   C     0.75045   0.49965   0.97894   0.00000  Uiso   1.00
C590   C     0.50167   0.24857   0.02060   0.00000  Uiso   1.00
C591   C     0.50152   0.24860   0.97789   0.00000  Uiso   1.00
C592   C     0.99954   0.25025   0.52126   0.00000  Uiso   1.00
C593   C     0.99958   0.25015   0.47896   0.00000  Uiso   1.00
C594   C     0.75005   0.49976   0.52050   0.00000  Uiso   1.00
C595   C     0.53036   0.26468   0.95727   0.00000  Uiso   1.00
C596   C     0.75014   0.49979   0.47784   0.00000  Uiso   1.00
C597   C     0.75003   0.00002   0.35486   0.00000  Uiso   1.00
C598   C     0.74951   0.00002   0.64473   0.00000  Uiso   1.00
C599   C     0.50001   0.25000   0.35522   0.00000  Uiso   1.00
C600   C     0.99999   0.25004   0.64484   0.00000  Uiso   1.00
C601   C     0.50010   0.24995   0.85486   0.00000  Uiso   1.00
C602   C     0.99962   0.24998   0.14475   0.00000  Uiso   1.00
C603   C     0.75002  -0.00000   0.85520   0.00000  Uiso   1.00
C604   C     0.74998   0.00000   0.14486   0.00000  Uiso   1.00
C605   C     0.67984   0.07005   0.25002   0.00000  Uiso   1.00
C606   C     0.76841   0.02735   0.04145   0.00000  Uiso   1.00
C607   C     0.82017   0.42999   0.74999   0.00000  Uiso   1.00
C608   C     0.93009   0.17996   0.25031   0.00000  Uiso   1.00
C609   C     0.57018   0.31991   0.75004   0.00000  Uiso   1.00
C610   C     0.82001   0.43001   0.25002   0.00000  Uiso   1.00
C611   C     0.67995   0.06992   0.74998   0.00000  Uiso   1.00
C612   C     0.56986   0.32010   0.25037   0.00000  Uiso   1.00
C613   C     0.92981   0.18009   0.75003   0.00000  Uiso   1.00
C614   C     0.68012   0.42993   0.75034   0.00000  Uiso   1.00
C615   C     0.82017   0.06991   0.25006   0.00000  Uiso   1.00
C616   C     0.92993   0.31996   0.75003   0.00000  Uiso   1.00
C617   C     0.72744   0.02328   0.95895   0.00000  Uiso   1.00
C618   C     0.57005   0.18008   0.24999   0.00000  Uiso   1.00
C619   C     0.81989   0.07006   0.75035   0.00000  Uiso   1.00
C620   C     0.67986   0.43005   0.24996   0.00000  Uiso   1.00
C621   C     0.57016   0.17995   0.75005   0.00000  Uiso   1.00
C622   C     0.92990   0.32011   0.25005   0.00000  Uiso   1.00
C623   C     0.63729   0.38921   0.21440   0.00000  Uiso   1.00
C624   C     0.86186   0.11103   0.78595   0.00000  Uiso   1.00
C625   C     0.58749   0.11520   0.24849   0.00000  Uiso   1.00
C626   C     0.89486   0.36760   0.78433   0.00000  Uiso   1.00
C627   C     0.86213   0.11128   0.21458   0.00000  Uiso   1.00
C628   C     0.51611   0.27819   0.04099   0.00000  Uiso   1.00
C629   C     0.63934   0.38783   0.78592   0.00000  Uiso   1.00
C630   C     0.89654   0.37018   0.21674   0.00000  Uiso   1.00
C631   C     0.58827   0.11500   0.75579   0.00000  Uiso   1.00
C632   C     0.61502   0.08788   0.75331   0.00000  Uiso   1.00
C633   C     0.86768   0.39498   0.21583   0.00000  Uiso   1.00
C634   C     0.61218   0.36084   0.78581   0.00000  Uiso   1.00
C635   C     0.88721   0.14026   0.21484   0.00000  Uiso   1.00
C636   C     0.86985   0.39629   0.78363   0.00000  Uiso   1.00
C637   C     0.61450   0.08829   0.24587   0.00000  Uiso   1.00
C638   C     0.88889   0.13813   0.78581   0.00000  Uiso   1.00
C639   C     0.97226   0.23286   0.95758   0.00000  Uiso   1.00
C640   C     0.61181   0.36057   0.21462   0.00000  Uiso   1.00
C641   C     0.88638   0.14008   0.71458   0.00000  Uiso   1.00
C642   C     0.61109   0.36184   0.28585   0.00000  Uiso   1.00
C643   C     0.85423   0.38088   0.71626   0.00000  Uiso   1.00
C644   C     0.66186   0.13511   0.25465   0.00000  Uiso   1.00
C645   C     0.61252   0.36092   0.71455   0.00000  Uiso   1.00
C646   C     0.88943   0.13779   0.28593   0.00000  Uiso   1.00
C647   C     0.66248   0.13477   0.74754   0.00000  Uiso   1.00
C648   C     0.85487   0.38212   0.28426   0.00000  Uiso   1.00
C649   C     0.87984   0.35341   0.28347   0.00000  Uiso   1.00
C650   C     0.97964   0.22389   0.54141   0.00000  Uiso   1.00
C651   C     0.63543   0.16163   0.74488   0.00000  Uiso   1.00
C652   C     0.86215   0.11092   0.28584   0.00000  Uiso   1.00
C653   C     0.63775   0.38976   0.71476   0.00000  Uiso   1.00
C654   C     0.63504   0.16220   0.25228   0.00000  Uiso   1.00
C655   C     0.88231   0.35524   0.71568   0.00000  Uiso   1.00
C656   C     0.63813   0.38893   0.28568   0.00000  Uiso   1.00
C657   C     0.86119   0.11122   0.71473   0.00000  Uiso   1.00
C658   C     0.59833   0.34771   0.25033   0.00000  Uiso   1.00
C659   C     0.90123   0.15236   0.75013   0.00000  Uiso   1.00
C660   C     0.65163   0.09822   0.25010   0.00000  Uiso   1.00
H661   H     0.71846   0.45060   0.02545   0.00000  Uiso   1.00
H662   H     0.54225   0.21042   0.47507   0.00000  Uiso   1.00
H663   H     0.62882   0.29701   0.68496   0.00000  Uiso   1.00
H664   H     0.91492   0.12888   0.33942   0.00000  Uiso   1.00
H665   H     0.87591   0.16936   0.36896   0.00000  Uiso   1.00
H666   H     0.86673   0.19197   0.32341   0.00000  Uiso   1.00
H667   H     0.90905   0.20005   0.34883   0.00000  Uiso   1.00
H668   H     0.70772   0.16644   0.73142   0.00000  Uiso   1.00
H669   H     0.70380   0.16687   0.80416   0.00000  Uiso   1.00
H670   H     0.74625   0.15110   0.78371   0.00000  Uiso   1.00
H671   H     0.71327   0.11864   0.80100   0.00000  Uiso   1.00
H672   H     0.82876   0.37036   0.33675   0.00000  Uiso   1.00
H673   H     0.72519   0.44665   0.52529   0.00000  Uiso   1.00
H674   H     0.88279   0.41082   0.35088   0.00000  Uiso   1.00
H675   H     0.83904   0.42684   0.36739   0.00000  Uiso   1.00
H676   H     0.85849   0.44492   0.32331   0.00000  Uiso   1.00
H677   H     0.88682   0.34518   0.34277   0.00000  Uiso   1.00
H678   H     0.86855   0.28244   0.34374   0.00000  Uiso   1.00
H679   H     0.86044   0.28421   0.29225   0.00000  Uiso   1.00
H680   H     0.83163   0.30944   0.32483   0.00000  Uiso   1.00
H681   H     0.66613   0.20768   0.75747   0.00000  Uiso   1.00
H682   H     0.65621   0.23909   0.69797   0.00000  Uiso   1.00
H683   H     0.62615   0.20328   0.68180   0.00000  Uiso   1.00
H684   H     0.80203   0.02772   0.47293   0.00000  Uiso   1.00
H685   H     0.67428   0.19502   0.68645   0.00000  Uiso   1.00
H686   H     0.86935   0.08696   0.34022   0.00000  Uiso   1.00
H687   H     0.79702   0.09541   0.34589   0.00000  Uiso   1.00
H688   H     0.80913   0.13740   0.32204   0.00000  Uiso   1.00
H689   H     0.82884   0.12593   0.36853   0.00000  Uiso   1.00
H690   H     0.65062   0.39040   0.65558   0.00000  Uiso   1.00
H691   H     0.63885   0.45186   0.64318   0.00000  Uiso   1.00
H692   H     0.63471   0.46072   0.69421   0.00000  Uiso   1.00
H693   H     0.59950   0.43508   0.66906   0.00000  Uiso   1.00
H694   H     0.66681   0.20713   0.26821   0.00000  Uiso   1.00
H695   H     0.53508   0.29678   0.52531   0.00000  Uiso   1.00
H696   H     0.65509   0.24398   0.21425   0.00000  Uiso   1.00
H697   H     0.62055   0.21270   0.19744   0.00000  Uiso   1.00
H698   H     0.66835   0.20038   0.19519   0.00000  Uiso   1.00
H699   H     0.86873   0.32911   0.66382   0.00000  Uiso   1.00
H700   H     0.92538   0.33564   0.63236   0.00000  Uiso   1.00
H701   H     0.94552   0.35390   0.67595   0.00000  Uiso   1.00
H702   H     0.91264   0.38036   0.64878   0.00000  Uiso   1.00
H703   H     0.63076   0.41371   0.33966   0.00000  Uiso   1.00
H704   H     0.70282   0.40499   0.34639   0.00000  Uiso   1.00
H705   H     0.69111   0.36286   0.32262   0.00000  Uiso   1.00
H706   H     0.95721   0.29018   0.47449   0.00000  Uiso   1.00
H707   H     0.67085   0.37452   0.36879   0.00000  Uiso   1.00
H708   H     0.84569   0.11256   0.65624   0.00000  Uiso   1.00
H709   H     0.85505   0.05031   0.64229   0.00000  Uiso   1.00
H710   H     0.86593   0.04170   0.69232   0.00000  Uiso   1.00
H711   H     0.89697   0.06812   0.66250   0.00000  Uiso   1.00
H712   H     0.69172   0.43235   0.08647   0.00000  Uiso   1.00
H713   H     0.72015   0.39447   0.13245   0.00000  Uiso   1.00
H714   H     0.75613   0.42712   0.13884   0.00000  Uiso   1.00
H715   H     0.75230   0.40215   0.09364   0.00000  Uiso   1.00
H716   H     0.81981   0.44476   0.91242   0.00000  Uiso   1.00
H717   H     0.77425   0.05320   0.52571   0.00000  Uiso   1.00
H718   H     0.76710   0.40235   0.90969   0.00000  Uiso   1.00
H719   H     0.79650   0.40133   0.86770   0.00000  Uiso   1.00
H720   H     0.75404   0.42546   0.86539   0.00000  Uiso   1.00
H721   H     0.94986   0.19875   0.12454   0.00000  Uiso   1.00
H722   H     0.96400   0.13662   0.11580   0.00000  Uiso   1.00
H723   H     0.50744   0.15959   0.12042   0.00000  Uiso   1.00
H724   H     0.98998   0.14728   0.07297   0.00000  Uiso   1.00
H725   H     0.57134   0.30356   0.91103   0.00000  Uiso   1.00
H726   H     0.60760   0.27144   0.86560   0.00000  Uiso   1.00
H727   H     0.57381   0.23594   0.86324   0.00000  Uiso   1.00
H728   H     0.69796   0.47236   0.47257   0.00000  Uiso   1.00
H729   H     0.59993   0.24277   0.90735   0.00000  Uiso   1.00
H730   H     0.80796   0.06758   0.08737   0.00000  Uiso   1.00
H731   H     0.77725   0.10567   0.13209   0.00000  Uiso   1.00
H732   H     0.74025   0.07356   0.13497   0.00000  Uiso   1.00
H733   H     0.74820   0.09857   0.09043   0.00000  Uiso   1.00
H734   H     0.67998   0.05400   0.91338   0.00000  Uiso   1.00
H735   H     0.73249   0.09695   0.91050   0.00000  Uiso   1.00
H736   H     0.70190   0.09840   0.86947   0.00000  Uiso   1.00
H737   H     0.74455   0.07471   0.86538   0.00000  Uiso   1.00
H738   H     0.55809   0.31447   0.09070   0.00000  Uiso   1.00
H739   H     0.65739   0.38429   0.15837   0.00000  Uiso   1.00
H740   H     0.52357   0.36162   0.12132   0.00000  Uiso   1.00
H741   H     0.98279   0.33457   0.11517   0.00000  Uiso   1.00
H742   H     0.50633   0.35268   0.07315   0.00000  Uiso   1.00
H743   H     0.93076   0.19401   0.91254   0.00000  Uiso   1.00
H744   H     0.89329   0.22377   0.86730   0.00000  Uiso   1.00
H745   H     0.92736   0.25824   0.86025   0.00000  Uiso   1.00
H746   H     0.90264   0.25576   0.90578   0.00000  Uiso   1.00
H747   H     0.93795   0.18599   0.58751   0.00000  Uiso   1.00
H748   H     0.96697   0.14584   0.63157   0.00000  Uiso   1.00
H749   H     0.50568   0.17588   0.63437   0.00000  Uiso   1.00
H750   H     0.60248   0.42175   0.15052   0.00000  Uiso   1.00
H751   H     0.99593   0.15168   0.58971   0.00000  Uiso   1.00
H752   H     0.57268   0.19938   0.41352   0.00000  Uiso   1.00
H753   H     0.52234   0.15393   0.41077   0.00000  Uiso   1.00
H754   H     0.55283   0.15394   0.36967   0.00000  Uiso   1.00
H755   H     0.50903   0.17551   0.36565   0.00000  Uiso   1.00
H756   H     0.70165   0.44663   0.62458   0.00000  Uiso   1.00
H757   H     0.71947   0.38589   0.61611   0.00000  Uiso   1.00
H758   H     0.76202   0.41099   0.61626   0.00000  Uiso   1.00
H759   H     0.74134   0.39713   0.57089   0.00000  Uiso   1.00
H760   H     0.82020   0.05524   0.41250   0.00000  Uiso   1.00
H761   H     0.64372   0.44609   0.13859   0.00000  Uiso   1.00
H762   H     0.85717   0.02562   0.36675   0.00000  Uiso   1.00
H763   H     0.82283   0.49142   0.35962   0.00000  Uiso   1.00
H764   H     0.84790   0.49339   0.40501   0.00000  Uiso   1.00
H765   H     0.56167   0.31540   0.58621   0.00000  Uiso   1.00
H766   H     0.52443   0.35869   0.61071   0.00000  Uiso   1.00
H767   H     0.52723   0.33081   0.65368   0.00000  Uiso   1.00
H768   H     0.98936   0.32564   0.62075   0.00000  Uiso   1.00
H769   H     0.92811   0.30243   0.41235   0.00000  Uiso   1.00
H770   H     0.97937   0.34665   0.41055   0.00000  Uiso   1.00
H771   H     0.95018   0.34714   0.36836   0.00000  Uiso   1.00
H772   H     0.79079   0.45758   0.97447   0.00000  Uiso   1.00
H773   H     0.62198   0.45326   0.18467   0.00000  Uiso   1.00
H774   H     0.99345   0.32447   0.36609   0.00000  Uiso   1.00
H775   H     0.80484   0.06714   0.59040   0.00000  Uiso   1.00
H776   H     0.76920   0.11279   0.62194   0.00000  Uiso   1.00
H777   H     0.72935   0.08429   0.61695   0.00000  Uiso   1.00
H778   H     0.75103   0.10337   0.57425   0.00000  Uiso   1.00
H779   H     0.67955   0.44572   0.41106   0.00000  Uiso   1.00
H780   H     0.64272   0.47829   0.36645   0.00000  Uiso   1.00
H781   H     0.67640   0.01390   0.36419   0.00000  Uiso   1.00
H782   H     0.65078   0.00650   0.40849   0.00000  Uiso   1.00
H783   H     0.83850   0.11799   0.84084   0.00000  Uiso   1.00
H784   H     0.87872   0.07661   0.86704   0.00000  Uiso   1.00
H785   H     0.88608   0.05562   0.82027   0.00000  Uiso   1.00
H786   H     0.84484   0.04657   0.84721   0.00000  Uiso   1.00
H787   H     0.54198   0.08325   0.23392   0.00000  Uiso   1.00
H788   H     0.54717   0.08430   0.30657   0.00000  Uiso   1.00
H789   H     0.50435   0.09960   0.28650   0.00000  Uiso   1.00
H790   H     0.53758   0.13244   0.30244   0.00000  Uiso   1.00
H791   H     0.92040   0.37879   0.83730   0.00000  Uiso   1.00
H792   H     0.97526   0.19616   0.02578   0.00000  Uiso   1.00
H793   H     0.86634   0.33781   0.84995   0.00000  Uiso   1.00
H794   H     0.90998   0.32210   0.86719   0.00000  Uiso   1.00
H795   H     0.89145   0.30418   0.82258   0.00000  Uiso   1.00
H796   H     0.84110   0.11618   0.15889   0.00000  Uiso   1.00
H797   H     0.89769   0.08059   0.15120   0.00000  Uiso   1.00
H798   H     0.85713   0.05594   0.13735   0.00000  Uiso   1.00
H799   H     0.87809   0.04749   0.18366   0.00000  Uiso   1.00
H800   H     0.66451   0.37904   0.83960   0.00000  Uiso   1.00
H801   H     0.62551   0.41969   0.86879   0.00000  Uiso   1.00
H802   H     0.61651   0.44212   0.82310   0.00000  Uiso   1.00
H803   H     0.55372   0.27593   0.97240   0.00000  Uiso   1.00
H804   H     0.65875   0.45027   0.84866   0.00000  Uiso   1.00
H805   H     0.90624   0.36428   0.15761   0.00000  Uiso   1.00
H806   H     0.93957   0.42052   0.17994   0.00000  Uiso   1.00
H807   H     0.96751   0.38636   0.15755   0.00000  Uiso   1.00
H808   H     0.96641   0.39035   0.20956   0.00000  Uiso   1.00
H809   H     0.54172   0.08455   0.74356   0.00000  Uiso   1.00
H810   H     0.55192   0.07606   0.81404   0.00000  Uiso   1.00
H811   H     0.50962   0.09842   0.80270   0.00000  Uiso   1.00
H812   H     0.54833   0.12460   0.81903   0.00000  Uiso   1.00
H813   H     0.58370   0.04323   0.77097   0.00000  Uiso   1.00
H814   H     0.78222   0.04881   0.02557   0.00000  Uiso   1.00
H815   H     0.59344   0.00574   0.71723   0.00000  Uiso   1.00
H816   H     0.62789   0.03641   0.69896   0.00000  Uiso   1.00
H817   H     0.58018   0.04919   0.69782   0.00000  Uiso   1.00
H818   H     0.87936   0.42089   0.16313   0.00000  Uiso   1.00
H819   H     0.82225   0.41122   0.13302   0.00000  Uiso   1.00
H820   H     0.80439   0.39184   0.17717   0.00000  Uiso   1.00
H821   H     0.83827   0.36746   0.14926   0.00000  Uiso   1.00
H822   H     0.61974   0.33609   0.83979   0.00000  Uiso   1.00
H823   H     0.54769   0.34457   0.84659   0.00000  Uiso   1.00
H824   H     0.55918   0.38671   0.82272   0.00000  Uiso   1.00
H825   H     0.70994   0.04159   0.97496   0.00000  Uiso   1.00
H826   H     0.57961   0.37520   0.86887   0.00000  Uiso   1.00
H827   H     0.89950   0.14209   0.15564   0.00000  Uiso   1.00
H828   H     0.88670   0.20416   0.14519   0.00000  Uiso   1.00
H829   H     0.87997   0.21078   0.19639   0.00000  Uiso   1.00
H830   H     0.84724   0.18448   0.16849   0.00000  Uiso   1.00
H831   H     0.86180   0.40340   0.84295   0.00000  Uiso   1.00
H832   H     0.87969   0.46627   0.84549   0.00000  Uiso   1.00
H833   H     0.88892   0.46534   0.79420   0.00000  Uiso   1.00
H834   H     0.91714   0.43975   0.82709   0.00000  Uiso   1.00
H835   H     0.58411   0.04255   0.26040   0.00000  Uiso   1.00
H836   H     0.52753   0.30128   0.02567   0.00000  Uiso   1.00
H837   H     0.59294   0.00963   0.20166   0.00000  Uiso   1.00
H838   H     0.62245   0.04515   0.18375   0.00000  Uiso   1.00
H839   H     0.57440   0.05331   0.18929   0.00000  Uiso   1.00
H840   H     0.88261   0.16158   0.84055   0.00000  Uiso   1.00
H841   H     0.95498   0.15257   0.84506   0.00000  Uiso   1.00
H842   H     0.94216   0.11081   0.82112   0.00000  Uiso   1.00
H843   H     0.92330   0.12219   0.86801   0.00000  Uiso   1.00
H844   H     0.59767   0.36126   0.15569   0.00000  Uiso   1.00
H845   H     0.60564   0.29901   0.14270   0.00000  Uiso   1.00
H846   H     0.61307   0.29010   0.19327   0.00000  Uiso   1.00
H847   H     0.94927   0.22119   0.97295   0.00000  Uiso   1.00
H848   H     0.64719   0.31474   0.16553   0.00000  Uiso   1.00
H849   H     0.90487   0.13693   0.65779   0.00000  Uiso   1.00
H850   H     0.84895   0.17373   0.65366   0.00000  Uiso   1.00
H851   H     0.88942   0.19849   0.63983   0.00000  Uiso   1.00
H852   H     0.86985   0.20507   0.68715   0.00000  Uiso   1.00
H853   H     0.58660   0.37011   0.33995   0.00000  Uiso   1.00
H854   H     0.62595   0.32916   0.36821   0.00000  Uiso   1.00
H855   H     0.63438   0.30720   0.32217   0.00000  Uiso   1.00
H856   H     0.59246   0.29880   0.34817   0.00000  Uiso   1.00
H857   H     0.84669   0.39086   0.65716   0.00000  Uiso   1.00
H858   H     0.96439   0.20341   0.52554   0.00000  Uiso   1.00
H859   H     0.80565   0.34377   0.65241   0.00000  Uiso   1.00
H860   H     0.77640   0.37740   0.67379   0.00000  Uiso   1.00
H861   H     0.79785   0.34403   0.70416   0.00000  Uiso   1.00
H862   H     0.70808   0.16525   0.24042   0.00000  Uiso   1.00
H863   H     0.70017   0.17533   0.31082   0.00000  Uiso   1.00
H864   H     0.74183   0.15209   0.29893   0.00000  Uiso   1.00
H865   H     0.70320   0.12688   0.31704   0.00000  Uiso   1.00
H866   H     0.59214   0.36528   0.65850   0.00000  Uiso   1.00
H867   H     0.64859   0.32930   0.65178   0.00000  Uiso   1.00
H868   H     0.60810   0.30436   0.63838   0.00000  Uiso   1.00
N869   N     0.65047   0.40367   0.17862   0.00000  Uiso   1.00
N870   N     0.85799   0.41273   0.18048   0.00000  Uiso   1.00
N871   N     0.59967   0.34532   0.82135   0.00000  Uiso   1.00
N872   N     0.89721   0.15837   0.17976   0.00000  Uiso   1.00
N873   N     0.86438   0.41790   0.81751   0.00000  Uiso   1.00
N874   N     0.60445   0.05098   0.24177   0.00000  Uiso   1.00
N875   N     0.90227   0.15278   0.82143   0.00000  Uiso   1.00
N876   N     0.59976   0.34421   0.17922   0.00000  Uiso   1.00
N877   N     0.89833   0.15566   0.67886   0.00000  Uiso   1.00
N878   N     0.59529   0.34990   0.32150   0.00000  Uiso   1.00
N879   N     0.83243   0.38623   0.68246   0.00000  Uiso   1.00
N880   N     0.84690   0.09823   0.82168   0.00000  Uiso   1.00
N881   N     0.69942   0.14483   0.25874   0.00000  Uiso   1.00
N882   N     0.59967   0.34615   0.67881   0.00000  Uiso   1.00
N883   N     0.90582   0.14931   0.32145   0.00000  Uiso   1.00
N884   N     0.70031   0.14440   0.74805   0.00000  Uiso   1.00
N885   N     0.83709   0.39174   0.31960   0.00000  Uiso   1.00
N886   N     0.88467   0.33116   0.31699   0.00000  Uiso   1.00
N887   N     0.64541   0.19880   0.73953   0.00000  Uiso   1.00
N888   N     0.84937   0.09573   0.32144   0.00000  Uiso   1.00
N889   N     0.64859   0.40704   0.67945   0.00000  Uiso   1.00
N890   N     0.64501   0.19974   0.25109   0.00000  Uiso   1.00
N891   N     0.54968   0.10562   0.24989   0.00000  Uiso   1.00
N892   N     0.89079   0.33644   0.68065   0.00000  Uiso   1.00
N893   N     0.65076   0.40439   0.32123   0.00000  Uiso   1.00
N894   N     0.84895   0.09512   0.67929   0.00000  Uiso   1.00
N895   N     0.71326   0.44330   0.10191   0.00000  Uiso   1.00
N896   N     0.79594   0.45079   0.89795   0.00000  Uiso   1.00
N897   N     0.96399   0.19165   0.09990   0.00000  Uiso   1.00
N898   N     0.55953   0.28201   0.89647   0.00000  Uiso   1.00
N899   N     0.78587   0.05688   0.10207   0.00000  Uiso   1.00
N900   N     0.70378   0.04844   0.89862   0.00000  Uiso   1.00
N901   N     0.53225   0.30874   0.10092   0.00000  Uiso   1.00
N902   N     0.91235   0.35760   0.81974   0.00000  Uiso   1.00
N903   N     0.94233   0.21528   0.89730   0.00000  Uiso   1.00
N904   N     0.96077   0.19531   0.60204   0.00000  Uiso   1.00
N905   N     0.54860   0.20376   0.39876   0.00000  Uiso   1.00
N906   N     0.71562   0.44064   0.59954   0.00000  Uiso   1.00
N907   N     0.80839   0.03418   0.39713   0.00000  Uiso   1.00
N908   N     0.54024   0.30433   0.60168   0.00000  Uiso   1.00
N909   N     0.95226   0.29738   0.39803   0.00000  Uiso   1.00
N910   N     0.77938   0.06034   0.60096   0.00000  Uiso   1.00
N911   N     0.69115   0.46748   0.39667   0.00000  Uiso   1.00
N912   N     0.84888   0.09683   0.17883   0.00000  Uiso   1.00
N913   N     0.65559   0.39944   0.82149   0.00000  Uiso   1.00
N914   N     0.91971   0.36649   0.18376   0.00000  Uiso   1.00
N915   N     0.55086   0.10533   0.76115   0.00000  Uiso   1.00
N916   N     0.60498   0.05034   0.75304   0.00000  Uiso   1.00
O917   O     0.75000  -0.00000   0.25000   0.00000  Uiso   1.00
O918   O     0.75000   0.46964   0.66317   0.00000  Uiso   1.00
O919   O     0.96964   0.25000   0.33683   0.00000  Uiso   1.00
O920   O     0.53036   0.25000   0.66317   0.00000  Uiso   1.00
O921   O     0.50000   0.21964   0.83683   0.00000  Uiso   1.00
O922   O     0.50000   0.28036   0.16317   0.00000  Uiso   1.00
O923   O     0.78036  -0.00000   0.83683   0.00000  Uiso   1.00
O924   O     0.71964  -0.00000   0.16317   0.00000  Uiso   1.00
O925   O     0.50000   0.28036   0.83683   0.00000  Uiso   1.00
O926   O     0.50000   0.21964   0.16317   0.00000  Uiso   1.00
O927   O     0.71964  -0.00000   0.83683   0.00000  Uiso   1.00
O928   O     0.75000  -0.00000   0.75000   0.00000  Uiso   1.00
O929   O     0.78036  -0.00000   0.16317   0.00000  Uiso   1.00
O930   O     0.70725   0.07307   0.27282   0.00000  Uiso   1.00
O931   O     0.79274   0.42693   0.72718   0.00000  Uiso   1.00
O932   O     0.92693   0.20725   0.27282   0.00000  Uiso   1.00
O933   O     0.57307   0.29275   0.72718   0.00000  Uiso   1.00
O934   O     0.79274   0.42693   0.27282   0.00000  Uiso   1.00
O935   O     0.70725   0.07307   0.72718   0.00000  Uiso   1.00
O936   O     0.57307   0.29275   0.27282   0.00000  Uiso   1.00
O937   O     0.92693   0.20725   0.72718   0.00000  Uiso   1.00
O938   O     0.70725   0.42693   0.72718   0.00000  Uiso   1.00
O939   O     0.50000   0.25000   0.25000   0.00000  Uiso   1.00
O940   O     0.79274   0.07307   0.27282   0.00000  Uiso   1.00
O941   O     0.92693   0.29274   0.72718   0.00000  Uiso   1.00
O942   O     0.57307   0.20726   0.27282   0.00000  Uiso   1.00
O943   O     0.79274   0.07307   0.72718   0.00000  Uiso   1.00
O944   O     0.70725   0.42693   0.27282   0.00000  Uiso   1.00
O945   O     0.57307   0.20726   0.72718   0.00000  Uiso   1.00
O946   O     0.92693   0.29274   0.27282   0.00000  Uiso   1.00
O947   O     0.95725   0.32307   0.77282   0.00000  Uiso   1.00
O948   O     0.54274   0.17693   0.22718   0.00000  Uiso   1.00
O949   O     0.67693   0.45726   0.77282   0.00000  Uiso   1.00
O950   O     0.50000   0.25000   0.75000   0.00000  Uiso   1.00
O951   O     0.82307   0.04274   0.22718   0.00000  Uiso   1.00
O952   O     0.54274   0.17693   0.77282   0.00000  Uiso   1.00
O953   O     0.95725   0.32307   0.22718   0.00000  Uiso   1.00
O954   O     0.82307   0.04274   0.77282   0.00000  Uiso   1.00
O955   O     0.67693   0.45726   0.22718   0.00000  Uiso   1.00
O956   O     0.95725   0.17693   0.22718   0.00000  Uiso   1.00
O957   O     0.54274   0.32307   0.77282   0.00000  Uiso   1.00
O958   O     0.67693   0.04274   0.22718   0.00000  Uiso   1.00
O959   O     0.82307   0.45726   0.77282   0.00000  Uiso   1.00
O960   O     0.54274   0.32307   0.22718   0.00000  Uiso   1.00
O961   O     0.75000   0.46964   0.33683   0.00000  Uiso   1.00
O962   O     0.95725   0.17693   0.77282   0.00000  Uiso   1.00
O963   O     0.82307   0.45726   0.22718   0.00000  Uiso   1.00
O964   O     0.67693   0.04274   0.77282   0.00000  Uiso   1.00
O965   O     0.75000   0.03036   0.66317   0.00000  Uiso   1.00
O966   O     0.53036   0.25000   0.33683   0.00000  Uiso   1.00
O967   O     0.96964   0.25000   0.66317   0.00000  Uiso   1.00
O968   O     0.75000   0.03036   0.33683   0.00000  Uiso   1.00
Zn969  Zn    0.70660  -0.00000   0.21760   0.00000  Uiso   1.00
Zn970  Zn    0.54340   0.25000   0.28240   0.00000  Uiso   1.00
Zn971  Zn    0.75000   0.45660   0.71760   0.00000  Uiso   1.00
Zn972  Zn    0.75000   0.04340   0.28240   0.00000  Uiso   1.00
Zn973  Zn    0.54340   0.25000   0.71760   0.00000  Uiso   1.00
Zn974  Zn    0.95660   0.25000   0.28240   0.00000  Uiso   1.00
Zn975  Zn    0.75000   0.04340   0.71760   0.00000  Uiso   1.00
Zn976  Zn    0.75000   0.45660   0.28240   0.00000  Uiso   1.00
Zn977  Zn    0.79340  -0.00000   0.78240   0.00000  Uiso   1.00
Zn978  Zn    0.50000   0.20660   0.21760   0.00000  Uiso   1.00
Zn979  Zn    0.50000   0.29340   0.78240   0.00000  Uiso   1.00
Zn980  Zn    0.79340  -0.00000   0.21760   0.00000  Uiso   1.00
Zn981  Zn    0.70660  -0.00000   0.78240   0.00000  Uiso   1.00
Zn982  Zn    0.50000   0.29340   0.21760   0.00000  Uiso   1.00
Zn983  Zn    0.50000   0.20660   0.78240   0.00000  Uiso   1.00
Zn984  Zn    0.95660   0.25000   0.71760   0.00000  Uiso   1.00
C985   C     0.23227   0.97202   0.04139   0.00000  Uiso   1.00
C986   C     0.02383   0.72781   0.45902   0.00000  Uiso   1.00
C987   C     0.34856   0.90208   0.74993   0.00000  Uiso   1.00
C988   C     0.40162   0.65236   0.25041   0.00000  Uiso   1.00
C989   C     0.09874   0.84766   0.75013   0.00000  Uiso   1.00
C990   C     0.34795   0.90192   0.25003   0.00000  Uiso   1.00
C991   C     0.15200   0.59799   0.75027   0.00000  Uiso   1.00
C992   C     0.09838   0.65179   0.75017   0.00000  Uiso   1.00
C993   C     0.40169   0.84826   0.25007   0.00000  Uiso   1.00
C994   C     0.15169   0.90228   0.75039   0.00000  Uiso   1.00
C995   C     0.34866   0.59774   0.25016   0.00000  Uiso   1.00
C996   C     0.40192   0.84802   0.74999   0.00000  Uiso   1.00
C997   C     0.23570   0.97007   0.54079   0.00000  Uiso   1.00
C998   C     0.09801   0.65202   0.25027   0.00000  Uiso   1.00
C999   C     0.34837   0.59766   0.75039   0.00000  Uiso   1.00
C1000  C     0.15131   0.90229   0.24999   0.00000  Uiso   1.00
C1001  C     0.24998   0.99988   0.10244   0.00000  Uiso   1.00
C1002  C     0.25008   0.99982   0.89773   0.00000  Uiso   1.00
C1003  C     0.49925   0.74985   0.10210   0.00000  Uiso   1.00
C1004  C     0.00042   0.74968   0.89685   0.00000  Uiso   1.00
C1005  C     0.49995   0.75011   0.60238   0.00000  Uiso   1.00
C1006  C     0.00001   0.75015   0.39777   0.00000  Uiso   1.00
C1007  C     0.24862   0.50017   0.60203   0.00000  Uiso   1.00
C1008  C     0.27905   0.51603   0.45751   0.00000  Uiso   1.00
C1009  C     0.25010   0.50009   0.39684   0.00000  Uiso   1.00
C1010  C     0.12848   0.93257   0.16238   0.00000  Uiso   1.00
C1011  C     0.36528   0.56780   0.83976   0.00000  Uiso   1.00
C1012  C     0.03405   0.60550   0.28842   0.00000  Uiso   1.00
C1013  C     0.39397   0.82892   0.84086   0.00000  Uiso   1.00
C1014  C     0.37168   0.56887   0.16201   0.00000  Uiso   1.00
C1015  C     0.13798   0.92933   0.84132   0.00000  Uiso   1.00
C1016  C     0.44973   0.89228   0.18273   0.00000  Uiso   1.00
C1017  C     0.03978   0.60087   0.80125   0.00000  Uiso   1.00
C1018  C     0.10150   0.53475   0.71470   0.00000  Uiso   1.00
C1019  C     0.01977   0.77644   0.54130   0.00000  Uiso   1.00
C1020  C     0.32922   0.89476   0.15896   0.00000  Uiso   1.00
C1021  C     0.07014   0.86411   0.84067   0.00000  Uiso   1.00
C1022  C     0.37665   0.69110   0.17219   0.00000  Uiso   1.00
C1023  C     0.38885   0.94879   0.82116   0.00000  Uiso   1.00
C1024  C     0.09827   0.53932   0.20212   0.00000  Uiso   1.00
C1025  C     0.43209   0.63340   0.83962   0.00000  Uiso   1.00
C1026  C     0.11746   0.81029   0.16982   0.00000  Uiso   1.00
C1027  C     0.37541   0.68462   0.66425   0.00000  Uiso   1.00
C1028  C     0.11314   0.81981   0.34079   0.00000  Uiso   1.00
C1029  C     0.30169   0.86151   0.67812   0.00000  Uiso   1.00
C1030  C     0.47563   0.77261   0.45870   0.00000  Uiso   1.00
C1031  C     0.21161   0.65005   0.29839   0.00000  Uiso   1.00
C1032  C     0.12252   0.81786   0.66275   0.00000  Uiso   1.00
C1033  C     0.38827   0.67912   0.34148   0.00000  Uiso   1.00
C1034  C     0.21659   0.64529   0.78628   0.00000  Uiso   1.00
C1035  C     0.35542   0.92006   0.34133   0.00000  Uiso   1.00
C1036  C     0.35999   0.80034   0.31948   0.00000  Uiso   1.00
C1037  C     0.15077   0.70945   0.69942   0.00000  Uiso   1.00
C1038  C     0.31968   0.61478   0.34022   0.00000  Uiso   1.00
C1039  C     0.12931   0.94037   0.67117   0.00000  Uiso   1.00
C1040  C     0.14731   0.71484   0.21242   0.00000  Uiso   1.00
C1041  C     0.26369   0.52968   0.54098   0.00000  Uiso   1.00
C1042  C     0.42012   0.85256   0.65839   0.00000  Uiso   1.00
C1043  C     0.18028   0.88552   0.34054   0.00000  Uiso   1.00
C1044  C     0.36780   0.56213   0.66867   0.00000  Uiso   1.00
C1045  C     0.23682   0.91541   0.11742   0.00000  Uiso   1.00
C1046  C     0.27730   0.91837   0.88456   0.00000  Uiso   1.00
C1047  C     0.48245   0.65706   0.10235   0.00000  Uiso   1.00
C1048  C     0.08652   0.75660   0.88252   0.00000  Uiso   1.00
C1049  C     0.26151   0.58503   0.11551   0.00000  Uiso   1.00
C1050  C     0.22177   0.58126   0.88537   0.00000  Uiso   1.00
C1051  C     0.00998   0.84103   0.10264   0.00000  Uiso   1.00
C1052  C     0.22110   0.98391   0.45733   0.00000  Uiso   1.00
C1053  C     0.41508   0.73968   0.88197   0.00000  Uiso   1.00
C1054  C     0.48364   0.66574   0.61502   0.00000  Uiso   1.00
C1055  C     0.03219   0.67010   0.38559   0.00000  Uiso   1.00
C1056  C     0.23576   0.90696   0.60074   0.00000  Uiso   1.00
C1057  C     0.33538   0.50974   0.38142   0.00000  Uiso   1.00
C1058  C     0.01913   0.83113   0.62267   0.00000  Uiso   1.00
C1059  C     0.46986   0.83056   0.38516   0.00000  Uiso   1.00
C1060  C     0.25591   0.59176   0.60355   0.00000  Uiso   1.00
C1061  C     0.16395   0.99298   0.38334   0.00000  Uiso   1.00
C1062  C     0.23189   0.97180   0.08198   0.00000  Uiso   1.00
C1063  C     0.27317   0.97573   0.91809   0.00000  Uiso   1.00
C1064  C     0.48406   0.72003   0.08138   0.00000  Uiso   1.00
C1065  C     0.27323   0.97603   0.95867   0.00000  Uiso   1.00
C1066  C     0.02994   0.76559   0.91685   0.00000  Uiso   1.00
C1067  C     0.26817   0.52789   0.08202   0.00000  Uiso   1.00
C1068  C     0.22710   0.52372   0.91839   0.00000  Uiso   1.00
C1069  C     0.01544   0.77899   0.08138   0.00000  Uiso   1.00
C1070  C     0.47168   0.73277   0.91718   0.00000  Uiso   1.00
C1071  C     0.47994   0.72333   0.58198   0.00000  Uiso   1.00
C1072  C     0.02414   0.72736   0.41847   0.00000  Uiso   1.00
C1073  C     0.23404   0.97014   0.58111   0.00000  Uiso   1.00
C1074  C     0.27914   0.51666   0.41710   0.00000  Uiso   1.00
C1075  C     0.01995   0.77688   0.58185   0.00000  Uiso   1.00
C1076  C     0.48632   0.71943   0.04108   0.00000  Uiso   1.00
C1077  C     0.47583   0.77312   0.41813   0.00000  Uiso   1.00
C1078  C     0.26341   0.53014   0.58138   0.00000  Uiso   1.00
C1079  C     0.22094   0.98373   0.41694   0.00000  Uiso   1.00
C1080  C     0.25052   0.99958   0.02129   0.00000  Uiso   1.00
C1081  C     0.25045   0.99965   0.97894   0.00000  Uiso   1.00
C1082  C     0.00167   0.74857   0.02060   0.00000  Uiso   1.00
C1083  C     0.00152   0.74860   0.97789   0.00000  Uiso   1.00
C1084  C     0.49954   0.75025   0.52126   0.00000  Uiso   1.00
C1085  C     0.49958   0.75015   0.47896   0.00000  Uiso   1.00
C1086  C     0.25005   0.99976   0.52050   0.00000  Uiso   1.00
C1087  C     0.03036   0.76468   0.95727   0.00000  Uiso   1.00
C1088  C     0.25014   0.99979   0.47784   0.00000  Uiso   1.00
C1089  C     0.25003   0.50002   0.35486   0.00000  Uiso   1.00
C1090  C     0.24951   0.50002   0.64473   0.00000  Uiso   1.00
C1091  C     0.00001   0.75000   0.35522   0.00000  Uiso   1.00
C1092  C     0.49999   0.75004   0.64484   0.00000  Uiso   1.00
C1093  C     0.00010   0.74995   0.85486   0.00000  Uiso   1.00
C1094  C     0.49962   0.74998   0.14475   0.00000  Uiso   1.00
C1095  C     0.25002   0.50000   0.85520   0.00000  Uiso   1.00
C1096  C     0.24998   0.50000   0.14486   0.00000  Uiso   1.00
C1097  C     0.17984   0.57005   0.25002   0.00000  Uiso   1.00
C1098  C     0.26841   0.52735   0.04145   0.00000  Uiso   1.00
C1099  C     0.32017   0.92999   0.74999   0.00000  Uiso   1.00
C1100  C     0.43009   0.67996   0.25031   0.00000  Uiso   1.00
C1101  C     0.07018   0.81991   0.75004   0.00000  Uiso   1.00
C1102  C     0.32001   0.93001   0.25002   0.00000  Uiso   1.00
C1103  C     0.17995   0.56992   0.74998   0.00000  Uiso   1.00
C1104  C     0.06986   0.82010   0.25037   0.00000  Uiso   1.00
C1105  C     0.42981   0.68009   0.75003   0.00000  Uiso   1.00
C1106  C     0.18012   0.92993   0.75034   0.00000  Uiso   1.00
C1107  C     0.32017   0.56991   0.25006   0.00000  Uiso   1.00
C1108  C     0.42993   0.81996   0.75003   0.00000  Uiso   1.00
C1109  C     0.22744   0.52328   0.95895   0.00000  Uiso   1.00
C1110  C     0.07005   0.68008   0.24999   0.00000  Uiso   1.00
C1111  C     0.31989   0.57006   0.75035   0.00000  Uiso   1.00
C1112  C     0.17986   0.93005   0.24996   0.00000  Uiso   1.00
C1113  C     0.07016   0.67995   0.75005   0.00000  Uiso   1.00
C1114  C     0.42990   0.82011   0.25005   0.00000  Uiso   1.00
C1115  C     0.13729   0.88921   0.21440   0.00000  Uiso   1.00
C1116  C     0.36186   0.61103   0.78595   0.00000  Uiso   1.00
C1117  C     0.08749   0.61520   0.24849   0.00000  Uiso   1.00
C1118  C     0.39486   0.86760   0.78433   0.00000  Uiso   1.00
C1119  C     0.36213   0.61128   0.21458   0.00000  Uiso   1.00
C1120  C     0.01611   0.77819   0.04099   0.00000  Uiso   1.00
C1121  C     0.13934   0.88783   0.78592   0.00000  Uiso   1.00
C1122  C     0.39654   0.87018   0.21674   0.00000  Uiso   1.00
C1123  C     0.08827   0.61500   0.75579   0.00000  Uiso   1.00
C1124  C     0.11502   0.58788   0.75331   0.00000  Uiso   1.00
C1125  C     0.36768   0.89498   0.21583   0.00000  Uiso   1.00
C1126  C     0.11218   0.86084   0.78581   0.00000  Uiso   1.00
C1127  C     0.38721   0.64026   0.21484   0.00000  Uiso   1.00
C1128  C     0.36985   0.89629   0.78363   0.00000  Uiso   1.00
C1129  C     0.11450   0.58829   0.24587   0.00000  Uiso   1.00
C1130  C     0.38889   0.63813   0.78581   0.00000  Uiso   1.00
C1131  C     0.47226   0.73286   0.95758   0.00000  Uiso   1.00
C1132  C     0.11181   0.86057   0.21462   0.00000  Uiso   1.00
C1133  C     0.38638   0.64008   0.71458   0.00000  Uiso   1.00
C1134  C     0.11109   0.86184   0.28585   0.00000  Uiso   1.00
C1135  C     0.35423   0.88088   0.71626   0.00000  Uiso   1.00
C1136  C     0.16186   0.63511   0.25465   0.00000  Uiso   1.00
C1137  C     0.11252   0.86092   0.71455   0.00000  Uiso   1.00
C1138  C     0.38943   0.63779   0.28593   0.00000  Uiso   1.00
C1139  C     0.16248   0.63477   0.74754   0.00000  Uiso   1.00
C1140  C     0.35487   0.88212   0.28426   0.00000  Uiso   1.00
C1141  C     0.37984   0.85341   0.28347   0.00000  Uiso   1.00
C1142  C     0.47964   0.72389   0.54141   0.00000  Uiso   1.00
C1143  C     0.13543   0.66163   0.74488   0.00000  Uiso   1.00
C1144  C     0.36215   0.61092   0.28584   0.00000  Uiso   1.00
C1145  C     0.13775   0.88976   0.71476   0.00000  Uiso   1.00
C1146  C     0.13504   0.66220   0.25228   0.00000  Uiso   1.00
C1147  C     0.38231   0.85524   0.71568   0.00000  Uiso   1.00
C1148  C     0.13813   0.88893   0.28568   0.00000  Uiso   1.00
C1149  C     0.36119   0.61122   0.71473   0.00000  Uiso   1.00
C1150  C     0.09833   0.84771   0.25033   0.00000  Uiso   1.00
C1151  C     0.40123   0.65236   0.75013   0.00000  Uiso   1.00
C1152  C     0.15163   0.59822   0.25010   0.00000  Uiso   1.00
H1153  H     0.21846   0.95060   0.02545   0.00000  Uiso   1.00
H1154  H     0.04225   0.71042   0.47507   0.00000  Uiso   1.00
H1155  H     0.12882   0.79701   0.68496   0.00000  Uiso   1.00
H1156  H     0.41492   0.62888   0.33942   0.00000  Uiso   1.00
H1157  H     0.37591   0.66936   0.36896   0.00000  Uiso   1.00
H1158  H     0.36673   0.69197   0.32341   0.00000  Uiso   1.00
H1159  H     0.40905   0.70005   0.34883   0.00000  Uiso   1.00
H1160  H     0.20772   0.66644   0.73142   0.00000  Uiso   1.00
H1161  H     0.20380   0.66687   0.80416   0.00000  Uiso   1.00
H1162  H     0.24625   0.65110   0.78371   0.00000  Uiso   1.00
H1163  H     0.21327   0.61864   0.80100   0.00000  Uiso   1.00
H1164  H     0.32876   0.87036   0.33675   0.00000  Uiso   1.00
H1165  H     0.22519   0.94665   0.52529   0.00000  Uiso   1.00
H1166  H     0.38279   0.91082   0.35088   0.00000  Uiso   1.00
H1167  H     0.33904   0.92684   0.36739   0.00000  Uiso   1.00
H1168  H     0.35849   0.94492   0.32331   0.00000  Uiso   1.00
H1169  H     0.38682   0.84518   0.34277   0.00000  Uiso   1.00
H1170  H     0.36855   0.78244   0.34374   0.00000  Uiso   1.00
H1171  H     0.36044   0.78421   0.29225   0.00000  Uiso   1.00
H1172  H     0.33163   0.80944   0.32483   0.00000  Uiso   1.00
H1173  H     0.16613   0.70768   0.75747   0.00000  Uiso   1.00
H1174  H     0.15621   0.73909   0.69797   0.00000  Uiso   1.00
H1175  H     0.12615   0.70328   0.68180   0.00000  Uiso   1.00
H1176  H     0.30203   0.52772   0.47293   0.00000  Uiso   1.00
H1177  H     0.17428   0.69502   0.68645   0.00000  Uiso   1.00
H1178  H     0.36935   0.58696   0.34022   0.00000  Uiso   1.00
H1179  H     0.29702   0.59541   0.34589   0.00000  Uiso   1.00
H1180  H     0.30913   0.63740   0.32204   0.00000  Uiso   1.00
H1181  H     0.32884   0.62593   0.36853   0.00000  Uiso   1.00
H1182  H     0.15062   0.89040   0.65558   0.00000  Uiso   1.00
H1183  H     0.13885   0.95186   0.64318   0.00000  Uiso   1.00
H1184  H     0.13471   0.96072   0.69421   0.00000  Uiso   1.00
H1185  H     0.09950   0.93508   0.66906   0.00000  Uiso   1.00
H1186  H     0.16681   0.70713   0.26821   0.00000  Uiso   1.00
H1187  H     0.03508   0.79678   0.52531   0.00000  Uiso   1.00
H1188  H     0.15509   0.74398   0.21425   0.00000  Uiso   1.00
H1189  H     0.12055   0.71270   0.19744   0.00000  Uiso   1.00
H1190  H     0.16835   0.70038   0.19519   0.00000  Uiso   1.00
H1191  H     0.36873   0.82911   0.66382   0.00000  Uiso   1.00
H1192  H     0.42538   0.83564   0.63236   0.00000  Uiso   1.00
H1193  H     0.44552   0.85390   0.67595   0.00000  Uiso   1.00
H1194  H     0.41264   0.88036   0.64878   0.00000  Uiso   1.00
H1195  H     0.13076   0.91371   0.33966   0.00000  Uiso   1.00
H1196  H     0.20282   0.90499   0.34639   0.00000  Uiso   1.00
H1197  H     0.19111   0.86286   0.32262   0.00000  Uiso   1.00
H1198  H     0.45721   0.79018   0.47449   0.00000  Uiso   1.00
H1199  H     0.17085   0.87452   0.36879   0.00000  Uiso   1.00
H1200  H     0.34569   0.61256   0.65624   0.00000  Uiso   1.00
H1201  H     0.35505   0.55031   0.64229   0.00000  Uiso   1.00
H1202  H     0.36593   0.54170   0.69232   0.00000  Uiso   1.00
H1203  H     0.39697   0.56812   0.66250   0.00000  Uiso   1.00
H1204  H     0.19172   0.93235   0.08647   0.00000  Uiso   1.00
H1205  H     0.22015   0.89447   0.13245   0.00000  Uiso   1.00
H1206  H     0.25613   0.92712   0.13884   0.00000  Uiso   1.00
H1207  H     0.25230   0.90215   0.09364   0.00000  Uiso   1.00
H1208  H     0.31981   0.94476   0.91242   0.00000  Uiso   1.00
H1209  H     0.27425   0.55320   0.52571   0.00000  Uiso   1.00
H1210  H     0.26710   0.90235   0.90969   0.00000  Uiso   1.00
H1211  H     0.29650   0.90133   0.86770   0.00000  Uiso   1.00
H1212  H     0.25404   0.92546   0.86539   0.00000  Uiso   1.00
H1213  H     0.44986   0.69875   0.12454   0.00000  Uiso   1.00
H1214  H     0.46400   0.63662   0.11580   0.00000  Uiso   1.00
H1215  H     0.00744   0.65959   0.12042   0.00000  Uiso   1.00
H1216  H     0.48998   0.64728   0.07297   0.00000  Uiso   1.00
H1217  H     0.07134   0.80356   0.91103   0.00000  Uiso   1.00
H1218  H     0.10760   0.77144   0.86560   0.00000  Uiso   1.00
H1219  H     0.07381   0.73594   0.86324   0.00000  Uiso   1.00
H1220  H     0.19796   0.97236   0.47257   0.00000  Uiso   1.00
H1221  H     0.09993   0.74277   0.90735   0.00000  Uiso   1.00
H1222  H     0.30796   0.56758   0.08737   0.00000  Uiso   1.00
H1223  H     0.27725   0.60567   0.13209   0.00000  Uiso   1.00
H1224  H     0.24025   0.57356   0.13497   0.00000  Uiso   1.00
H1225  H     0.24820   0.59857   0.09043   0.00000  Uiso   1.00
H1226  H     0.17998   0.55400   0.91338   0.00000  Uiso   1.00
H1227  H     0.23249   0.59695   0.91050   0.00000  Uiso   1.00
H1228  H     0.20190   0.59840   0.86947   0.00000  Uiso   1.00
H1229  H     0.24455   0.57471   0.86538   0.00000  Uiso   1.00
H1230  H     0.05809   0.81447   0.09070   0.00000  Uiso   1.00
H1231  H     0.15739   0.88429   0.15837   0.00000  Uiso   1.00
H1232  H     0.02357   0.86162   0.12132   0.00000  Uiso   1.00
H1233  H     0.48279   0.83457   0.11517   0.00000  Uiso   1.00
H1234  H     0.00633   0.85268   0.07315   0.00000  Uiso   1.00
H1235  H     0.43076   0.69401   0.91254   0.00000  Uiso   1.00
H1236  H     0.39329   0.72377   0.86730   0.00000  Uiso   1.00
H1237  H     0.42736   0.75824   0.86025   0.00000  Uiso   1.00
H1238  H     0.40264   0.75576   0.90578   0.00000  Uiso   1.00
H1239  H     0.43795   0.68599   0.58751   0.00000  Uiso   1.00
H1240  H     0.46697   0.64584   0.63157   0.00000  Uiso   1.00
H1241  H     0.00568   0.67588   0.63437   0.00000  Uiso   1.00
H1242  H     0.10248   0.92175   0.15052   0.00000  Uiso   1.00
H1243  H     0.49593   0.65168   0.58971   0.00000  Uiso   1.00
H1244  H     0.07268   0.69938   0.41352   0.00000  Uiso   1.00
H1245  H     0.02234   0.65393   0.41077   0.00000  Uiso   1.00
H1246  H     0.05283   0.65394   0.36967   0.00000  Uiso   1.00
H1247  H     0.00903   0.67551   0.36565   0.00000  Uiso   1.00
H1248  H     0.20165   0.94663   0.62458   0.00000  Uiso   1.00
H1249  H     0.21947   0.88589   0.61611   0.00000  Uiso   1.00
H1250  H     0.26202   0.91099   0.61626   0.00000  Uiso   1.00
H1251  H     0.24134   0.89713   0.57089   0.00000  Uiso   1.00
H1252  H     0.32020   0.55524   0.41250   0.00000  Uiso   1.00
H1253  H     0.14372   0.94609   0.13859   0.00000  Uiso   1.00
H1254  H     0.35717   0.52562   0.36675   0.00000  Uiso   1.00
H1255  H     0.32283   0.99142   0.35962   0.00000  Uiso   1.00
H1256  H     0.34790   0.99339   0.40501   0.00000  Uiso   1.00
H1257  H     0.06167   0.81540   0.58621   0.00000  Uiso   1.00
H1258  H     0.02443   0.85869   0.61071   0.00000  Uiso   1.00
H1259  H     0.02723   0.83081   0.65368   0.00000  Uiso   1.00
H1260  H     0.48936   0.82564   0.62075   0.00000  Uiso   1.00
H1261  H     0.42811   0.80243   0.41235   0.00000  Uiso   1.00
H1262  H     0.47937   0.84665   0.41055   0.00000  Uiso   1.00
H1263  H     0.45018   0.84714   0.36836   0.00000  Uiso   1.00
H1264  H     0.29079   0.95758   0.97447   0.00000  Uiso   1.00
H1265  H     0.12198   0.95326   0.18467   0.00000  Uiso   1.00
H1266  H     0.49345   0.82447   0.36609   0.00000  Uiso   1.00
H1267  H     0.30484   0.56714   0.59040   0.00000  Uiso   1.00
H1268  H     0.26920   0.61279   0.62194   0.00000  Uiso   1.00
H1269  H     0.22935   0.58429   0.61695   0.00000  Uiso   1.00
H1270  H     0.25103   0.60337   0.57425   0.00000  Uiso   1.00
H1271  H     0.17955   0.94572   0.41106   0.00000  Uiso   1.00
H1272  H     0.14272   0.97829   0.36645   0.00000  Uiso   1.00
H1273  H     0.17640   0.51390   0.36419   0.00000  Uiso   1.00
H1274  H     0.15078   0.50650   0.40849   0.00000  Uiso   1.00
H1275  H     0.33850   0.61799   0.84084   0.00000  Uiso   1.00
H1276  H     0.37872   0.57661   0.86704   0.00000  Uiso   1.00
H1277  H     0.38608   0.55562   0.82027   0.00000  Uiso   1.00
H1278  H     0.34484   0.54657   0.84721   0.00000  Uiso   1.00
H1279  H     0.04198   0.58325   0.23392   0.00000  Uiso   1.00
H1280  H     0.04717   0.58430   0.30657   0.00000  Uiso   1.00
H1281  H     0.00435   0.59960   0.28650   0.00000  Uiso   1.00
H1282  H     0.03758   0.63244   0.30244   0.00000  Uiso   1.00
H1283  H     0.42040   0.87879   0.83730   0.00000  Uiso   1.00
H1284  H     0.47526   0.69616   0.02578   0.00000  Uiso   1.00
H1285  H     0.36634   0.83781   0.84995   0.00000  Uiso   1.00
H1286  H     0.40998   0.82210   0.86719   0.00000  Uiso   1.00
H1287  H     0.39145   0.80418   0.82258   0.00000  Uiso   1.00
H1288  H     0.34110   0.61618   0.15889   0.00000  Uiso   1.00
H1289  H     0.39769   0.58059   0.15120   0.00000  Uiso   1.00
H1290  H     0.35713   0.55594   0.13735   0.00000  Uiso   1.00
H1291  H     0.37809   0.54749   0.18366   0.00000  Uiso   1.00
H1292  H     0.16451   0.87904   0.83960   0.00000  Uiso   1.00
H1293  H     0.12551   0.91969   0.86879   0.00000  Uiso   1.00
H1294  H     0.11651   0.94212   0.82310   0.00000  Uiso   1.00
H1295  H     0.05372   0.77593   0.97240   0.00000  Uiso   1.00
H1296  H     0.15875   0.95027   0.84866   0.00000  Uiso   1.00
H1297  H     0.40624   0.86428   0.15761   0.00000  Uiso   1.00
H1298  H     0.43957   0.92052   0.17994   0.00000  Uiso   1.00
H1299  H     0.46751   0.88636   0.15755   0.00000  Uiso   1.00
H1300  H     0.46641   0.89035   0.20956   0.00000  Uiso   1.00
H1301  H     0.04172   0.58455   0.74356   0.00000  Uiso   1.00
H1302  H     0.05192   0.57606   0.81404   0.00000  Uiso   1.00
H1303  H     0.00962   0.59842   0.80270   0.00000  Uiso   1.00
H1304  H     0.04833   0.62460   0.81903   0.00000  Uiso   1.00
H1305  H     0.08370   0.54323   0.77097   0.00000  Uiso   1.00
H1306  H     0.28222   0.54881   0.02557   0.00000  Uiso   1.00
H1307  H     0.09344   0.50574   0.71723   0.00000  Uiso   1.00
H1308  H     0.12789   0.53641   0.69896   0.00000  Uiso   1.00
H1309  H     0.08018   0.54919   0.69782   0.00000  Uiso   1.00
H1310  H     0.37936   0.92089   0.16313   0.00000  Uiso   1.00
H1311  H     0.32225   0.91122   0.13302   0.00000  Uiso   1.00
H1312  H     0.30439   0.89184   0.17717   0.00000  Uiso   1.00
H1313  H     0.33827   0.86746   0.14926   0.00000  Uiso   1.00
H1314  H     0.11974   0.83609   0.83979   0.00000  Uiso   1.00
H1315  H     0.04769   0.84457   0.84659   0.00000  Uiso   1.00
H1316  H     0.05918   0.88671   0.82272   0.00000  Uiso   1.00
H1317  H     0.20994   0.54159   0.97496   0.00000  Uiso   1.00
H1318  H     0.07961   0.87520   0.86887   0.00000  Uiso   1.00
H1319  H     0.39950   0.64209   0.15564   0.00000  Uiso   1.00
H1320  H     0.38670   0.70416   0.14519   0.00000  Uiso   1.00
H1321  H     0.37997   0.71078   0.19639   0.00000  Uiso   1.00
H1322  H     0.34724   0.68448   0.16849   0.00000  Uiso   1.00
H1323  H     0.36180   0.90340   0.84295   0.00000  Uiso   1.00
H1324  H     0.37969   0.96627   0.84549   0.00000  Uiso   1.00
H1325  H     0.38892   0.96534   0.79420   0.00000  Uiso   1.00
H1326  H     0.41714   0.93975   0.82709   0.00000  Uiso   1.00
H1327  H     0.08411   0.54255   0.26040   0.00000  Uiso   1.00
H1328  H     0.02753   0.80128   0.02567   0.00000  Uiso   1.00
H1329  H     0.09294   0.50963   0.20166   0.00000  Uiso   1.00
H1330  H     0.12245   0.54515   0.18375   0.00000  Uiso   1.00
H1331  H     0.07440   0.55331   0.18929   0.00000  Uiso   1.00
H1332  H     0.38261   0.66158   0.84055   0.00000  Uiso   1.00
H1333  H     0.45498   0.65257   0.84506   0.00000  Uiso   1.00
H1334  H     0.44216   0.61081   0.82112   0.00000  Uiso   1.00
H1335  H     0.42330   0.62219   0.86801   0.00000  Uiso   1.00
H1336  H     0.09767   0.86126   0.15569   0.00000  Uiso   1.00
H1337  H     0.10564   0.79901   0.14270   0.00000  Uiso   1.00
H1338  H     0.11307   0.79010   0.19327   0.00000  Uiso   1.00
H1339  H     0.44927   0.72119   0.97295   0.00000  Uiso   1.00
H1340  H     0.14719   0.81474   0.16553   0.00000  Uiso   1.00
H1341  H     0.40487   0.63693   0.65779   0.00000  Uiso   1.00
H1342  H     0.34895   0.67373   0.65366   0.00000  Uiso   1.00
H1343  H     0.38942   0.69849   0.63983   0.00000  Uiso   1.00
H1344  H     0.36985   0.70507   0.68715   0.00000  Uiso   1.00
H1345  H     0.08660   0.87011   0.33995   0.00000  Uiso   1.00
H1346  H     0.12595   0.82916   0.36821   0.00000  Uiso   1.00
H1347  H     0.13438   0.80720   0.32217   0.00000  Uiso   1.00
H1348  H     0.09246   0.79880   0.34817   0.00000  Uiso   1.00
H1349  H     0.34669   0.89086   0.65716   0.00000  Uiso   1.00
H1350  H     0.46439   0.70341   0.52554   0.00000  Uiso   1.00
H1351  H     0.30565   0.84377   0.65241   0.00000  Uiso   1.00
H1352  H     0.27640   0.87740   0.67379   0.00000  Uiso   1.00
H1353  H     0.29785   0.84403   0.70416   0.00000  Uiso   1.00
H1354  H     0.20808   0.66525   0.24042   0.00000  Uiso   1.00
H1355  H     0.20017   0.67533   0.31082   0.00000  Uiso   1.00
H1356  H     0.24183   0.65209   0.29893   0.00000  Uiso   1.00
H1357  H     0.20320   0.62688   0.31704   0.00000  Uiso   1.00
H1358  H     0.09214   0.86528   0.65850   0.00000  Uiso   1.00
H1359  H     0.14859   0.82930   0.65178   0.00000  Uiso   1.00
H1360  H     0.10810   0.80436   0.63838   0.00000  Uiso   1.00
N1361  N     0.15047   0.90367   0.17862   0.00000  Uiso   1.00
N1362  N     0.35799   0.91273   0.18048   0.00000  Uiso   1.00
N1363  N     0.09967   0.84532   0.82135   0.00000  Uiso   1.00
N1364  N     0.39721   0.65837   0.17976   0.00000  Uiso   1.00
N1365  N     0.36438   0.91790   0.81751   0.00000  Uiso   1.00
N1366  N     0.10445   0.55098   0.24177   0.00000  Uiso   1.00
N1367  N     0.40227   0.65278   0.82143   0.00000  Uiso   1.00
N1368  N     0.09976   0.84421   0.17922   0.00000  Uiso   1.00
N1369  N     0.39833   0.65566   0.67886   0.00000  Uiso   1.00
N1370  N     0.09529   0.84990   0.32150   0.00000  Uiso   1.00
N1371  N     0.33243   0.88623   0.68246   0.00000  Uiso   1.00
N1372  N     0.34690   0.59823   0.82168   0.00000  Uiso   1.00
N1373  N     0.19942   0.64483   0.25874   0.00000  Uiso   1.00
N1374  N     0.09967   0.84615   0.67881   0.00000  Uiso   1.00
N1375  N     0.40582   0.64931   0.32145   0.00000  Uiso   1.00
N1376  N     0.20031   0.64440   0.74805   0.00000  Uiso   1.00
N1377  N     0.33709   0.89174   0.31960   0.00000  Uiso   1.00
N1378  N     0.38467   0.83116   0.31699   0.00000  Uiso   1.00
N1379  N     0.14541   0.69880   0.73953   0.00000  Uiso   1.00
N1380  N     0.34937   0.59573   0.32144   0.00000  Uiso   1.00
N1381  N     0.14859   0.90704   0.67945   0.00000  Uiso   1.00
N1382  N     0.14501   0.69974   0.25109   0.00000  Uiso   1.00
N1383  N     0.04968   0.60562   0.24989   0.00000  Uiso   1.00
N1384  N     0.39079   0.83644   0.68065   0.00000  Uiso   1.00
N1385  N     0.15076   0.90439   0.32123   0.00000  Uiso   1.00
N1386  N     0.34895   0.59512   0.67929   0.00000  Uiso   1.00
N1387  N     0.21326   0.94330   0.10191   0.00000  Uiso   1.00
N1388  N     0.29594   0.95079   0.89795   0.00000  Uiso   1.00
N1389  N     0.46399   0.69165   0.09990   0.00000  Uiso   1.00
N1390  N     0.05953   0.78201   0.89647   0.00000  Uiso   1.00
N1391  N     0.28587   0.55688   0.10207   0.00000  Uiso   1.00
N1392  N     0.20378   0.54844   0.89862   0.00000  Uiso   1.00
N1393  N     0.03225   0.80874   0.10092   0.00000  Uiso   1.00
N1394  N     0.41235   0.85760   0.81974   0.00000  Uiso   1.00
N1395  N     0.44233   0.71528   0.89730   0.00000  Uiso   1.00
N1396  N     0.46077   0.69531   0.60204   0.00000  Uiso   1.00
N1397  N     0.04860   0.70376   0.39876   0.00000  Uiso   1.00
N1398  N     0.21562   0.94064   0.59954   0.00000  Uiso   1.00
N1399  N     0.30839   0.53418   0.39713   0.00000  Uiso   1.00
N1400  N     0.04024   0.80433   0.60168   0.00000  Uiso   1.00
N1401  N     0.45226   0.79738   0.39803   0.00000  Uiso   1.00
N1402  N     0.27938   0.56034   0.60096   0.00000  Uiso   1.00
N1403  N     0.19115   0.96748   0.39667   0.00000  Uiso   1.00
N1404  N     0.34888   0.59683   0.17883   0.00000  Uiso   1.00
N1405  N     0.15559   0.89944   0.82149   0.00000  Uiso   1.00
N1406  N     0.41971   0.86649   0.18376   0.00000  Uiso   1.00
N1407  N     0.05086   0.60533   0.76115   0.00000  Uiso   1.00
N1408  N     0.10498   0.55034   0.75304   0.00000  Uiso   1.00
O1409  O     0.25000   0.50000   0.25000   0.00000  Uiso   1.00
O1410  O     0.25000   0.96964   0.66317   0.00000  Uiso   1.00
O1411  O     0.46964   0.75000   0.33683   0.00000  Uiso   1.00
O1412  O     0.03036   0.75000   0.66317   0.00000  Uiso   1.00
O1413  O    -0.00000   0.71964   0.83683   0.00000  Uiso   1.00
O1414  O     0.00000   0.78036   0.16317   0.00000  Uiso   1.00
O1415  O     0.28036   0.50000   0.83683   0.00000  Uiso   1.00
O1416  O     0.21964   0.50000   0.16317   0.00000  Uiso   1.00
O1417  O     0.00000   0.78036   0.83683   0.00000  Uiso   1.00
O1418  O    -0.00000   0.71964   0.16317   0.00000  Uiso   1.00
O1419  O     0.21964   0.50000   0.83683   0.00000  Uiso   1.00
O1420  O     0.25000   0.50000   0.75000   0.00000  Uiso   1.00
O1421  O     0.28036   0.50000   0.16317   0.00000  Uiso   1.00
O1422  O     0.20725   0.57307   0.27282   0.00000  Uiso   1.00
O1423  O     0.29274   0.92693   0.72718   0.00000  Uiso   1.00
O1424  O     0.42693   0.70725   0.27282   0.00000  Uiso   1.00
O1425  O     0.07307   0.79275   0.72718   0.00000  Uiso   1.00
O1426  O     0.29274   0.92693   0.27282   0.00000  Uiso   1.00
O1427  O     0.20725   0.57307   0.72718   0.00000  Uiso   1.00
O1428  O     0.07307   0.79275   0.27282   0.00000  Uiso   1.00
O1429  O     0.42693   0.70725   0.72718   0.00000  Uiso   1.00
O1430  O     0.20725   0.92693   0.72718   0.00000  Uiso   1.00
O1431  O    -0.00000   0.75000   0.25000   0.00000  Uiso   1.00
O1432  O     0.29274   0.57307   0.27282   0.00000  Uiso   1.00
O1433  O     0.42693   0.79274   0.72718   0.00000  Uiso   1.00
O1434  O     0.07307   0.70726   0.27282   0.00000  Uiso   1.00
O1435  O     0.29274   0.57307   0.72718   0.00000  Uiso   1.00
O1436  O     0.20725   0.92693   0.27282   0.00000  Uiso   1.00
O1437  O     0.07307   0.70726   0.72718   0.00000  Uiso   1.00
O1438  O     0.42693   0.79274   0.27282   0.00000  Uiso   1.00
O1439  O     0.45725   0.82307   0.77282   0.00000  Uiso   1.00
O1440  O     0.04274   0.67693   0.22718   0.00000  Uiso   1.00
O1441  O     0.17693   0.95726   0.77282   0.00000  Uiso   1.00
O1442  O     0.00000   0.75000   0.75000   0.00000  Uiso   1.00
O1443  O     0.32307   0.54274   0.22718   0.00000  Uiso   1.00
O1444  O     0.04274   0.67693   0.77282   0.00000  Uiso   1.00
O1445  O     0.45725   0.82307   0.22718   0.00000  Uiso   1.00
O1446  O     0.32307   0.54274   0.77282   0.00000  Uiso   1.00
O1447  O     0.17693   0.95726   0.22718   0.00000  Uiso   1.00
O1448  O     0.45725   0.67693   0.22718   0.00000  Uiso   1.00
O1449  O     0.04274   0.82307   0.77282   0.00000  Uiso   1.00
O1450  O     0.17693   0.54274   0.22718   0.00000  Uiso   1.00
O1451  O     0.32307   0.95726   0.77282   0.00000  Uiso   1.00
O1452  O     0.04274   0.82307   0.22718   0.00000  Uiso   1.00
O1453  O     0.25000   0.96964   0.33683   0.00000  Uiso   1.00
O1454  O     0.45725   0.67693   0.77282   0.00000  Uiso   1.00
O1455  O     0.32307   0.95726   0.22718   0.00000  Uiso   1.00
O1456  O     0.17693   0.54274   0.77282   0.00000  Uiso   1.00
O1457  O     0.25000   0.53036   0.66317   0.00000  Uiso   1.00
O1458  O     0.03036   0.75000   0.33683   0.00000  Uiso   1.00
O1459  O     0.46964   0.75000   0.66317   0.00000  Uiso   1.00
O1460  O     0.25000   0.53036   0.33683   0.00000  Uiso   1.00
Zn1461 Zn    0.20660   0.50000   0.21760   0.00000  Uiso   1.00
Zn1462 Zn    0.04340   0.75000   0.28240   0.00000  Uiso   1.00
Zn1463 Zn    0.25000   0.95660   0.71760   0.00000  Uiso   1.00
Zn1464 Zn    0.25000   0.54340   0.28240   0.00000  Uiso   1.00
Zn1465 Zn    0.04340   0.75000   0.71760   0.00000  Uiso   1.00
Zn1466 Zn    0.45660   0.75000   0.28240   0.00000  Uiso   1.00
Zn1467 Zn    0.25000   0.54340   0.71760   0.00000  Uiso   1.00
Zn1468 Zn    0.25000   0.95660   0.28240   0.00000  Uiso   1.00
Zn1469 Zn    0.29340   0.50000   0.78240   0.00000  Uiso   1.00
Zn1470 Zn   -0.00000   0.70660   0.21760   0.00000  Uiso   1.00
Zn1471 Zn    0.00000   0.79340   0.78240   0.00000  Uiso   1.00
Zn1472 Zn    0.29340   0.50000   0.21760   0.00000  Uiso   1.00
Zn1473 Zn    0.20660   0.50000   0.78240   0.00000  Uiso   1.00
Zn1474 Zn    0.00000   0.79340   0.21760   0.00000  Uiso   1.00
Zn1475 Zn    0.00000   0.70660   0.78240   0.00000  Uiso   1.00
Zn1476 Zn    0.45660   0.75000   0.71760   0.00000  Uiso   1.00
C1477  C     0.73227   0.97202   0.04139   0.00000  Uiso   1.00
C1478  C     0.52383   0.72781   0.45902   0.00000  Uiso   1.00
C1479  C     0.84856   0.90208   0.74993   0.00000  Uiso   1.00
C1480  C     0.90162   0.65236   0.25041   0.00000  Uiso   1.00
C1481  C     0.59874   0.84766   0.75013   0.00000  Uiso   1.00
C1482  C     0.84795   0.90192   0.25003   0.00000  Uiso   1.00
C1483  C     0.65200   0.59799   0.75027   0.00000  Uiso   1.00
C1484  C     0.59838   0.65179   0.75017   0.00000  Uiso   1.00
C1485  C     0.90169   0.84826   0.25007   0.00000  Uiso   1.00
C1486  C     0.65169   0.90228   0.75039   0.00000  Uiso   1.00
C1487  C     0.84866   0.59774   0.25016   0.00000  Uiso   1.00
C1488  C     0.90192   0.84802   0.74999   0.00000  Uiso   1.00
C1489  C     0.73570   0.97007   0.54079   0.00000  Uiso   1.00
C1490  C     0.59801   0.65202   0.25027   0.00000  Uiso   1.00
C1491  C     0.84837   0.59766   0.75039   0.00000  Uiso   1.00
C1492  C     0.65131   0.90229   0.24999   0.00000  Uiso   1.00
C1493  C     0.74998   0.99988   0.10244   0.00000  Uiso   1.00
C1494  C     0.75008   0.99982   0.89773   0.00000  Uiso   1.00
C1495  C     0.99925   0.74985   0.10210   0.00000  Uiso   1.00
C1496  C     0.50042   0.74968   0.89685   0.00000  Uiso   1.00
C1497  C     0.99995   0.75011   0.60238   0.00000  Uiso   1.00
C1498  C     0.50001   0.75015   0.39777   0.00000  Uiso   1.00
C1499  C     0.74862   0.50017   0.60203   0.00000  Uiso   1.00
C1500  C     0.77905   0.51603   0.45751   0.00000  Uiso   1.00
C1501  C     0.75010   0.50009   0.39684   0.00000  Uiso   1.00
C1502  C     0.62848   0.93257   0.16238   0.00000  Uiso   1.00
C1503  C     0.86528   0.56780   0.83976   0.00000  Uiso   1.00
C1504  C     0.53405   0.60550   0.28842   0.00000  Uiso   1.00
C1505  C     0.89397   0.82892   0.84086   0.00000  Uiso   1.00
C1506  C     0.87168   0.56887   0.16201   0.00000  Uiso   1.00
C1507  C     0.63798   0.92933   0.84132   0.00000  Uiso   1.00
C1508  C     0.94973   0.89228   0.18273   0.00000  Uiso   1.00
C1509  C     0.53978   0.60087   0.80125   0.00000  Uiso   1.00
C1510  C     0.60150   0.53475   0.71470   0.00000  Uiso   1.00
C1511  C     0.51977   0.77644   0.54130   0.00000  Uiso   1.00
C1512  C     0.82922   0.89476   0.15896   0.00000  Uiso   1.00
C1513  C     0.57014   0.86411   0.84067   0.00000  Uiso   1.00
C1514  C     0.87665   0.69110   0.17219   0.00000  Uiso   1.00
C1515  C     0.88885   0.94879   0.82116   0.00000  Uiso   1.00
C1516  C     0.59827   0.53932   0.20212   0.00000  Uiso   1.00
C1517  C     0.93209   0.63340   0.83962   0.00000  Uiso   1.00
C1518  C     0.61746   0.81029   0.16982   0.00000  Uiso   1.00
C1519  C     0.87541   0.68462   0.66425   0.00000  Uiso   1.00
C1520  C     0.61314   0.81981   0.34079   0.00000  Uiso   1.00
C1521  C     0.80169   0.86151   0.67812   0.00000  Uiso   1.00
C1522  C     0.97563   0.77261   0.45870   0.00000  Uiso   1.00
C1523  C     0.71161   0.65005   0.29839   0.00000  Uiso   1.00
C1524  C     0.62252   0.81786   0.66275   0.00000  Uiso   1.00
C1525  C     0.88827   0.67912   0.34148   0.00000  Uiso   1.00
C1526  C     0.71659   0.64529   0.78628   0.00000  Uiso   1.00
C1527  C     0.85542   0.92006   0.34133   0.00000  Uiso   1.00
C1528  C     0.85999   0.80034   0.31948   0.00000  Uiso   1.00
C1529  C     0.65077   0.70945   0.69942   0.00000  Uiso   1.00
C1530  C     0.81968   0.61478   0.34022   0.00000  Uiso   1.00
C1531  C     0.62931   0.94037   0.67117   0.00000  Uiso   1.00
C1532  C     0.64731   0.71484   0.21242   0.00000  Uiso   1.00
C1533  C     0.76369   0.52968   0.54098   0.00000  Uiso   1.00
C1534  C     0.92012   0.85256   0.65839   0.00000  Uiso   1.00
C1535  C     0.68028   0.88552   0.34054   0.00000  Uiso   1.00
C1536  C     0.86780   0.56213   0.66867   0.00000  Uiso   1.00
C1537  C     0.73682   0.91541   0.11742   0.00000  Uiso   1.00
C1538  C     0.77730   0.91837   0.88456   0.00000  Uiso   1.00
C1539  C     0.98245   0.65706   0.10235   0.00000  Uiso   1.00
C1540  C     0.58652   0.75660   0.88252   0.00000  Uiso   1.00
C1541  C     0.76151   0.58503   0.11551   0.00000  Uiso   1.00
C1542  C     0.72177   0.58126   0.88537   0.00000  Uiso   1.00
C1543  C     0.50998   0.84103   0.10264   0.00000  Uiso   1.00
C1544  C     0.72110   0.98391   0.45733   0.00000  Uiso   1.00
C1545  C     0.91508   0.73968   0.88197   0.00000  Uiso   1.00
C1546  C     0.98364   0.66574   0.61502   0.00000  Uiso   1.00
C1547  C     0.53219   0.67010   0.38559   0.00000  Uiso   1.00
C1548  C     0.73576   0.90696   0.60074   0.00000  Uiso   1.00
C1549  C     0.83538   0.50974   0.38142   0.00000  Uiso   1.00
C1550  C     0.51913   0.83113   0.62267   0.00000  Uiso   1.00
C1551  C     0.96986   0.83056   0.38516   0.00000  Uiso   1.00
C1552  C     0.75591   0.59176   0.60355   0.00000  Uiso   1.00
C1553  C     0.66395   0.99298   0.38334   0.00000  Uiso   1.00
C1554  C     0.73189   0.97180   0.08198   0.00000  Uiso   1.00
C1555  C     0.77317   0.97573   0.91809   0.00000  Uiso   1.00
C1556  C     0.98406   0.72003   0.08138   0.00000  Uiso   1.00
C1557  C     0.77323   0.97603   0.95867   0.00000  Uiso   1.00
C1558  C     0.52994   0.76559   0.91685   0.00000  Uiso   1.00
C1559  C     0.76817   0.52789   0.08202   0.00000  Uiso   1.00
C1560  C     0.72710   0.52372   0.91839   0.00000  Uiso   1.00
C1561  C     0.51544   0.77899   0.08138   0.00000  Uiso   1.00
C1562  C     0.97168   0.73277   0.91718   0.00000  Uiso   1.00
C1563  C     0.97994   0.72333   0.58198   0.00000  Uiso   1.00
C1564  C     0.52414   0.72736   0.41847   0.00000  Uiso   1.00
C1565  C     0.73404   0.97014   0.58111   0.00000  Uiso   1.00
C1566  C     0.77914   0.51666   0.41710   0.00000  Uiso   1.00
C1567  C     0.51995   0.77688   0.58185   0.00000  Uiso   1.00
C1568  C     0.98632   0.71943   0.04108   0.00000  Uiso   1.00
C1569  C     0.97583   0.77312   0.41813   0.00000  Uiso   1.00
C1570  C     0.76341   0.53014   0.58138   0.00000  Uiso   1.00
C1571  C     0.72094   0.98373   0.41694   0.00000  Uiso   1.00
C1572  C     0.75052   0.99958   0.02129   0.00000  Uiso   1.00
C1573  C     0.75045   0.99965   0.97894   0.00000  Uiso   1.00
C1574  C     0.50167   0.74857   0.02060   0.00000  Uiso   1.00
C1575  C     0.50152   0.74860   0.97789   0.00000  Uiso   1.00
C1576  C     0.99954   0.75025   0.52126   0.00000  Uiso   1.00
C1577  C     0.99958   0.75015   0.47896   0.00000  Uiso   1.00
C1578  C     0.75005   0.99976   0.52050   0.00000  Uiso   1.00
C1579  C     0.53036   0.76468   0.95727   0.00000  Uiso   1.00
C1580  C     0.75014   0.99979   0.47784   0.00000  Uiso   1.00
C1581  C     0.75003   0.50002   0.35486   0.00000  Uiso   1.00
C1582  C     0.74951   0.50002   0.64473   0.00000  Uiso   1.00
C1583  C     0.50001   0.75000   0.35522   0.00000  Uiso   1.00
C1584  C     0.99999   0.75004   0.64484   0.00000  Uiso   1.00
C1585  C     0.50010   0.74995   0.85486   0.00000  Uiso   1.00
C1586  C     0.99962   0.74998   0.14475   0.00000  Uiso   1.00
C1587  C     0.75002   0.50000   0.85520   0.00000  Uiso   1.00
C1588  C     0.74998   0.50000   0.14486   0.00000  Uiso   1.00
C1589  C     0.67984   0.57005   0.25002   0.00000  Uiso   1.00
C1590  C     0.76841   0.52735   0.04145   0.00000  Uiso   1.00
C1591  C     0.82017   0.92999   0.74999   0.00000  Uiso   1.00
C1592  C     0.93009   0.67996   0.25031   0.00000  Uiso   1.00
C1593  C     0.57018   0.81991   0.75004   0.00000  Uiso   1.00
C1594  C     0.82001   0.93001   0.25002   0.00000  Uiso   1.00
C1595  C     0.67995   0.56992   0.74998   0.00000  Uiso   1.00
C1596  C     0.56986   0.82010   0.25037   0.00000  Uiso   1.00
C1597  C     0.92981   0.68009   0.75003   0.00000  Uiso   1.00
C1598  C     0.68012   0.92993   0.75034   0.00000  Uiso   1.00
C1599  C     0.82017   0.56991   0.25006   0.00000  Uiso   1.00
C1600  C     0.92993   0.81996   0.75003   0.00000  Uiso   1.00
C1601  C     0.72744   0.52328   0.95895   0.00000  Uiso   1.00
C1602  C     0.57005   0.68008   0.24999   0.00000  Uiso   1.00
C1603  C     0.81989   0.57006   0.75035   0.00000  Uiso   1.00
C1604  C     0.67986   0.93005   0.24996   0.00000  Uiso   1.00
C1605  C     0.57016   0.67995   0.75005   0.00000  Uiso   1.00
C1606  C     0.92990   0.82011   0.25005   0.00000  Uiso   1.00
C1607  C     0.63729   0.88921   0.21440   0.00000  Uiso   1.00
C1608  C     0.86186   0.61103   0.78595   0.00000  Uiso   1.00
C1609  C     0.58749   0.61520   0.24849   0.00000  Uiso   1.00
C1610  C     0.89486   0.86760   0.78433   0.00000  Uiso   1.00
C1611  C     0.86213   0.61128   0.21458   0.00000  Uiso   1.00
C1612  C     0.51611   0.77819   0.04099   0.00000  Uiso   1.00
C1613  C     0.63934   0.88783   0.78592   0.00000  Uiso   1.00
C1614  C     0.89654   0.87018   0.21674   0.00000  Uiso   1.00
C1615  C     0.58827   0.61500   0.75579   0.00000  Uiso   1.00
C1616  C     0.61502   0.58788   0.75331   0.00000  Uiso   1.00
C1617  C     0.86768   0.89498   0.21583   0.00000  Uiso   1.00
C1618  C     0.61218   0.86084   0.78581   0.00000  Uiso   1.00
C1619  C     0.88721   0.64026   0.21484   0.00000  Uiso   1.00
C1620  C     0.86985   0.89629   0.78363   0.00000  Uiso   1.00
C1621  C     0.61450   0.58829   0.24587   0.00000  Uiso   1.00
C1622  C     0.88889   0.63813   0.78581   0.00000  Uiso   1.00
C1623  C     0.97226   0.73286   0.95758   0.00000  Uiso   1.00
C1624  C     0.61181   0.86057   0.21462   0.00000  Uiso   1.00
C1625  C     0.88638   0.64008   0.71458   0.00000  Uiso   1.00
C1626  C     0.61109   0.86184   0.28585   0.00000  Uiso   1.00
C1627  C     0.85423   0.88088   0.71626   0.00000  Uiso   1.00
C1628  C     0.66186   0.63511   0.25465   0.00000  Uiso   1.00
C1629  C     0.61252   0.86092   0.71455   0.00000  Uiso   1.00
C1630  C     0.88943   0.63779   0.28593   0.00000  Uiso   1.00
C1631  C     0.66248   0.63477   0.74754   0.00000  Uiso   1.00
C1632  C     0.85487   0.88212   0.28426   0.00000  Uiso   1.00
C1633  C     0.87984   0.85341   0.28347   0.00000  Uiso   1.00
C1634  C     0.97964   0.72389   0.54141   0.00000  Uiso   1.00
C1635  C     0.63543   0.66163   0.74488   0.00000  Uiso   1.00
C1636  C     0.86215   0.61092   0.28584   0.00000  Uiso   1.00
C1637  C     0.63775   0.88976   0.71476   0.00000  Uiso   1.00
C1638  C     0.63504   0.66220   0.25228   0.00000  Uiso   1.00
C1639  C     0.88231   0.85524   0.71568   0.00000  Uiso   1.00
C1640  C     0.63813   0.88893   0.28568   0.00000  Uiso   1.00
C1641  C     0.86119   0.61122   0.71473   0.00000  Uiso   1.00
C1642  C     0.59833   0.84771   0.25033   0.00000  Uiso   1.00
C1643  C     0.90123   0.65236   0.75013   0.00000  Uiso   1.00
C1644  C     0.65163   0.59822   0.25010   0.00000  Uiso   1.00
H1645  H     0.71846   0.95060   0.02545   0.00000  Uiso   1.00
H1646  H     0.54225   0.71042   0.47507   0.00000  Uiso   1.00
H1647  H     0.62882   0.79701   0.68496   0.00000  Uiso   1.00
H1648  H     0.91492   0.62888   0.33942   0.00000  Uiso   1.00
H1649  H     0.87591   0.66936   0.36896   0.00000  Uiso   1.00
H1650  H     0.86673   0.69197   0.32341   0.00000  Uiso   1.00
H1651  H     0.90905   0.70005   0.34883   0.00000  Uiso   1.00
H1652  H     0.70772   0.66644   0.73142   0.00000  Uiso   1.00
H1653  H     0.70380   0.66687   0.80416   0.00000  Uiso   1.00
H1654  H     0.74625   0.65110   0.78371   0.00000  Uiso   1.00
H1655  H     0.71327   0.61864   0.80100   0.00000  Uiso   1.00
H1656  H     0.82876   0.87036   0.33675   0.00000  Uiso   1.00
H1657  H     0.72519   0.94665   0.52529   0.00000  Uiso   1.00
H1658  H     0.88279   0.91082   0.35088   0.00000  Uiso   1.00
H1659  H     0.83904   0.92684   0.36739   0.00000  Uiso   1.00
H1660  H     0.85849   0.94492   0.32331   0.00000  Uiso   1.00
H1661  H     0.88682   0.84518   0.34277   0.00000  Uiso   1.00
H1662  H     0.86855   0.78244   0.34374   0.00000  Uiso   1.00
H1663  H     0.86044   0.78421   0.29225   0.00000  Uiso   1.00
H1664  H     0.83163   0.80944   0.32483   0.00000  Uiso   1.00
H1665  H     0.66613   0.70768   0.75747   0.00000  Uiso   1.00
H1666  H     0.65621   0.73909   0.69797   0.00000  Uiso   1.00
H1667  H     0.62615   0.70328   0.68180   0.00000  Uiso   1.00
H1668  H     0.80203   0.52772   0.47293   0.00000  Uiso   1.00
H1669  H     0.67428   0.69502   0.68645   0.00000  Uiso   1.00
H1670  H     0.86935   0.58696   0.34022   0.00000  Uiso   1.00
H1671  H     0.79702   0.59541   0.34589   0.00000  Uiso   1.00
H1672  H     0.80913   0.63740   0.32204   0.00000  Uiso   1.00
H1673  H     0.82884   0.62593   0.36853   0.00000  Uiso   1.00
H1674  H     0.65062   0.89040   0.65558   0.00000  Uiso   1.00
H1675  H     0.63885   0.95186   0.64318   0.00000  Uiso   1.00
H1676  H     0.63471   0.96072   0.69421   0.00000  Uiso   1.00
H1677  H     0.59950   0.93508   0.66906   0.00000  Uiso   1.00
H1678  H     0.66681   0.70713   0.26821   0.00000  Uiso   1.00
H1679  H     0.53508   0.79678   0.52531   0.00000  Uiso   1.00
H1680  H     0.65509   0.74398   0.21425   0.00000  Uiso   1.00
H1681  H     0.62055   0.71270   0.19744   0.00000  Uiso   1.00
H1682  H     0.66835   0.70038   0.19519   0.00000  Uiso   1.00
H1683  H     0.86873   0.82911   0.66382   0.00000  Uiso   1.00
H1684  H     0.92538   0.83564   0.63236   0.00000  Uiso   1.00
H1685  H     0.94552   0.85390   0.67595   0.00000  Uiso   1.00
H1686  H     0.91264   0.88036   0.64878   0.00000  Uiso   1.00
H1687  H     0.63076   0.91371   0.33966   0.00000  Uiso   1.00
H1688  H     0.70282   0.90499   0.34639   0.00000  Uiso   1.00
H1689  H     0.69111   0.86286   0.32262   0.00000  Uiso   1.00
H1690  H     0.95721   0.79018   0.47449   0.00000  Uiso   1.00
H1691  H     0.67085   0.87452   0.36879   0.00000  Uiso   1.00
H1692  H     0.84569   0.61256   0.65624   0.00000  Uiso   1.00
H1693  H     0.85505   0.55031   0.64229   0.00000  Uiso   1.00
H1694  H     0.86593   0.54170   0.69232   0.00000  Uiso   1.00
H1695  H     0.89697   0.56812   0.66250   0.00000  Uiso   1.00
H1696  H     0.69172   0.93235   0.08647   0.00000  Uiso   1.00
H1697  H     0.72015   0.89447   0.13245   0.00000  Uiso   1.00
H1698  H     0.75613   0.92712   0.13884   0.00000  Uiso   1.00
H1699  H     0.75230   0.90215   0.09364   0.00000  Uiso   1.00
H1700  H     0.81981   0.94476   0.91242   0.00000  Uiso   1.00
H1701  H     0.77425   0.55320   0.52571   0.00000  Uiso   1.00
H1702  H     0.76710   0.90235   0.90969   0.00000  Uiso   1.00
H1703  H     0.79650   0.90133   0.86770   0.00000  Uiso   1.00
H1704  H     0.75404   0.92546   0.86539   0.00000  Uiso   1.00
H1705  H     0.94986   0.69875   0.12454   0.00000  Uiso   1.00
H1706  H     0.96400   0.63662   0.11580   0.00000  Uiso   1.00
H1707  H     0.50744   0.65959   0.12042   0.00000  Uiso   1.00
H1708  H     0.98998   0.64728   0.07297   0.00000  Uiso   1.00
H1709  H     0.57134   0.80356   0.91103   0.00000  Uiso   1.00
H1710  H     0.60760   0.77144   0.86560   0.00000  Uiso   1.00
H1711  H     0.57381   0.73594   0.86324   0.00000  Uiso   1.00
H1712  H     0.69796   0.97236   0.47257   0.00000  Uiso   1.00
H1713  H     0.59993   0.74277   0.90735   0.00000  Uiso   1.00
H1714  H     0.80796   0.56758   0.08737   0.00000  Uiso   1.00
H1715  H     0.77725   0.60567   0.13209   0.00000  Uiso   1.00
H1716  H     0.74025   0.57356   0.13497   0.00000  Uiso   1.00
H1717  H     0.74820   0.59857   0.09043   0.00000  Uiso   1.00
H1718  H     0.67998   0.55400   0.91338   0.00000  Uiso   1.00
H1719  H     0.73249   0.59695   0.91050   0.00000  Uiso   1.00
H1720  H     0.70190   0.59840   0.86947   0.00000  Uiso   1.00
H1721  H     0.74455   0.57471   0.86538   0.00000  Uiso   1.00
H1722  H     0.55809   0.81447   0.09070   0.00000  Uiso   1.00
H1723  H     0.65739   0.88429   0.15837   0.00000  Uiso   1.00
H1724  H     0.52357   0.86162   0.12132   0.00000  Uiso   1.00
H1725  H     0.98279   0.83457   0.11517   0.00000  Uiso   1.00
H1726  H     0.50633   0.85268   0.07315   0.00000  Uiso   1.00
H1727  H     0.93076   0.69401   0.91254   0.00000  Uiso   1.00
H1728  H     0.89329   0.72377   0.86730   0.00000  Uiso   1.00
H1729  H     0.92736   0.75824   0.86025   0.00000  Uiso   1.00
H1730  H     0.90264   0.75576   0.90578   0.00000  Uiso   1.00
H1731  H     0.93795   0.68599   0.58751   0.00000  Uiso   1.00
H1732  H     0.96697   0.64584   0.63157   0.00000  Uiso   1.00
H1733  H     0.50568   0.67588   0.63437   0.00000  Uiso   1.00
H1734  H     0.60248   0.92175   0.15052   0.00000  Uiso   1.00
H1735  H     0.99593   0.65168   0.58971   0.00000  Uiso   1.00
H1736  H     0.57268   0.69938   0.41352   0.00000  Uiso   1.00
H1737  H     0.52234   0.65393   0.41077   0.00000  Uiso   1.00
H1738  H     0.55283   0.65394   0.36967   0.00000  Uiso   1.00
H1739  H     0.50903   0.67551   0.36565   0.00000  Uiso   1.00
H1740  H     0.70165   0.94663   0.62458   0.00000  Uiso   1.00
H1741  H     0.71947   0.88589   0.61611   0.00000  Uiso   1.00
H1742  H     0.76202   0.91099   0.61626   0.00000  Uiso   1.00
H1743  H     0.74134   0.89713   0.57089   0.00000  Uiso   1.00
H1744  H     0.82020   0.55524   0.41250   0.00000  Uiso   1.00
H1745  H     0.64372   0.94609   0.13859   0.00000  Uiso   1.00
H1746  H     0.85717   0.52562   0.36675   0.00000  Uiso   1.00
H1747  H     0.82283   0.99142   0.35962   0.00000  Uiso   1.00
H1748  H     0.84790   0.99339   0.40501   0.00000  Uiso   1.00
H1749  H     0.56167   0.81540   0.58621   0.00000  Uiso   1.00
H1750  H     0.52443   0.85869   0.61071   0.00000  Uiso   1.00
H1751  H     0.52723   0.83081   0.65368   0.00000  Uiso   1.00
H1752  H     0.98936   0.82564   0.62075   0.00000  Uiso   1.00
H1753  H     0.92811   0.80243   0.41235   0.00000  Uiso   1.00
H1754  H     0.97937   0.84665   0.41055   0.00000  Uiso   1.00
H1755  H     0.95018   0.84714   0.36836   0.00000  Uiso   1.00
H1756  H     0.79079   0.95758   0.97447   0.00000  Uiso   1.00
H1757  H     0.62198   0.95326   0.18467   0.00000  Uiso   1.00
H1758  H     0.99345   0.82447   0.36609   0.00000  Uiso   1.00
H1759  H     0.80484   0.56714   0.59040   0.00000  Uiso   1.00
H1760  H     0.76920   0.61279   0.62194   0.00000  Uiso   1.00
H1761  H     0.72935   0.58429   0.61695   0.00000  Uiso   1.00
H1762  H     0.75103   0.60337   0.57425   0.00000  Uiso   1.00
H1763  H     0.67955   0.94572   0.41106   0.00000  Uiso   1.00
H1764  H     0.64272   0.97829   0.36645   0.00000  Uiso   1.00
H1765  H     0.67640   0.51390   0.36419   0.00000  Uiso   1.00
H1766  H     0.65078   0.50650   0.40849   0.00000  Uiso   1.00
H1767  H     0.83850   0.61799   0.84084   0.00000  Uiso   1.00
H1768  H     0.87872   0.57661   0.86704   0.00000  Uiso   1.00
H1769  H     0.88608   0.55562   0.82027   0.00000  Uiso   1.00
H1770  H     0.84484   0.54657   0.84721   0.00000  Uiso   1.00
H1771  H     0.54198   0.58325   0.23392   0.00000  Uiso   1.00
H1772  H     0.54717   0.58430   0.30657   0.00000  Uiso   1.00
H1773  H     0.50435   0.59960   0.28650   0.00000  Uiso   1.00
H1774  H     0.53758   0.63244   0.30244   0.00000  Uiso   1.00
H1775  H     0.92040   0.87879   0.83730   0.00000  Uiso   1.00
H1776  H     0.97526   0.69616   0.02578   0.00000  Uiso   1.00
H1777  H     0.86634   0.83781   0.84995   0.00000  Uiso   1.00
H1778  H     0.90998   0.82210   0.86719   0.00000  Uiso   1.00
H1779  H     0.89145   0.80418   0.82258   0.00000  Uiso   1.00
H1780  H     0.84110   0.61618   0.15889   0.00000  Uiso   1.00
H1781  H     0.89769   0.58059   0.15120   0.00000  Uiso   1.00
H1782  H     0.85713   0.55594   0.13735   0.00000  Uiso   1.00
H1783  H     0.87809   0.54749   0.18366   0.00000  Uiso   1.00
H1784  H     0.66451   0.87904   0.83960   0.00000  Uiso   1.00
H1785  H     0.62551   0.91969   0.86879   0.00000  Uiso   1.00
H1786  H     0.61651   0.94212   0.82310   0.00000  Uiso   1.00
H1787  H     0.55372   0.77593   0.97240   0.00000  Uiso   1.00
H1788  H     0.65875   0.95027   0.84866   0.00000  Uiso   1.00
H1789  H     0.90624   0.86428   0.15761   0.00000  Uiso   1.00
H1790  H     0.93957   0.92052   0.17994   0.00000  Uiso   1.00
H1791  H     0.96751   0.88636   0.15755   0.00000  Uiso   1.00
H1792  H     0.96641   0.89035   0.20956   0.00000  Uiso   1.00
H1793  H     0.54172   0.58455   0.74356   0.00000  Uiso   1.00
H1794  H     0.55192   0.57606   0.81404   0.00000  Uiso   1.00
H1795  H     0.50962   0.59842   0.80270   0.00000  Uiso   1.00
H1796  H     0.54833   0.62460   0.81903   0.00000  Uiso   1.00
H1797  H     0.58370   0.54323   0.77097   0.00000  Uiso   1.00
H1798  H     0.78222   0.54881   0.02557   0.00000  Uiso   1.00
H1799  H     0.59344   0.50574   0.71723   0.00000  Uiso   1.00
H1800  H     0.62789   0.53641   0.69896   0.00000  Uiso   1.00
H1801  H     0.58018   0.54919   0.69782   0.00000  Uiso   1.00
H1802  H     0.87936   0.92089   0.16313   0.00000  Uiso   1.00
H1803  H     0.82225   0.91122   0.13302   0.00000  Uiso   1.00
H1804  H     0.80439   0.89184   0.17717   0.00000  Uiso   1.00
H1805  H     0.83827   0.86746   0.14926   0.00000  Uiso   1.00
H1806  H     0.61974   0.83609   0.83979   0.00000  Uiso   1.00
H1807  H     0.54769   0.84457   0.84659   0.00000  Uiso   1.00
H1808  H     0.55918   0.88671   0.82272   0.00000  Uiso   1.00
H1809  H     0.70994   0.54159   0.97496   0.00000  Uiso   1.00
H1810  H     0.57961   0.87520   0.86887   0.00000  Uiso   1.00
H1811  H     0.89950   0.64209   0.15564   0.00000  Uiso   1.00
H1812  H     0.88670   0.70416   0.14519   0.00000  Uiso   1.00
H1813  H     0.87997   0.71078   0.19639   0.00000  Uiso   1.00
H1814  H     0.84724   0.68448   0.16849   0.00000  Uiso   1.00
H1815  H     0.86180   0.90340   0.84295   0.00000  Uiso   1.00
H1816  H     0.87969   0.96627   0.84549   0.00000  Uiso   1.00
H1817  H     0.88892   0.96534   0.79420   0.00000  Uiso   1.00
H1818  H     0.91714   0.93975   0.82709   0.00000  Uiso   1.00
H1819  H     0.58411   0.54255   0.26040   0.00000  Uiso   1.00
H1820  H     0.52753   0.80128   0.02567   0.00000  Uiso   1.00
H1821  H     0.59294   0.50963   0.20166   0.00000  Uiso   1.00
H1822  H     0.62245   0.54515   0.18375   0.00000  Uiso   1.00
H1823  H     0.57440   0.55331   0.18929   0.00000  Uiso   1.00
H1824  H     0.88261   0.66158   0.84055   0.00000  Uiso   1.00
H1825  H     0.95498   0.65257   0.84506   0.00000  Uiso   1.00
H1826  H     0.94216   0.61081   0.82112   0.00000  Uiso   1.00
H1827  H     0.92330   0.62219   0.86801   0.00000  Uiso   1.00
H1828  H     0.59767   0.86126   0.15569   0.00000  Uiso   1.00
H1829  H     0.60564   0.79901   0.14270   0.00000  Uiso   1.00
H1830  H     0.61307   0.79010   0.19327   0.00000  Uiso   1.00
H1831  H     0.94927   0.72119   0.97295   0.00000  Uiso   1.00
H1832  H     0.64719   0.81474   0.16553   0.00000  Uiso   1.00
H1833  H     0.90487   0.63693   0.65779   0.00000  Uiso   1.00
H1834  H     0.84895   0.67373   0.65366   0.00000  Uiso   1.00
H1835  H     0.88942   0.69849   0.63983   0.00000  Uiso   1.00
H1836  H     0.86985   0.70507   0.68715   0.00000  Uiso   1.00
H1837  H     0.58660   0.87011   0.33995   0.00000  Uiso   1.00
H1838  H     0.62595   0.82916   0.36821   0.00000  Uiso   1.00
H1839  H     0.63438   0.80720   0.32217   0.00000  Uiso   1.00
H1840  H     0.59246   0.79880   0.34817   0.00000  Uiso   1.00
H1841  H     0.84669   0.89086   0.65716   0.00000  Uiso   1.00
H1842  H     0.96439   0.70341   0.52554   0.00000  Uiso   1.00
H1843  H     0.80565   0.84377   0.65241   0.00000  Uiso   1.00
H1844  H     0.77640   0.87740   0.67379   0.00000  Uiso   1.00
H1845  H     0.79785   0.84403   0.70416   0.00000  Uiso   1.00
H1846  H     0.70808   0.66525   0.24042   0.00000  Uiso   1.00
H1847  H     0.70017   0.67533   0.31082   0.00000  Uiso   1.00
H1848  H     0.74183   0.65209   0.29893   0.00000  Uiso   1.00
H1849  H     0.70320   0.62688   0.31704   0.00000  Uiso   1.00
H1850  H     0.59214   0.86528   0.65850   0.00000  Uiso   1.00
H1851  H     0.64859   0.82930   0.65178   0.00000  Uiso   1.00
H1852  H     0.60810   0.80436   0.63838   0.00000  Uiso   1.00
N1853  N     0.65047   0.90367   0.17862   0.00000  Uiso   1.00
N1854  N     0.85799   0.91273   0.18048   0.00000  Uiso   1.00
N1855  N     0.59967   0.84532   0.82135   0.00000  Uiso   1.00
N1856  N     0.89721   0.65837   0.17976   0.00000  Uiso   1.00
N1857  N     0.86438   0.91790   0.81751   0.00000  Uiso   1.00
N1858  N     0.60445   0.55098   0.24177   0.00000  Uiso   1.00
N1859  N     0.90227   0.65278   0.82143   0.00000  Uiso   1.00
N1860  N     0.59976   0.84421   0.17922   0.00000  Uiso   1.00
N1861  N     0.89833   0.65566   0.67886   0.00000  Uiso   1.00
N1862  N     0.59529   0.84990   0.32150   0.00000  Uiso   1.00
N1863  N     0.83243   0.88623   0.68246   0.00000  Uiso   1.00
N1864  N     0.84690   0.59823   0.82168   0.00000  Uiso   1.00
N1865  N     0.69942   0.64483   0.25874   0.00000  Uiso   1.00
N1866  N     0.59967   0.84615   0.67881   0.00000  Uiso   1.00
N1867  N     0.90582   0.64931   0.32145   0.00000  Uiso   1.00
N1868  N     0.70031   0.64440   0.74805   0.00000  Uiso   1.00
N1869  N     0.83709   0.89174   0.31960   0.00000  Uiso   1.00
N1870  N     0.88467   0.83116   0.31699   0.00000  Uiso   1.00
N1871  N     0.64541   0.69880   0.73953   0.00000  Uiso   1.00
N1872  N     0.84937   0.59573   0.32144   0.00000  Uiso   1.00
N1873  N     0.64859   0.90704   0.67945   0.00000  Uiso   1.00
N1874  N     0.64501   0.69974   0.25109   0.00000  Uiso   1.00
N1875  N     0.54968   0.60562   0.24989   0.00000  Uiso   1.00
N1876  N     0.89079   0.83644   0.68065   0.00000  Uiso   1.00
N1877  N     0.65076   0.90439   0.32123   0.00000  Uiso   1.00
N1878  N     0.84895   0.59512   0.67929   0.00000  Uiso   1.00
N1879  N     0.71326   0.94330   0.10191   0.00000  Uiso   1.00
N1880  N     0.79594   0.95079   0.89795   0.00000  Uiso   1.00
N1881  N     0.96399   0.69165   0.09990   0.00000  Uiso   1.00
N1882  N     0.55953   0.78201   0.89647   0.00000  Uiso   1.00
N1883  N     0.78587   0.55688   0.10207   0.00000  Uiso   1.00
N1884  N     0.70378   0.54844   0.89862   0.00000  Uiso   1.00
N1885  N     0.53225   0.80874   0.10092   0.00000  Uiso   1.00
N1886  N     0.91235   0.85760   0.81974   0.00000  Uiso   1.00
N1887  N     0.94233   0.71528   0.89730   0.00000  Uiso   1.00
N1888  N     0.96077   0.69531   0.60204   0.00000  Uiso   1.00
N1889  N     0.54860   0.70376   0.39876   0.00000  Uiso   1.00
N1890  N     0.71562   0.94064   0.59954   0.00000  Uiso   1.00
N1891  N     0.80839   0.53418   0.39713   0.00000  Uiso   1.00
N1892  N     0.54024   0.80433   0.60168   0.00000  Uiso   1.00
N1893  N     0.95226   0.79738   0.39803   0.00000  Uiso   1.00
N1894  N     0.77938   0.56034   0.60096   0.00000  Uiso   1.00
N1895  N     0.69115   0.96748   0.39667   0.00000  Uiso   1.00
N1896  N     0.84888   0.59683   0.17883   0.00000  Uiso   1.00
N1897  N     0.65559   0.89944   0.82149   0.00000  Uiso   1.00
N1898  N     0.91971   0.86649   0.18376   0.00000  Uiso   1.00
N1899  N     0.55086   0.60533   0.76115   0.00000  Uiso   1.00
N1900  N     0.60498   0.55034   0.75304   0.00000  Uiso   1.00
O1901  O     0.75000   0.50000   0.25000   0.00000  Uiso   1.00
O1902  O     0.75000   0.96964   0.66317   0.00000  Uiso   1.00
O1903  O     0.96964   0.75000   0.33683   0.00000  Uiso   1.00
O1904  O     0.53036   0.75000   0.66317   0.00000  Uiso   1.00
O1905  O     0.50000   0.71964   0.83683   0.00000  Uiso   1.00
O1906  O     0.50000   0.78036   0.16317   0.00000  Uiso   1.00
O1907  O     0.78036   0.50000   0.83683   0.00000  Uiso   1.00
O1908  O     0.71964   0.50000   0.16317   0.00000  Uiso   1.00
O1909  O     0.50000   0.78036   0.83683   0.00000  Uiso   1.00
O1910  O     0.50000   0.71964   0.16317   0.00000  Uiso   1.00
O1911  O     0.71964   0.50000   0.83683   0.00000  Uiso   1.00
O1912  O     0.75000   0.50000   0.75000   0.00000  Uiso   1.00
O1913  O     0.78036   0.50000   0.16317   0.00000  Uiso   1.00
O1914  O     0.70725   0.57307   0.27282   0.00000  Uiso   1.00
O1915  O     0.79274   0.92693   0.72718   0.00000  Uiso   1.00
O1916  O     0.92693   0.70725   0.27282   0.00000  Uiso   1.00
O1917  O     0.57307   0.79275   0.72718   0.00000  Uiso   1.00
O1918  O     0.79274   0.92693   0.27282   0.00000  Uiso   1.00
O1919  O     0.70725   0.57307   0.72718   0.00000  Uiso   1.00
O1920  O     0.57307   0.79275   0.27282   0.00000  Uiso   1.00
O1921  O     0.92693   0.70725   0.72718   0.00000  Uiso   1.00
O1922  O     0.70725   0.92693   0.72718   0.00000  Uiso   1.00
O1923  O     0.50000   0.75000   0.25000   0.00000  Uiso   1.00
O1924  O     0.79274   0.57307   0.27282   0.00000  Uiso   1.00
O1925  O     0.92693   0.79274   0.72718   0.00000  Uiso   1.00
O1926  O     0.57307   0.70726   0.27282   0.00000  Uiso   1.00
O1927  O     0.79274   0.57307   0.72718   0.00000  Uiso   1.00
O1928  O     0.70725   0.92693   0.27282   0.00000  Uiso   1.00
O1929  O     0.57307   0.70726   0.72718   0.00000  Uiso   1.00
O1930  O     0.92693   0.79274   0.27282   0.00000  Uiso   1.00
O1931  O     0.95725   0.82307   0.77282   0.00000  Uiso   1.00
O1932  O     0.54274   0.67693   0.22718   0.00000  Uiso   1.00
O1933  O     0.67693   0.95726   0.77282   0.00000  Uiso   1.00
O1934  O     0.50000   0.75000   0.75000   0.00000  Uiso   1.00
O1935  O     0.82307   0.54274   0.22718   0.00000  Uiso   1.00
O1936  O     0.54274   0.67693   0.77282   0.00000  Uiso   1.00
O1937  O     0.95725   0.82307   0.22718   0.00000  Uiso   1.00
O1938  O     0.82307   0.54274   0.77282   0.00000  Uiso   1.00
O1939  O     0.67693   0.95726   0.22718   0.00000  Uiso   1.00
O1940  O     0.95725   0.67693   0.22718   0.00000  Uiso   1.00
O1941  O     0.54274   0.82307   0.77282   0.00000  Uiso   1.00
O1942  O     0.67693   0.54274   0.22718   0.00000  Uiso   1.00
O1943  O     0.82307   0.95726   0.77282   0.00000  Uiso   1.00
O1944  O     0.54274   0.82307   0.22718   0.00000  Uiso   1.00
O1945  O     0.75000   0.96964   0.33683   0.00000  Uiso   1.00
O1946  O     0.95725   0.67693   0.77282   0.00000  Uiso   1.00
O1947  O     0.82307   0.95726   0.22718   0.00000  Uiso   1.00
O1948  O     0.67693   0.54274   0.77282   0.00000  Uiso   1.00
O1949  O     0.75000   0.53036   0.66317   0.00000  Uiso   1.00
O1950  O     0.53036   0.75000   0.33683   0.00000  Uiso   1.00
O1951  O     0.96964   0.75000   0.66317   0.00000  Uiso   1.00
O1952  O     0.75000   0.53036   0.33683   0.00000  Uiso   1.00
Zn1953 Zn    0.70660   0.50000   0.21760   0.00000  Uiso   1.00
Zn1954 Zn    0.54340   0.75000   0.28240   0.00000  Uiso   1.00
Zn1955 Zn    0.75000   0.95660   0.71760   0.00000  Uiso   1.00
Zn1956 Zn    0.75000   0.54340   0.28240   0.00000  Uiso   1.00
Zn1957 Zn    0.54340   0.75000   0.71760   0.00000  Uiso   1.00
Zn1958 Zn    0.95660   0.75000   0.28240   0.00000  Uiso   1.00
Zn1959 Zn    0.75000   0.54340   0.71760   0.00000  Uiso   1.00
Zn1960 Zn    0.75000   0.95660   0.28240   0.00000  Uiso   1.00
Zn1961 Zn    0.79340   0.50000   0.78240   0.00000  Uiso   1.00
Zn1962 Zn    0.50000   0.70660   0.21760   0.00000  Uiso   1.00
Zn1963 Zn    0.50000   0.79340   0.78240   0.00000  Uiso   1.00
Zn1964 Zn    0.79340   0.50000   0.21760   0.00000  Uiso   1.00
Zn1965 Zn    0.70660   0.50000   0.78240   0.00000  Uiso   1.00
Zn1966 Zn    0.50000   0.79340   0.21760   0.00000  Uiso   1.00
Zn1967 Zn    0.50000   0.70660   0.78240   0.00000  Uiso   1.00
Zn1968 Zn    0.95660   0.75000   0.71760   0.00000  Uiso   1.00
loop_
_geom_bond_atom_site_label_1
_geom_bond_atom_site_label_2
_geom_bond_distance
_geom_bond_site_symmetry_2
_ccdc_geom_bond_type
C1     C78     1.399   .     A
C1     H169    1.084   .     S
C1     C96     1.396   .     A
C2     H170    1.084   .     S
C2     C88     1.398   .     A
C2     C593    1.395   1_455 S
C3     C144    1.416   .     A
C3     C115    1.466   .     S
C3     C151    1.415   .     A
C4     C154    1.408   .     A
C4     C116    1.453   .     S
C4     C143    1.406   .     A
C5     C142    1.410   .     A
C5     C117    1.459   .     S
C5     C153    1.413   .     A
C6     C141    1.408   .     A
C6     C156    1.410   .     A
C6     C118    1.459   .     S
C7     C119    1.458   .     S
C7     C140    1.408   .     A
C7     C155    1.408   .     A
C8     C129    1.468   .     S
C8     C159    1.415   .     A
C8     C139    1.415   .     A
C9     C138    1.417   .     A
C9     C130    1.467   .     S
C9     C157    1.416   .     A
C10    C122    1.453   .     S
C10    C161    1.407   .     A
C10    C137    1.409   .     A
C11    C160    1.411   .     A
C11    C123    1.459   .     S
C11    C135    1.412   .     A
C12    C163    1.409   .     A
C12    C124    1.460   .     S
C12    C134    1.411   .     A
C13    H181    1.083   .     S
C13    C102    1.398   .     A
C13    C89     1.392   .     A
C14    C126    1.458   .     S
C14    C133    1.408   .     A
C14    C162    1.408   .     A
C15    C132    1.409   .     A
C15    C127    1.453   .     S
C15    C165    1.407   .     A
C16    C164    1.410   .     A
C16    C131    1.413   .     A
C16    C128    1.458   .     S
C17    C78     1.414   .     A
C17    C1067   1.413   .     S
C17    C1096   1.462   .     S
C18    C1095   1.466   .     S
C18    C79     1.414   .     A
C18    C1068   1.414   .     S
C19    C80     1.420   .     A
C19    C110    1.471   .     S
C19    C577    1.416   .     S
C20    C109    1.447   .     S
C20    C82     1.408   .     A
C20    C578    1.408   1_455 S
C21    C108    1.464   .     S
C21    C87     1.413   .     A
C21    C583    1.415   .     S
C22    C107    1.467   .     S
C22    C88     1.415   .     A
C22    C585    1.415   1_455 S
C23    C94     1.418   .     A
C23    C106    1.472   .     S
C23    C1073   1.421   1_545 S
C24    C90     1.393   .     A
C24    H192    1.083   .     S
C24    C1088   1.402   1_545 S
C25    C105    1.447   .     S
C25    C90     1.409   .     A
C25    C1079   1.407   1_545 S
C26    H281    1.109   .     S
C26    H269    1.109   .     S
C26    H258    1.109   .     S
C26    N377    1.450   .     S
C27    H293    1.113   .     S
C27    H292    1.109   .     S
C27    N388    1.450   .     S
C27    H294    1.110   .     S
C28    N399    1.447   .     S
C28    H298    1.110   .     S
C28    H296    1.111   .     S
C28    H297    1.111   .     S
C29    N410    1.446   .     S
C29    H302    1.110   .     S
C29    H301    1.111   .     S
C29    H303    1.111   .     S
C30    H306    1.109   .     S
C30    H305    1.109   .     S
C30    H307    1.110   .     S
C30    N420    1.450   .     S
C31    H310    1.113   .     S
C31    H309    1.109   .     S
C31    N421    1.450   .     S
C31    H312    1.109   .     S
C32    H314    1.110   .     S
C32    N422    1.450   .     S
C32    H316    1.111   .     S
C32    H315    1.108   .     S
C33    H318    1.109   .     S
C33    H320    1.110   .     S
C33    H319    1.110   .     S
C33    N423    1.450   .     S
C34    H323    1.110   .     S
C34    H325    1.111   .     S
C34    H324    1.111   .     S
C34    N424    1.446   .     S
C35    H203    1.084   .     S
C35    C91     1.398   .     A
C35    C592    1.396   1_455 S
C36    N378    1.446   .     S
C36    H327    1.110   .     S
C36    H329    1.111   .     S
C36    H328    1.111   .     S
C37    H332    1.113   .     S
C37    H331    1.109   .     S
C37    H334    1.109   .     S
C37    N379    1.450   .     S
C38    N380    1.447   .     S
C38    H338    1.111   .     S
C38    H336    1.110   .     S
C38    H337    1.111   .     S
C39    H342    1.109   .     S
C39    N381    1.450   .     S
C39    H341    1.111   .     S
C39    H340    1.110   .     S
C40    H346    1.110   .     S
C40    N382    1.450   .     S
C40    H347    1.109   .     S
C40    H345    1.109   .     S
C41    H349    1.109   .     S
C41    N383    1.450   .     S
C41    H351    1.109   .     S
C41    H350    1.112   .     S
C42    N384    1.446   .     S
C42    H353    1.110   .     S
C42    H356    1.111   .     S
C42    H354    1.109   .     S
C43    H359    1.109   .     S
C43    H360    1.110   .     S
C43    N385    1.450   .     S
C43    H358    1.109   .     S
C44    H362    1.109   .     S
C44    H364    1.110   .     S
C44    N386    1.450   .     S
C44    H363    1.113   .     S
C45    N387    1.452   .     S
C45    H368    1.108   .     S
C45    H369    1.113   .     S
C45    H367    1.111   .     S
C46    C101    1.396   .     A
C46    H214    1.084   .     S
C46    C93     1.399   .     A
C47    H371    1.109   .     S
C47    N389    1.450   .     S
C47    H373    1.110   .     S
C47    H372    1.110   .     S
C48    H375    1.109   .     S
C48    H171    1.109   .     S
C48    H376    1.108   .     S
C48    N390    1.450   .     S
C49    H175    1.110   .     S
C49    H173    1.109   .     S
C49    H174    1.113   .     S
C49    N391    1.450   .     S
C50    H178    1.111   .     S
C50    N392    1.447   .     S
C50    H179    1.110   .     S
C50    H177    1.111   .     S
C51    N393    1.446   .     S
C51    H183    1.110   .     S
C51    H184    1.111   .     S
C51    H182    1.111   .     S
C52    H187    1.111   .     S
C52    H186    1.110   .     S
C52    N394    1.450   .     S
C52    H188    1.109   .     S
C53    H193    1.109   .     S
C53    H190    1.109   .     S
C53    N395    1.450   .     S
C53    H191    1.110   .     S
C54    H196    1.113   .     S
C54    N396    1.450   .     S
C54    H197    1.110   .     S
C54    H195    1.109   .     S
C55    N397    1.447   .     S
C55    H199    1.110   .     S
C55    H201    1.111   .     S
C55    H200    1.109   .     S
C56    N398    1.446   .     S
C56    H205    1.111   .     S
C56    H206    1.111   .     S
C56    H204    1.110   .     S
C57    H225    1.083   .     S
C57    C94     1.393   .     A
C57    C1086   1.398   1_545 S
C58    H208    1.110   .     S
C58    H209    1.111   .     S
C58    H210    1.111   .     S
C58    N400    1.446   .     S
C59    H215    1.110   .     S
C59    H213    1.113   .     S
C59    N401    1.450   .     S
C59    H212    1.109   .     S
C60    H219    1.111   .     S
C60    H218    1.111   .     S
C60    N402    1.447   .     S
C60    H217    1.110   .     S
C61    N403    1.447   .     S
C61    H222    1.108   .     S
C61    H221    1.110   .     S
C61    H223    1.112   .     S
C62    H227    1.110   .     S
C62    H228    1.111   .     S
C62    H226    1.112   .     S
C62    N404    1.447   .     S
C63    H230    1.110   .     S
C63    N405    1.447   .     S
C63    H232    1.111   .     S
C63    H723    1.111   .     S
C64    H235    1.110   .     S
C64    H234    1.110   .     S
C64    H237    1.112   .     S
C64    N406    1.447   .     S
C65    N407    1.447   .     S
C65    H241    1.112   .     S
C65    H240    1.110   .     S
C65    H239    1.110   .     S
C66    N408    1.447   .     S
C66    H243    1.112   .     S
C66    H244    1.110   .     S
C66    H245    1.111   .     S
C67    N409    1.446   .     S
C67    H250    1.111   .     S
C67    H248    1.110   .     S
C67    H741    1.111   1_455 S
C68    C95     1.393   .     A
C68    C104    1.403   .     A
C68    H236    1.083   .     S
C69    N411    1.446   .     S
C69    H254    1.112   .     S
C69    H253    1.108   .     S
C69    H252    1.110   .     S
C70    H256    1.109   .     S
C70    H259    1.112   .     S
C70    N412    1.447   .     S
C70    H749    1.110   .     S
C71    H262    1.110   .     S
C71    H263    1.111   .     S
C71    N413    1.447   .     S
C71    H261    1.112   .     S
C72    N414    1.446   .     S
C72    H265    1.111   .     S
C72    H266    1.110   .     S
C72    H267    1.110   .     S
C73    N415    1.446   .     S
C73    H270    1.109   .     S
C73    H1255   1.108   1_545 S
C73    H1256   1.112   1_545 S
C74    N416    1.450   .     S
C74    H274    1.111   .     S
C74    H275    1.109   .     S
C74    H768    1.110   1_455 S
C75    H282    1.111   .     S
C75    H279    1.110   .     S
C75    H278    1.112   .     S
C75    N417    1.447   .     S
C76    N418    1.447   .     S
C76    H284    1.110   .     S
C76    H286    1.111   .     S
C76    H285    1.111   .     S
C77    N419    1.447   .     S
C77    H288    1.110   .     S
C77    H1273   1.110   .     S
C77    H1274   1.112   .     S
C78    N403    1.425   .     S
C79    N404    1.425   .     S
C79    C81     1.399   .     A
C80    C92     1.392   .     A
C80    N405    1.426   .     S
C81    H280    1.084   .     S
C81    C97     1.396   .     A
C82    N406    1.425   .     S
C82    C103    1.394   .     A
C83    C114    1.399   .     A
C83    N407    1.424   .     S
C83    C1001   1.413   1_545 S
C84    N408    1.424   .     S
C84    C125    1.398   .     A
C84    C1002   1.414   1_545 S
C85    N409    1.423   .     S
C85    C136    1.393   .     A
C85    C511    1.416   1_455 S
C86    N411    1.426   .     S
C86    C147    1.393   .     A
C86    C512    1.408   .     S
C87    N412    1.424   .     S
C87    C158    1.399   .     A
C88    N413    1.424   .     S
C89    N414    1.425   .     S
C89    C1007   1.421   .     S
C90    N415    1.425   .     S
C91    N416    1.426   .     S
C91    C513    1.415   1_455 S
C92    H300    1.083   .     S
C92    C590    1.399   .     S
C93    N417    1.425   .     S
C93    C514    1.415   .     S
C94    N418    1.423   .     S
C95    N419    1.425   .     S
C95    C1009   1.407   .     S
C96    C97     1.460   1_554 S
C96    C1098   1.396   .     S
C97    C96     1.460   1_556 S
C97    C1109   1.396   .     S
C98    C136    1.398   .     A
C98    C584    1.399   1_455 S
C98    C99     1.473   1_554 S
C99    C103    1.403   .     A
C99    C98     1.473   1_556 S
C99    C639    1.403   1_455 S
C100   C101    1.458   .     S
C100   C158    1.396   .     A
C100   C527    1.396   .     S
C101   C494    1.395   .     S
C102   C104    1.470   .     S
C102   C1041   1.398   .     S
C103   H311    1.083   .     S
C104   C1008   1.402   .     S
C105   O476    1.277   .     A
C105   O1453   1.279   1_545 S
C106   O473    1.285   .     A
C106   O1410   1.286   1_545 S
C107   O474    1.281   .     A
C107   O919    1.281   1_455 S
C108   O475    1.280   .     A
C108   O920    1.280   .     S
C109   O433    1.280   .     A
C109   O429    1.277   .     S
C110   O926    1.284   .     A
C110   O922    1.285   .     S
C111   C1002   1.466   1_545 S
C111   O431    1.280   .     S
C111   O435    1.281   .     S
C112   O437    1.280   .     A
C112   O432    1.279   .     A
C112   C1001   1.462   1_545 S
C113   C168    1.468   .     S
C113   O466    1.281   .     A
C113   O438    1.280   .     A
C114   H322    1.084   .     S
C114   C1080   1.396   1_545 S
C115   O439    1.280   .     A
C115   O467    1.279   .     A
C116   O464    1.281   .     A
C116   O440    1.275   .     A
C117   O441    1.278   .     A
C117   O465    1.282   .     A
C118   O442    1.277   .     A
C118   O471    1.279   .     A
C119   O472    1.277   .     A
C119   O443    1.278   .     A
C120   C166    1.453   .     S
C120   O444    1.275   .     A
C120   O468    1.280   .     A
C121   O470    1.282   .     A
C121   C167    1.459   .     S
C121   O445    1.277   .     A
C122   O446    1.281   .     A
C122   O457    1.275   .     A
C123   O459    1.278   .     A
C123   O448    1.282   .     A
C124   O449    1.278   .     A
C124   O455    1.277   .     A
C125   H333    1.084   .     S
C125   C1081   1.396   1_545 S
C126   O450    1.277   .     A
C126   O456    1.277   .     A
C127   O462    1.275   .     A
C127   O451    1.281   .     A
C128   O463    1.277   .     A
C128   O452    1.282   .     A
C129   O460    1.280   .     A
C129   O453    1.281   .     A
C130   O461    1.280   .     A
C130   O454    1.281   .     A
C131   N377    1.427   .     S
C131   C148    1.405   .     A
C132   N388    1.427   .     S
C132   C146    1.402   .     A
C133   C145    1.407   .     A
C133   N399    1.429   .     S
C134   N410    1.427   .     S
C134   C144    1.402   .     A
C135   N420    1.426   .     S
C135   C143    1.404   .     A
C136   H344    1.083   .     S
C137   N421    1.427   .     S
C137   C142    1.403   .     A
C138   C141    1.401   .     A
C138   N422    1.426   .     S
C139   C140    1.405   .     A
C139   N423    1.427   .     S
C140   N424    1.428   .     S
C141   N378    1.428   .     S
C142   N379    1.427   .     S
C143   N380    1.428   .     S
C144   N381    1.428   .     S
C145   C168    1.415   .     A
C145   N382    1.426   .     S
C146   N383    1.427   .     S
C146   C167    1.411   .     A
C147   H355    1.083   .     S
C147   C591    1.403   .     S
C148   C166    1.408   .     A
C148   N384    1.429   .     S
C149   C165    1.404   .     A
C149   C167    1.414   .     A
C149   N385    1.426   .     S
C150   C166    1.409   .     A
C150   C164    1.402   .     A
C150   N386    1.427   .     S
C151   N387    1.427   .     S
C151   C163    1.400   .     A
C152   N389    1.427   .     S
C152   C168    1.415   .     A
C152   C162    1.406   .     A
C153   N390    1.426   .     S
C153   C161    1.404   .     A
C154   N391    1.427   .     S
C154   C160    1.403   .     A
C155   C159    1.406   .     A
C155   N392    1.429   .     S
C156   N393    1.427   .     S
C156   C157    1.401   .     A
C157   N394    1.428   .     S
C158   H366    1.084   .     S
C159   N395    1.426   .     S
C160   N396    1.427   .     S
C161   N397    1.429   .     S
C162   N398    1.428   .     S
C163   N400    1.427   .     S
C164   N401    1.427   .     S
C165   N402    1.429   .     S
H172   N391    1.031   .     S
H176   N392    1.028   .     S
H180   N393    1.029   .     S
H185   N394    1.030   .     S
H189   N395    1.031   .     S
H194   N396    1.030   .     S
H198   N397    1.029   .     S
H202   N398    1.028   .     S
H207   N400    1.030   .     S
H211   N401    1.031   .     S
H216   N402    1.029   .     S
H220   N403    1.032   .     S
H224   N404    1.032   .     S
H229   N405    1.029   .     S
H231   C555    1.111   1_455 S
H233   N406    1.032   .     S
H238   N407    1.032   .     S
H242   N408    1.032   .     S
H246   N409    1.032   .     S
H247   N377    1.031   .     S
H249   C559    1.111   .     S
H251   N411    1.032   .     S
H255   N412    1.032   .     S
H257   C562    1.110   1_455 S
H260   N413    1.032   .     S
H264   N414    1.029   .     S
H268   N415    1.032   .     S
H271   C1057   1.108   .     S
H272   C1057   1.112   .     S
H273   N416    1.032   .     S
H276   C566    1.110   .     S
H277   N417    1.032   .     S
H283   N418    1.032   .     S
H287   N419    1.032   .     S
H289   C1061   1.110   1_545 S
H290   C1061   1.112   1_545 S
H291   N388    1.031   .     S
H295   N399    1.028   .     S
H299   N410    1.029   .     S
H304   N420    1.031   .     S
H308   N421    1.031   .     S
H313   N422    1.031   .     S
H317   N423    1.031   .     S
H321   N424    1.029   .     S
H326   N378    1.029   .     S
H330   N379    1.030   .     S
H335   N380    1.029   .     S
H339   N381    1.030   .     S
H343   N382    1.031   .     S
H348   N383    1.030   .     S
H352   N384    1.028   .     S
H357   N385    1.031   .     S
H361   N386    1.031   .     S
H365   N387    1.031   .     S
H370   N389    1.031   .     S
H374   N390    1.031   .     S
O425   Zn477   1.943   .     S
O425   Zn480   1.949   .     S
O425   Zn488   1.945   .     S
O425   Zn1468  1.948   1_545 S
O426   Zn479   1.937   .     S
O426   C1090   1.286   .     S
O427   Zn482   1.936   .     S
O427   C599    1.281   .     S
O428   Zn481   1.936   .     S
O428   C600    1.280   1_455 S
O429   Zn491   1.937   .     S
O430   Zn490   1.937   .     S
O430   C602    1.285   1_455 S
O431   Zn485   1.937   .     S
O432   Zn477   1.937   .     S
O433   Zn487   1.937   .     S
O434   C602    1.284   1_455 A
O434   Zn486   1.937   .     S
O435   Zn489   1.936   .     S
O436   Zn489   1.945   .     S
O436   Zn483   1.948   .     S
O436   Zn485   1.943   .     S
O436   Zn1463  1.949   1_545 S
O437   Zn488   1.936   .     S
O438   Zn480   1.942   .     S
O439   Zn479   1.942   .     S
O440   Zn482   1.936   .     S
O441   Zn481   1.936   .     S
O442   Zn484   1.943   .     S
O443   Zn483   1.943   .     S
O444   Zn478   1.936   .     S
O445   Zn492   1.936   .     S
O446   Zn479   1.934   .     S
O447   Zn974   1.945   1_455 S
O447   Zn486   1.949   .     S
O447   Zn478   1.943   .     S
O447   Zn490   1.948   .     S
O448   Zn480   1.934   .     S
O449   Zn492   1.945   .     S
O450   Zn478   1.945   .     S
O451   Zn483   1.933   .     S
O452   Zn484   1.933   .     S
O453   Zn481   1.945   .     S
O454   Zn482   1.945   .     S
O455   Zn979   1.942   .     S
O456   Zn486   1.942   .     S
O457   Zn1473  1.936   .     S
O458   Zn481   1.945   .     S
O458   Zn487   1.949   .     S
O458   Zn491   1.948   .     S
O458   Zn984   1.943   1_455 S
O459   Zn488   1.936   .     S
O460   Zn491   1.943   .     S
O461   Zn982   1.943   .     S
O462   Zn485   1.936   .     S
O463   Zn1461  1.936   .     S
O464   Zn978   1.934   .     S
O465   Zn487   1.934   .     S
O466   Zn477   1.945   .     S
O467   Zn1469  1.945   .     S
O468   Zn490   1.933   .     S
O469   Zn484   1.937   .     S
O469   C1089   1.279   .     S
O470   Zn983   1.933   .     S
O471   Zn1472  1.945   .     S
O472   Zn489   1.945   .     S
O473   Zn483   1.937   .     S
O474   Zn478   1.937   .     S
O475   Zn492   1.937   .     S
O476   Zn480   1.937   .     S
Zn477  O1447   1.936   1_545 S
Zn479  O1420   1.949   .     S
Zn482  O939    1.945   .     S
Zn484  O1409   1.948   .     S
Zn485  O1451   1.945   1_545 S
Zn486  O956    1.934   1_455 S
Zn487  O947    1.942   1_455 S
Zn488  O1455   1.945   1_545 S
Zn489  O1441   1.936   1_545 S
Zn490  O953    1.943   1_455 S
Zn491  O962    1.933   1_455 S
Zn492  O950    1.943   .     S
C493   C570    1.399   .     A
C493   H661    1.084   .     S
C493   C588    1.396   .     A
C494   H662    1.084   .     S
C494   C580    1.398   .     A
C495   C636    1.416   .     A
C495   C607    1.466   .     S
C495   C643    1.415   .     A
C496   C646    1.408   .     A
C496   C608    1.453   .     S
C496   C635    1.406   .     A
C497   C634    1.410   .     A
C497   C609    1.459   .     S
C497   C645    1.413   .     A
C498   C633    1.408   .     A
C498   C648    1.410   .     A
C498   C610    1.459   .     S
C499   C611    1.458   .     S
C499   C632    1.408   .     A
C499   C647    1.408   .     A
C500   C621    1.468   .     S
C500   C651    1.415   .     A
C500   C631    1.415   .     A
C501   C630    1.417   .     A
C501   C622    1.467   .     S
C501   C649    1.416   .     A
C502   C614    1.453   .     S
C502   C653    1.407   .     A
C502   C629    1.409   .     A
C503   C652    1.411   .     A
C503   C615    1.459   .     S
C503   C627    1.412   .     A
C504   C655    1.409   .     A
C504   C616    1.460   .     S
C504   C626    1.411   .     A
C505   H673    1.083   .     S
C505   C594    1.398   .     A
C505   C581    1.392   .     A
C506   C618    1.458   .     S
C506   C625    1.408   .     A
C506   C654    1.408   .     A
C507   C624    1.409   .     A
C507   C619    1.453   .     S
C507   C657    1.407   .     A
C508   C656    1.410   .     A
C508   C623    1.413   .     A
C508   C620    1.458   .     S
C509   C570    1.414   .     A
C509   C1559   1.413   .     S
C509   C1588   1.462   .     S
C510   C1587   1.466   .     S
C510   C571    1.414   .     A
C510   C1560   1.414   .     S
C511   C572    1.420   .     A
C511   C602    1.471   .     S
C511   C85     1.416   1_655 S
C512   C601    1.447   .     S
C512   C574    1.408   .     A
C513   C600    1.464   .     S
C513   C579    1.413   .     A
C513   C91     1.415   1_655 S
C514   C599    1.467   .     S
C514   C580    1.415   .     A
C515   C586    1.418   .     A
C515   C598    1.472   .     S
C515   C1565   1.421   1_545 S
C516   C582    1.393   .     A
C516   H684    1.083   .     S
C516   C1580   1.402   1_545 S
C517   C597    1.447   .     S
C517   C582    1.409   .     A
C517   C1571   1.407   1_545 S
C518   H773    1.109   .     S
C518   H761    1.109   .     S
C518   H750    1.109   .     S
C518   N869    1.450   .     S
C519   H785    1.113   .     S
C519   H784    1.109   .     S
C519   N880    1.450   .     S
C519   H786    1.110   .     S
C520   N891    1.447   .     S
C520   H790    1.110   .     S
C520   H788    1.111   .     S
C520   H789    1.111   .     S
C521   N902    1.446   .     S
C521   H794    1.110   .     S
C521   H793    1.111   .     S
C521   H795    1.111   .     S
C522   H798    1.109   .     S
C522   H797    1.109   .     S
C522   H799    1.110   .     S
C522   N912    1.450   .     S
C523   H802    1.113   .     S
C523   H801    1.109   .     S
C523   N913    1.450   .     S
C523   H804    1.109   .     S
C524   H806    1.110   .     S
C524   N914    1.450   .     S
C524   H808    1.111   .     S
C524   H807    1.108   .     S
C525   H810    1.109   .     S
C525   H812    1.110   .     S
C525   H811    1.110   .     S
C525   N915    1.450   .     S
C526   H815    1.110   .     S
C526   H817    1.111   .     S
C526   H816    1.111   .     S
C526   N916    1.446   .     S
C527   H695    1.084   .     S
C527   C583    1.398   .     A
C528   N870    1.446   .     S
C528   H819    1.110   .     S
C528   H821    1.111   .     S
C528   H820    1.111   .     S
C529   H824    1.113   .     S
C529   H823    1.109   .     S
C529   H826    1.109   .     S
C529   N871    1.450   .     S
C530   N872    1.447   .     S
C530   H830    1.111   .     S
C530   H828    1.110   .     S
C530   H829    1.111   .     S
C531   H834    1.109   .     S
C531   N873    1.450   .     S
C531   H833    1.111   .     S
C531   H832    1.110   .     S
C532   H838    1.110   .     S
C532   N874    1.450   .     S
C532   H839    1.109   .     S
C532   H837    1.109   .     S
C533   H841    1.109   .     S
C533   N875    1.450   .     S
C533   H843    1.109   .     S
C533   H842    1.112   .     S
C534   N876    1.446   .     S
C534   H845    1.110   .     S
C534   H848    1.111   .     S
C534   H846    1.109   .     S
C535   H851    1.109   .     S
C535   H852    1.110   .     S
C535   N877    1.450   .     S
C535   H850    1.109   .     S
C536   H854    1.109   .     S
C536   H856    1.110   .     S
C536   N878    1.450   .     S
C536   H855    1.113   .     S
C537   N879    1.452   .     S
C537   H860    1.108   .     S
C537   H861    1.113   .     S
C537   H859    1.111   .     S
C538   C593    1.396   .     A
C538   H706    1.084   .     S
C538   C585    1.399   .     A
C539   H863    1.109   .     S
C539   N881    1.450   .     S
C539   H865    1.110   .     S
C539   H864    1.110   .     S
C540   H867    1.109   .     S
C540   H663    1.109   .     S
C540   H868    1.108   .     S
C540   N882    1.450   .     S
C541   H667    1.110   .     S
C541   H665    1.109   .     S
C541   H666    1.113   .     S
C541   N883    1.450   .     S
C542   H670    1.111   .     S
C542   N884    1.447   .     S
C542   H671    1.110   .     S
C542   H669    1.111   .     S
C543   N885    1.446   .     S
C543   H675    1.110   .     S
C543   H676    1.111   .     S
C543   H674    1.111   .     S
C544   H679    1.111   .     S
C544   H678    1.110   .     S
C544   N886    1.450   .     S
C544   H680    1.109   .     S
C545   H685    1.109   .     S
C545   H682    1.109   .     S
C545   N887    1.450   .     S
C545   H683    1.110   .     S
C546   H688    1.113   .     S
C546   N888    1.450   .     S
C546   H689    1.110   .     S
C546   H687    1.109   .     S
C547   N889    1.447   .     S
C547   H691    1.110   .     S
C547   H693    1.111   .     S
C547   H692    1.109   .     S
C548   N890    1.446   .     S
C548   H697    1.111   .     S
C548   H698    1.111   .     S
C548   H696    1.110   .     S
C549   H717    1.083   .     S
C549   C586    1.393   .     A
C549   C1578   1.398   1_545 S
C550   H700    1.110   .     S
C550   H701    1.111   .     S
C550   H702    1.111   .     S
C550   N892    1.446   .     S
C551   H707    1.110   .     S
C551   H705    1.113   .     S
C551   N893    1.450   .     S
C551   H704    1.109   .     S
C552   H711    1.111   .     S
C552   H710    1.111   .     S
C552   N894    1.447   .     S
C552   H709    1.110   .     S
C553   N895    1.447   .     S
C553   H714    1.108   .     S
C553   H713    1.110   .     S
C553   H715    1.112   .     S
C554   H719    1.110   .     S
C554   H720    1.111   .     S
C554   H718    1.112   .     S
C554   N896    1.447   .     S
C555   H722    1.110   .     S
C555   N897    1.447   .     S
C555   H724    1.111   .     S
C555   H231    1.111   1_655 S
C556   H727    1.110   .     S
C556   H726    1.110   .     S
C556   H729    1.112   .     S
C556   N898    1.447   .     S
C557   N899    1.447   .     S
C557   H733    1.112   .     S
C557   H732    1.110   .     S
C557   H731    1.110   .     S
C558   N900    1.447   .     S
C558   H735    1.112   .     S
C558   H736    1.110   .     S
C558   H737    1.111   .     S
C559   N901    1.446   .     S
C559   H742    1.111   .     S
C559   H740    1.110   .     S
C560   C587    1.393   .     A
C560   C596    1.403   .     A
C560   H728    1.083   .     S
C561   N903    1.446   .     S
C561   H746    1.112   .     S
C561   H745    1.108   .     S
C561   H744    1.110   .     S
C562   H748    1.109   .     S
C562   H751    1.112   .     S
C562   N904    1.447   .     S
C562   H257    1.110   1_655 S
C563   H754    1.110   .     S
C563   H755    1.111   .     S
C563   N905    1.447   .     S
C563   H753    1.112   .     S
C564   N906    1.446   .     S
C564   H757    1.111   .     S
C564   H758    1.110   .     S
C564   H759    1.110   .     S
C565   N907    1.446   .     S
C565   H762    1.109   .     S
C565   H1747   1.108   1_545 S
C565   H1748   1.112   1_545 S
C566   N908    1.450   .     S
C566   H766    1.111   .     S
C566   H767    1.109   .     S
C567   H774    1.111   .     S
C567   H771    1.110   .     S
C567   H770    1.112   .     S
C567   N909    1.447   .     S
C568   N910    1.447   .     S
C568   H776    1.110   .     S
C568   H778    1.111   .     S
C568   H777    1.111   .     S
C569   N911    1.447   .     S
C569   H780    1.110   .     S
C569   H1765   1.110   .     S
C569   H1766   1.112   .     S
C570   N895    1.425   .     S
C571   N896    1.425   .     S
C571   C573    1.399   .     A
C572   C584    1.392   .     A
C572   N897    1.426   .     S
C573   H772    1.084   .     S
C573   C589    1.396   .     A
C574   N898    1.425   .     S
C574   C595    1.394   .     A
C575   C606    1.399   .     A
C575   N899    1.424   .     S
C575   C1493   1.413   1_545 S
C576   N900    1.424   .     S
C576   C617    1.398   .     A
C576   C1494   1.414   1_545 S
C577   N901    1.423   .     S
C577   C628    1.393   .     A
C578   N903    1.426   .     S
C578   C639    1.393   .     A
C578   C20     1.408   1_655 S
C579   N904    1.424   .     S
C579   C650    1.399   .     A
C580   N905    1.424   .     S
C581   N906    1.425   .     S
C581   C1499   1.421   .     S
C582   N907    1.425   .     S
C583   N908    1.426   .     S
C584   H792    1.083   .     S
C584   C98     1.399   1_655 S
C585   N909    1.425   .     S
C585   C22     1.415   1_655 S
C586   N910    1.423   .     S
C587   N911    1.425   .     S
C587   C1501   1.407   .     S
C588   C589    1.460   1_554 S
C588   C1590   1.396   .     S
C589   C588    1.460   1_556 S
C589   C1601   1.396   .     S
C590   C628    1.398   .     A
C590   C591    1.473   1_554 S
C591   C595    1.403   .     A
C591   C590    1.473   1_556 S
C592   C593    1.458   .     S
C592   C650    1.396   .     A
C592   C35     1.396   1_655 S
C593   C2      1.395   1_655 S
C594   C596    1.470   .     S
C594   C1533   1.398   .     S
C595   H803    1.083   .     S
C596   C1500   1.402   .     S
C597   O968    1.277   .     A
C597   O1945   1.279   1_545 S
C598   O965    1.285   .     A
C598   O1902   1.286   1_545 S
C599   O966    1.281   .     A
C600   O967    1.280   .     A
C600   O428    1.280   1_655 S
C601   O925    1.280   .     A
C601   O921    1.277   .     S
C602   O434    1.284   1_655 A
C602   O430    1.285   1_655 S
C603   C1494   1.466   1_545 S
C603   O923    1.280   .     S
C603   O927    1.281   .     S
C604   O929    1.280   .     A
C604   O924    1.279   .     A
C604   C1493   1.462   1_545 S
C605   C660    1.468   .     S
C605   O958    1.281   .     A
C605   O930    1.280   .     A
C606   H814    1.084   .     S
C606   C1572   1.396   1_545 S
C607   O931    1.280   .     A
C607   O959    1.279   .     A
C608   O956    1.281   .     A
C608   O932    1.275   .     A
C609   O933    1.278   .     A
C609   O957    1.282   .     A
C610   O934    1.277   .     A
C610   O963    1.279   .     A
C611   O964    1.277   .     A
C611   O935    1.278   .     A
C612   C658    1.453   .     S
C612   O936    1.275   .     A
C612   O960    1.280   .     A
C613   O962    1.282   .     A
C613   C659    1.459   .     S
C613   O937    1.277   .     A
C614   O938    1.281   .     A
C614   O949    1.275   .     A
C615   O951    1.278   .     A
C615   O940    1.282   .     A
C616   O941    1.278   .     A
C616   O947    1.277   .     A
C617   H825    1.084   .     S
C617   C1573   1.396   1_545 S
C618   O942    1.277   .     A
C618   O948    1.277   .     A
C619   O954    1.275   .     A
C619   O943    1.281   .     A
C620   O955    1.277   .     A
C620   O944    1.282   .     A
C621   O952    1.280   .     A
C621   O945    1.281   .     A
C622   O953    1.280   .     A
C622   O946    1.281   .     A
C623   N869    1.427   .     S
C623   C640    1.405   .     A
C624   N880    1.427   .     S
C624   C638    1.402   .     A
C625   C637    1.407   .     A
C625   N891    1.429   .     S
C626   N902    1.427   .     S
C626   C636    1.402   .     A
C627   N912    1.426   .     S
C627   C635    1.404   .     A
C628   H836    1.083   .     S
C629   N913    1.427   .     S
C629   C634    1.403   .     A
C630   C633    1.401   .     A
C630   N914    1.426   .     S
C631   C632    1.405   .     A
C631   N915    1.427   .     S
C632   N916    1.428   .     S
C633   N870    1.428   .     S
C634   N871    1.427   .     S
C635   N872    1.428   .     S
C636   N873    1.428   .     S
C637   C660    1.415   .     A
C637   N874    1.426   .     S
C638   N875    1.427   .     S
C638   C659    1.411   .     A
C639   H847    1.083   .     S
C639   C99     1.403   1_655 S
C640   C658    1.408   .     A
C640   N876    1.429   .     S
C641   C657    1.404   .     A
C641   C659    1.414   .     A
C641   N877    1.426   .     S
C642   C658    1.409   .     A
C642   C656    1.402   .     A
C642   N878    1.427   .     S
C643   N879    1.427   .     S
C643   C655    1.400   .     A
C644   N881    1.427   .     S
C644   C660    1.415   .     A
C644   C654    1.406   .     A
C645   N882    1.426   .     S
C645   C653    1.404   .     A
C646   N883    1.427   .     S
C646   C652    1.403   .     A
C647   C651    1.406   .     A
C647   N884    1.429   .     S
C648   N885    1.427   .     S
C648   C649    1.401   .     A
C649   N886    1.428   .     S
C650   H858    1.084   .     S
C651   N887    1.426   .     S
C652   N888    1.427   .     S
C653   N889    1.429   .     S
C654   N890    1.428   .     S
C655   N892    1.427   .     S
C656   N893    1.427   .     S
C657   N894    1.429   .     S
H664   N883    1.031   .     S
H668   N884    1.028   .     S
H672   N885    1.029   .     S
H677   N886    1.030   .     S
H681   N887    1.031   .     S
H686   N888    1.030   .     S
H690   N889    1.029   .     S
H694   N890    1.028   .     S
H699   N892    1.030   .     S
H703   N893    1.031   .     S
H708   N894    1.029   .     S
H712   N895    1.032   .     S
H716   N896    1.032   .     S
H721   N897    1.029   .     S
H725   N898    1.032   .     S
H730   N899    1.032   .     S
H734   N900    1.032   .     S
H738   N901    1.032   .     S
H739   N869    1.031   .     S
H741   C67     1.111   1_655 S
H743   N903    1.032   .     S
H747   N904    1.032   .     S
H752   N905    1.032   .     S
H756   N906    1.029   .     S
H760   N907    1.032   .     S
H763   C1549   1.108   .     S
H764   C1549   1.112   .     S
H765   N908    1.032   .     S
H768   C74     1.110   1_655 S
H769   N909    1.032   .     S
H775   N910    1.032   .     S
H779   N911    1.032   .     S
H781   C1553   1.110   1_545 S
H782   C1553   1.112   1_545 S
H783   N880    1.031   .     S
H787   N891    1.028   .     S
H791   N902    1.029   .     S
H796   N912    1.031   .     S
H800   N913    1.031   .     S
H805   N914    1.031   .     S
H809   N915    1.031   .     S
H813   N916    1.029   .     S
H818   N870    1.029   .     S
H822   N871    1.030   .     S
H827   N872    1.029   .     S
H831   N873    1.030   .     S
H835   N874    1.031   .     S
H840   N875    1.030   .     S
H844   N876    1.028   .     S
H849   N877    1.031   .     S
H853   N878    1.031   .     S
H857   N879    1.031   .     S
H862   N881    1.031   .     S
H866   N882    1.031   .     S
O917   Zn969   1.943   .     S
O917   Zn972   1.949   .     S
O917   Zn980   1.945   .     S
O917   Zn1960  1.948   1_545 S
O918   Zn971   1.937   .     S
O918   C1582   1.286   .     S
O919   Zn974   1.936   .     S
O919   C107    1.281   1_655 S
O920   Zn973   1.936   .     S
O921   Zn983   1.937   .     S
O922   Zn982   1.937   .     S
O923   Zn977   1.937   .     S
O924   Zn969   1.937   .     S
O925   Zn979   1.937   .     S
O926   Zn978   1.937   .     S
O927   Zn981   1.936   .     S
O928   Zn981   1.945   .     S
O928   Zn975   1.948   .     S
O928   Zn977   1.943   .     S
O928   Zn1955  1.949   1_545 S
O929   Zn980   1.936   .     S
O930   Zn972   1.942   .     S
O931   Zn971   1.942   .     S
O932   Zn974   1.936   .     S
O933   Zn973   1.936   .     S
O934   Zn976   1.943   .     S
O935   Zn975   1.943   .     S
O936   Zn970   1.936   .     S
O937   Zn984   1.936   .     S
O938   Zn971   1.934   .     S
O939   Zn978   1.949   .     S
O939   Zn970   1.943   .     S
O939   Zn982   1.948   .     S
O940   Zn972   1.934   .     S
O941   Zn984   1.945   .     S
O942   Zn970   1.945   .     S
O943   Zn975   1.933   .     S
O944   Zn976   1.933   .     S
O945   Zn973   1.945   .     S
O946   Zn974   1.945   .     S
O947   Zn487   1.942   1_655 S
O948   Zn978   1.942   .     S
O949   Zn1965  1.936   .     S
O950   Zn973   1.945   .     S
O950   Zn979   1.949   .     S
O950   Zn983   1.948   .     S
O951   Zn980   1.936   .     S
O952   Zn983   1.943   .     S
O953   Zn490   1.943   1_655 S
O954   Zn977   1.936   .     S
O955   Zn1953  1.936   .     S
O956   Zn486   1.934   1_655 S
O957   Zn979   1.934   .     S
O958   Zn969   1.945   .     S
O959   Zn1961  1.945   .     S
O960   Zn982   1.933   .     S
O961   Zn976   1.937   .     S
O961   C1581   1.279   .     S
O962   Zn491   1.933   1_655 S
O963   Zn1964  1.945   .     S
O964   Zn981   1.945   .     S
O965   Zn975   1.937   .     S
O966   Zn970   1.937   .     S
O967   Zn984   1.937   .     S
O968   Zn972   1.937   .     S
Zn969  O1939   1.936   1_545 S
Zn971  O1912   1.949   .     S
Zn974  O447    1.945   1_655 S
Zn976  O1901   1.948   .     S
Zn977  O1943   1.945   1_545 S
Zn980  O1947   1.945   1_545 S
Zn981  O1933   1.936   1_545 S
Zn984  O458    1.943   1_655 S
C985   C1062   1.399   .     A
C985   H1153   1.084   .     S
C985   C1080   1.396   .     A
C986   H1154   1.084   .     S
C986   C1072   1.398   .     A
C986   C1577   1.395   1_455 S
C987   C1128   1.416   .     A
C987   C1099   1.466   .     S
C987   C1135   1.415   .     A
C988   C1138   1.408   .     A
C988   C1100   1.453   .     S
C988   C1127   1.406   .     A
C989   C1126   1.410   .     A
C989   C1101   1.459   .     S
C989   C1137   1.413   .     A
C990   C1125   1.408   .     A
C990   C1140   1.410   .     A
C990   C1102   1.459   .     S
C991   C1103   1.458   .     S
C991   C1124   1.408   .     A
C991   C1139   1.408   .     A
C992   C1113   1.468   .     S
C992   C1143   1.415   .     A
C992   C1123   1.415   .     A
C993   C1122   1.417   .     A
C993   C1114   1.467   .     S
C993   C1141   1.416   .     A
C994   C1106   1.453   .     S
C994   C1145   1.407   .     A
C994   C1121   1.409   .     A
C995   C1144   1.411   .     A
C995   C1107   1.459   .     S
C995   C1119   1.412   .     A
C996   C1147   1.409   .     A
C996   C1108   1.460   .     S
C996   C1118   1.411   .     A
C997   H1165   1.083   .     S
C997   C1086   1.398   .     A
C997   C1073   1.392   .     A
C998   C1110   1.458   .     S
C998   C1117   1.408   .     A
C998   C1146   1.408   .     A
C999   C1116   1.409   .     A
C999   C1111   1.453   .     S
C999   C1149   1.407   .     A
C1000  C1148   1.410   .     A
C1000  C1115   1.413   .     A
C1000  C1112   1.458   .     S
C1001  C1062   1.414   .     A
C1001  C83     1.413   1_565 S
C1001  C112    1.462   1_565 S
C1002  C111    1.466   1_565 S
C1002  C1063   1.414   .     A
C1002  C84     1.414   1_565 S
C1003  C1064   1.420   .     A
C1003  C1094   1.471   .     S
C1003  C1561   1.416   .     S
C1004  C1093   1.447   .     S
C1004  C1066   1.408   .     A
C1004  C1562   1.408   1_455 S
C1005  C1092   1.464   .     S
C1005  C1071   1.413   .     A
C1005  C1567   1.415   .     S
C1006  C1091   1.467   .     S
C1006  C1072   1.415   .     A
C1006  C1569   1.415   1_455 S
C1007  C1078   1.418   .     A
C1007  C1090   1.472   .     S
C1008  C1074   1.393   .     A
C1008  H1176   1.083   .     S
C1009  C1089   1.447   .     S
C1009  C1074   1.409   .     A
C1010  H1265   1.109   .     S
C1010  H1253   1.109   .     S
C1010  H1242   1.109   .     S
C1010  N1361   1.450   .     S
C1011  H1277   1.113   .     S
C1011  H1276   1.109   .     S
C1011  N1372   1.450   .     S
C1011  H1278   1.110   .     S
C1012  N1383   1.447   .     S
C1012  H1282   1.110   .     S
C1012  H1280   1.111   .     S
C1012  H1281   1.111   .     S
C1013  N1394   1.446   .     S
C1013  H1286   1.110   .     S
C1013  H1285   1.111   .     S
C1013  H1287   1.111   .     S
C1014  H1290   1.109   .     S
C1014  H1289   1.109   .     S
C1014  H1291   1.110   .     S
C1014  N1404   1.450   .     S
C1015  H1294   1.113   .     S
C1015  H1293   1.109   .     S
C1015  N1405   1.450   .     S
C1015  H1296   1.109   .     S
C1016  H1298   1.110   .     S
C1016  N1406   1.450   .     S
C1016  H1300   1.111   .     S
C1016  H1299   1.108   .     S
C1017  H1302   1.109   .     S
C1017  H1304   1.110   .     S
C1017  H1303   1.110   .     S
C1017  N1407   1.450   .     S
C1018  H1307   1.110   .     S
C1018  H1309   1.111   .     S
C1018  H1308   1.111   .     S
C1018  N1408   1.446   .     S
C1019  H1187   1.084   .     S
C1019  C1075   1.398   .     A
C1019  C1576   1.396   1_455 S
C1020  N1362   1.446   .     S
C1020  H1311   1.110   .     S
C1020  H1313   1.111   .     S
C1020  H1312   1.111   .     S
C1021  H1316   1.113   .     S
C1021  H1315   1.109   .     S
C1021  H1318   1.109   .     S
C1021  N1363   1.450   .     S
C1022  N1364   1.447   .     S
C1022  H1322   1.111   .     S
C1022  H1320   1.110   .     S
C1022  H1321   1.111   .     S
C1023  H1326   1.109   .     S
C1023  N1365   1.450   .     S
C1023  H1325   1.111   .     S
C1023  H1324   1.110   .     S
C1024  H1330   1.110   .     S
C1024  N1366   1.450   .     S
C1024  H1331   1.109   .     S
C1024  H1329   1.109   .     S
C1025  H1333   1.109   .     S
C1025  N1367   1.450   .     S
C1025  H1335   1.109   .     S
C1025  H1334   1.112   .     S
C1026  N1368   1.446   .     S
C1026  H1337   1.110   .     S
C1026  H1340   1.111   .     S
C1026  H1338   1.109   .     S
C1027  H1343   1.109   .     S
C1027  H1344   1.110   .     S
C1027  N1369   1.450   .     S
C1027  H1342   1.109   .     S
C1028  H1346   1.109   .     S
C1028  H1348   1.110   .     S
C1028  N1370   1.450   .     S
C1028  H1347   1.113   .     S
C1029  N1371   1.452   .     S
C1029  H1352   1.108   .     S
C1029  H1353   1.113   .     S
C1029  H1351   1.111   .     S
C1030  C1085   1.396   .     A
C1030  H1198   1.084   .     S
C1030  C1077   1.399   .     A
C1031  H1355   1.109   .     S
C1031  N1373   1.450   .     S
C1031  H1357   1.110   .     S
C1031  H1356   1.110   .     S
C1032  H1359   1.109   .     S
C1032  H1155   1.109   .     S
C1032  H1360   1.108   .     S
C1032  N1374   1.450   .     S
C1033  H1159   1.110   .     S
C1033  H1157   1.109   .     S
C1033  H1158   1.113   .     S
C1033  N1375   1.450   .     S
C1034  H1162   1.111   .     S
C1034  N1376   1.447   .     S
C1034  H1163   1.110   .     S
C1034  H1161   1.111   .     S
C1035  N1377   1.446   .     S
C1035  H1167   1.110   .     S
C1035  H1168   1.111   .     S
C1035  H1166   1.111   .     S
C1036  H1171   1.111   .     S
C1036  H1170   1.110   .     S
C1036  N1378   1.450   .     S
C1036  H1172   1.109   .     S
C1037  H1177   1.109   .     S
C1037  H1174   1.109   .     S
C1037  N1379   1.450   .     S
C1037  H1175   1.110   .     S
C1038  H1180   1.113   .     S
C1038  N1380   1.450   .     S
C1038  H1181   1.110   .     S
C1038  H1179   1.109   .     S
C1039  N1381   1.447   .     S
C1039  H1183   1.110   .     S
C1039  H1185   1.111   .     S
C1039  H1184   1.109   .     S
C1040  N1382   1.446   .     S
C1040  H1189   1.111   .     S
C1040  H1190   1.111   .     S
C1040  H1188   1.110   .     S
C1041  H1209   1.083   .     S
C1041  C1078   1.393   .     A
C1042  H1192   1.110   .     S
C1042  H1193   1.111   .     S
C1042  H1194   1.111   .     S
C1042  N1384   1.446   .     S
C1043  H1199   1.110   .     S
C1043  H1197   1.113   .     S
C1043  N1385   1.450   .     S
C1043  H1196   1.109   .     S
C1044  H1203   1.111   .     S
C1044  H1202   1.111   .     S
C1044  N1386   1.447   .     S
C1044  H1201   1.110   .     S
C1045  N1387   1.447   .     S
C1045  H1206   1.108   .     S
C1045  H1205   1.110   .     S
C1045  H1207   1.112   .     S
C1046  H1211   1.110   .     S
C1046  H1212   1.111   .     S
C1046  H1210   1.112   .     S
C1046  N1388   1.447   .     S
C1047  H1214   1.110   .     S
C1047  N1389   1.447   .     S
C1047  H1216   1.111   .     S
C1047  H1707   1.111   .     S
C1048  H1219   1.110   .     S
C1048  H1218   1.110   .     S
C1048  H1221   1.112   .     S
C1048  N1390   1.447   .     S
C1049  N1391   1.447   .     S
C1049  H1225   1.112   .     S
C1049  H1224   1.110   .     S
C1049  H1223   1.110   .     S
C1050  N1392   1.447   .     S
C1050  H1227   1.112   .     S
C1050  H1228   1.110   .     S
C1050  H1229   1.111   .     S
C1051  N1393   1.446   .     S
C1051  H1234   1.111   .     S
C1051  H1232   1.110   .     S
C1051  H1725   1.111   1_455 S
C1052  C1079   1.393   .     A
C1052  C1088   1.403   .     A
C1052  H1220   1.083   .     S
C1053  N1395   1.446   .     S
C1053  H1238   1.112   .     S
C1053  H1237   1.108   .     S
C1053  H1236   1.110   .     S
C1054  H1240   1.109   .     S
C1054  H1243   1.112   .     S
C1054  N1396   1.447   .     S
C1054  H1733   1.110   .     S
C1055  H1246   1.110   .     S
C1055  H1247   1.111   .     S
C1055  N1397   1.447   .     S
C1055  H1245   1.112   .     S
C1056  N1398   1.446   .     S
C1056  H1249   1.111   .     S
C1056  H1250   1.110   .     S
C1056  H1251   1.110   .     S
C1057  N1399   1.446   .     S
C1057  H1254   1.109   .     S
C1058  N1400   1.450   .     S
C1058  H1258   1.111   .     S
C1058  H1259   1.109   .     S
C1058  H1752   1.110   1_455 S
C1059  H1266   1.111   .     S
C1059  H1263   1.110   .     S
C1059  H1262   1.112   .     S
C1059  N1401   1.447   .     S
C1060  N1402   1.447   .     S
C1060  H1268   1.110   .     S
C1060  H1270   1.111   .     S
C1060  H1269   1.111   .     S
C1061  N1403   1.447   .     S
C1061  H1272   1.110   .     S
C1061  H289    1.110   1_565 S
C1061  H290    1.112   1_565 S
C1062  N1387   1.425   .     S
C1063  N1388   1.425   .     S
C1063  C1065   1.399   .     A
C1064  C1076   1.392   .     A
C1064  N1389   1.426   .     S
C1065  H1264   1.084   .     S
C1065  C1081   1.396   .     A
C1066  N1390   1.425   .     S
C1066  C1087   1.394   .     A
C1067  C1098   1.399   .     A
C1067  N1391   1.424   .     S
C1068  N1392   1.424   .     S
C1068  C1109   1.398   .     A
C1069  N1393   1.423   .     S
C1069  C1120   1.393   .     A
C1069  C1495   1.416   1_455 S
C1070  N1395   1.426   .     S
C1070  C1131   1.393   .     A
C1070  C1496   1.408   .     S
C1071  N1396   1.424   .     S
C1071  C1142   1.399   .     A
C1072  N1397   1.424   .     S
C1073  N1398   1.425   .     S
C1073  C23     1.421   1_565 S
C1074  N1399   1.425   .     S
C1075  N1400   1.426   .     S
C1075  C1497   1.415   1_455 S
C1076  H1284   1.083   .     S
C1076  C1574   1.399   .     S
C1077  N1401   1.425   .     S
C1077  C1498   1.415   .     S
C1078  N1402   1.423   .     S
C1079  N1403   1.425   .     S
C1079  C25     1.407   1_565 S
C1080  C1081   1.460   1_554 S
C1080  C114    1.396   1_565 S
C1081  C1080   1.460   1_556 S
C1081  C125    1.396   1_565 S
C1082  C1120   1.398   .     A
C1082  C1568   1.399   1_455 S
C1082  C1083   1.473   1_554 S
C1083  C1087   1.403   .     A
C1083  C1082   1.473   1_556 S
C1083  C1623   1.403   1_455 S
C1084  C1085   1.458   .     S
C1084  C1142   1.396   .     A
C1084  C1511   1.396   .     S
C1085  C1478   1.395   .     S
C1086  C1088   1.470   .     S
C1086  C57     1.398   1_565 S
C1087  H1295   1.083   .     S
C1088  C24     1.402   1_565 S
C1089  O1460   1.277   .     A
C1090  O1457   1.285   .     A
C1091  O1458   1.281   .     A
C1091  O1903   1.281   1_455 S
C1092  O1459   1.280   .     A
C1092  O1904   1.280   .     S
C1093  O1417   1.280   .     A
C1093  O1413   1.277   .     S
C1094  O1910   1.284   .     A
C1094  O1906   1.285   .     S
C1095  O1415   1.280   .     S
C1095  O1419   1.281   .     S
C1096  O1421   1.280   .     A
C1096  O1416   1.279   .     A
C1097  C1152   1.468   .     S
C1097  O1450   1.281   .     A
C1097  O1422   1.280   .     A
C1098  H1306   1.084   .     S
C1099  O1423   1.280   .     A
C1099  O1451   1.279   .     A
C1100  O1448   1.281   .     A
C1100  O1424   1.275   .     A
C1101  O1425   1.278   .     A
C1101  O1449   1.282   .     A
C1102  O1426   1.277   .     A
C1102  O1455   1.279   .     A
C1103  O1456   1.277   .     A
C1103  O1427   1.278   .     A
C1104  C1150   1.453   .     S
C1104  O1428   1.275   .     A
C1104  O1452   1.280   .     A
C1105  O1454   1.282   .     A
C1105  C1151   1.459   .     S
C1105  O1429   1.277   .     A
C1106  O1430   1.281   .     A
C1106  O1441   1.275   .     A
C1107  O1443   1.278   .     A
C1107  O1432   1.282   .     A
C1108  O1433   1.278   .     A
C1108  O1439   1.277   .     A
C1109  H1317   1.084   .     S
C1110  O1434   1.277   .     A
C1110  O1440   1.277   .     A
C1111  O1446   1.275   .     A
C1111  O1435   1.281   .     A
C1112  O1447   1.277   .     A
C1112  O1436   1.282   .     A
C1113  O1444   1.280   .     A
C1113  O1437   1.281   .     A
C1114  O1445   1.280   .     A
C1114  O1438   1.281   .     A
C1115  N1361   1.427   .     S
C1115  C1132   1.405   .     A
C1116  N1372   1.427   .     S
C1116  C1130   1.402   .     A
C1117  C1129   1.407   .     A
C1117  N1383   1.429   .     S
C1118  N1394   1.427   .     S
C1118  C1128   1.402   .     A
C1119  N1404   1.426   .     S
C1119  C1127   1.404   .     A
C1120  H1328   1.083   .     S
C1121  N1405   1.427   .     S
C1121  C1126   1.403   .     A
C1122  C1125   1.401   .     A
C1122  N1406   1.426   .     S
C1123  C1124   1.405   .     A
C1123  N1407   1.427   .     S
C1124  N1408   1.428   .     S
C1125  N1362   1.428   .     S
C1126  N1363   1.427   .     S
C1127  N1364   1.428   .     S
C1128  N1365   1.428   .     S
C1129  C1152   1.415   .     A
C1129  N1366   1.426   .     S
C1130  N1367   1.427   .     S
C1130  C1151   1.411   .     A
C1131  H1339   1.083   .     S
C1131  C1575   1.403   .     S
C1132  C1150   1.408   .     A
C1132  N1368   1.429   .     S
C1133  C1149   1.404   .     A
C1133  C1151   1.414   .     A
C1133  N1369   1.426   .     S
C1134  C1150   1.409   .     A
C1134  C1148   1.402   .     A
C1134  N1370   1.427   .     S
C1135  N1371   1.427   .     S
C1135  C1147   1.400   .     A
C1136  N1373   1.427   .     S
C1136  C1152   1.415   .     A
C1136  C1146   1.406   .     A
C1137  N1374   1.426   .     S
C1137  C1145   1.404   .     A
C1138  N1375   1.427   .     S
C1138  C1144   1.403   .     A
C1139  C1143   1.406   .     A
C1139  N1376   1.429   .     S
C1140  N1377   1.427   .     S
C1140  C1141   1.401   .     A
C1141  N1378   1.428   .     S
C1142  H1350   1.084   .     S
C1143  N1379   1.426   .     S
C1144  N1380   1.427   .     S
C1145  N1381   1.429   .     S
C1146  N1382   1.428   .     S
C1147  N1384   1.427   .     S
C1148  N1385   1.427   .     S
C1149  N1386   1.429   .     S
H1156  N1375   1.031   .     S
H1160  N1376   1.028   .     S
H1164  N1377   1.029   .     S
H1169  N1378   1.030   .     S
H1173  N1379   1.031   .     S
H1178  N1380   1.030   .     S
H1182  N1381   1.029   .     S
H1186  N1382   1.028   .     S
H1191  N1384   1.030   .     S
H1195  N1385   1.031   .     S
H1200  N1386   1.029   .     S
H1204  N1387   1.032   .     S
H1208  N1388   1.032   .     S
H1213  N1389   1.029   .     S
H1215  C1539   1.111   1_455 S
H1217  N1390   1.032   .     S
H1222  N1391   1.032   .     S
H1226  N1392   1.032   .     S
H1230  N1393   1.032   .     S
H1231  N1361   1.031   .     S
H1233  C1543   1.111   .     S
H1235  N1395   1.032   .     S
H1239  N1396   1.032   .     S
H1241  C1546   1.110   1_455 S
H1244  N1397   1.032   .     S
H1248  N1398   1.029   .     S
H1252  N1399   1.032   .     S
H1255  C73     1.108   1_565 S
H1256  C73     1.112   1_565 S
H1257  N1400   1.032   .     S
H1260  C1550   1.110   .     S
H1261  N1401   1.032   .     S
H1267  N1402   1.032   .     S
H1271  N1403   1.032   .     S
H1275  N1372   1.031   .     S
H1279  N1383   1.028   .     S
H1283  N1394   1.029   .     S
H1288  N1404   1.031   .     S
H1292  N1405   1.031   .     S
H1297  N1406   1.031   .     S
H1301  N1407   1.031   .     S
H1305  N1408   1.029   .     S
H1310  N1362   1.029   .     S
H1314  N1363   1.030   .     S
H1319  N1364   1.029   .     S
H1323  N1365   1.030   .     S
H1327  N1366   1.031   .     S
H1332  N1367   1.030   .     S
H1336  N1368   1.028   .     S
H1341  N1369   1.031   .     S
H1345  N1370   1.031   .     S
H1349  N1371   1.031   .     S
H1354  N1373   1.031   .     S
H1358  N1374   1.031   .     S
O1409  Zn1461  1.943   .     S
O1409  Zn1464  1.949   .     S
O1409  Zn1472  1.945   .     S
O1410  Zn1463  1.937   .     S
O1410  C106    1.286   1_565 S
O1411  Zn1466  1.936   .     S
O1411  C1583   1.281   .     S
O1412  Zn1465  1.936   .     S
O1412  C1584   1.280   1_455 S
O1413  Zn1475  1.937   .     S
O1414  Zn1474  1.937   .     S
O1414  C1586   1.285   1_455 S
O1415  Zn1469  1.937   .     S
O1416  Zn1461  1.937   .     S
O1417  Zn1471  1.937   .     S
O1418  C1586   1.284   1_455 A
O1418  Zn1470  1.937   .     S
O1419  Zn1473  1.936   .     S
O1420  Zn1473  1.945   .     S
O1420  Zn1467  1.948   .     S
O1420  Zn1469  1.943   .     S
O1421  Zn1472  1.936   .     S
O1422  Zn1464  1.942   .     S
O1423  Zn1463  1.942   .     S
O1424  Zn1466  1.936   .     S
O1425  Zn1465  1.936   .     S
O1426  Zn1468  1.943   .     S
O1427  Zn1467  1.943   .     S
O1428  Zn1462  1.936   .     S
O1429  Zn1476  1.936   .     S
O1430  Zn1463  1.934   .     S
O1431  Zn1958  1.945   1_455 S
O1431  Zn1470  1.949   .     S
O1431  Zn1462  1.943   .     S
O1431  Zn1474  1.948   .     S
O1432  Zn1464  1.934   .     S
O1433  Zn1476  1.945   .     S
O1434  Zn1462  1.945   .     S
O1435  Zn1467  1.933   .     S
O1436  Zn1468  1.933   .     S
O1437  Zn1465  1.945   .     S
O1438  Zn1466  1.945   .     S
O1439  Zn1963  1.942   .     S
O1440  Zn1470  1.942   .     S
O1441  Zn489   1.936   1_565 S
O1442  Zn1465  1.945   .     S
O1442  Zn1471  1.949   .     S
O1442  Zn1475  1.948   .     S
O1442  Zn1968  1.943   1_455 S
O1443  Zn1472  1.936   .     S
O1444  Zn1475  1.943   .     S
O1445  Zn1966  1.943   .     S
O1446  Zn1469  1.936   .     S
O1447  Zn477   1.936   1_565 S
O1448  Zn1962  1.934   .     S
O1449  Zn1471  1.934   .     S
O1450  Zn1461  1.945   .     S
O1451  Zn485   1.945   1_565 S
O1452  Zn1474  1.933   .     S
O1453  Zn1468  1.937   .     S
O1453  C105    1.279   1_565 S
O1454  Zn1967  1.933   .     S
O1455  Zn488   1.945   1_565 S
O1456  Zn1473  1.945   .     S
O1457  Zn1467  1.937   .     S
O1458  Zn1462  1.937   .     S
O1459  Zn1476  1.937   .     S
O1460  Zn1464  1.937   .     S
Zn1463 O436    1.949   1_565 S
Zn1466 O1923   1.945   .     S
Zn1468 O425    1.948   1_565 S
Zn1470 O1940   1.934   1_455 S
Zn1471 O1931   1.942   1_455 S
Zn1474 O1937   1.943   1_455 S
Zn1475 O1946   1.933   1_455 S
Zn1476 O1934   1.943   .     S
C1477  C1554   1.399   .     A
C1477  H1645   1.084   .     S
C1477  C1572   1.396   .     A
C1478  H1646   1.084   .     S
C1478  C1564   1.398   .     A
C1479  C1620   1.416   .     A
C1479  C1591   1.466   .     S
C1479  C1627   1.415   .     A
C1480  C1630   1.408   .     A
C1480  C1592   1.453   .     S
C1480  C1619   1.406   .     A
C1481  C1618   1.410   .     A
C1481  C1593   1.459   .     S
C1481  C1629   1.413   .     A
C1482  C1617   1.408   .     A
C1482  C1632   1.410   .     A
C1482  C1594   1.459   .     S
C1483  C1595   1.458   .     S
C1483  C1616   1.408   .     A
C1483  C1631   1.408   .     A
C1484  C1605   1.468   .     S
C1484  C1635   1.415   .     A
C1484  C1615   1.415   .     A
C1485  C1614   1.417   .     A
C1485  C1606   1.467   .     S
C1485  C1633   1.416   .     A
C1486  C1598   1.453   .     S
C1486  C1637   1.407   .     A
C1486  C1613   1.409   .     A
C1487  C1636   1.411   .     A
C1487  C1599   1.459   .     S
C1487  C1611   1.412   .     A
C1488  C1639   1.409   .     A
C1488  C1600   1.460   .     S
C1488  C1610   1.411   .     A
C1489  H1657   1.083   .     S
C1489  C1578   1.398   .     A
C1489  C1565   1.392   .     A
C1490  C1602   1.458   .     S
C1490  C1609   1.408   .     A
C1490  C1638   1.408   .     A
C1491  C1608   1.409   .     A
C1491  C1603   1.453   .     S
C1491  C1641   1.407   .     A
C1492  C1640   1.410   .     A
C1492  C1607   1.413   .     A
C1492  C1604   1.458   .     S
C1493  C1554   1.414   .     A
C1493  C575    1.413   1_565 S
C1493  C604    1.462   1_565 S
C1494  C603    1.466   1_565 S
C1494  C1555   1.414   .     A
C1494  C576    1.414   1_565 S
C1495  C1556   1.420   .     A
C1495  C1586   1.471   .     S
C1495  C1069   1.416   1_655 S
C1496  C1585   1.447   .     S
C1496  C1558   1.408   .     A
C1497  C1584   1.464   .     S
C1497  C1563   1.413   .     A
C1497  C1075   1.415   1_655 S
C1498  C1583   1.467   .     S
C1498  C1564   1.415   .     A
C1499  C1570   1.418   .     A
C1499  C1582   1.472   .     S
C1500  C1566   1.393   .     A
C1500  H1668   1.083   .     S
C1501  C1581   1.447   .     S
C1501  C1566   1.409   .     A
C1502  H1757   1.109   .     S
C1502  H1745   1.109   .     S
C1502  H1734   1.109   .     S
C1502  N1853   1.450   .     S
C1503  H1769   1.113   .     S
C1503  H1768   1.109   .     S
C1503  N1864   1.450   .     S
C1503  H1770   1.110   .     S
C1504  N1875   1.447   .     S
C1504  H1774   1.110   .     S
C1504  H1772   1.111   .     S
C1504  H1773   1.111   .     S
C1505  N1886   1.446   .     S
C1505  H1778   1.110   .     S
C1505  H1777   1.111   .     S
C1505  H1779   1.111   .     S
C1506  H1782   1.109   .     S
C1506  H1781   1.109   .     S
C1506  H1783   1.110   .     S
C1506  N1896   1.450   .     S
C1507  H1786   1.113   .     S
C1507  H1785   1.109   .     S
C1507  N1897   1.450   .     S
C1507  H1788   1.109   .     S
C1508  H1790   1.110   .     S
C1508  N1898   1.450   .     S
C1508  H1792   1.111   .     S
C1508  H1791   1.108   .     S
C1509  H1794   1.109   .     S
C1509  H1796   1.110   .     S
C1509  H1795   1.110   .     S
C1509  N1899   1.450   .     S
C1510  H1799   1.110   .     S
C1510  H1801   1.111   .     S
C1510  H1800   1.111   .     S
C1510  N1900   1.446   .     S
C1511  H1679   1.084   .     S
C1511  C1567   1.398   .     A
C1512  N1854   1.446   .     S
C1512  H1803   1.110   .     S
C1512  H1805   1.111   .     S
C1512  H1804   1.111   .     S
C1513  H1808   1.113   .     S
C1513  H1807   1.109   .     S
C1513  H1810   1.109   .     S
C1513  N1855   1.450   .     S
C1514  N1856   1.447   .     S
C1514  H1814   1.111   .     S
C1514  H1812   1.110   .     S
C1514  H1813   1.111   .     S
C1515  H1818   1.109   .     S
C1515  N1857   1.450   .     S
C1515  H1817   1.111   .     S
C1515  H1816   1.110   .     S
C1516  H1822   1.110   .     S
C1516  N1858   1.450   .     S
C1516  H1823   1.109   .     S
C1516  H1821   1.109   .     S
C1517  H1825   1.109   .     S
C1517  N1859   1.450   .     S
C1517  H1827   1.109   .     S
C1517  H1826   1.112   .     S
C1518  N1860   1.446   .     S
C1518  H1829   1.110   .     S
C1518  H1832   1.111   .     S
C1518  H1830   1.109   .     S
C1519  H1835   1.109   .     S
C1519  H1836   1.110   .     S
C1519  N1861   1.450   .     S
C1519  H1834   1.109   .     S
C1520  H1838   1.109   .     S
C1520  H1840   1.110   .     S
C1520  N1862   1.450   .     S
C1520  H1839   1.113   .     S
C1521  N1863   1.452   .     S
C1521  H1844   1.108   .     S
C1521  H1845   1.113   .     S
C1521  H1843   1.111   .     S
C1522  C1577   1.396   .     A
C1522  H1690   1.084   .     S
C1522  C1569   1.399   .     A
C1523  H1847   1.109   .     S
C1523  N1865   1.450   .     S
C1523  H1849   1.110   .     S
C1523  H1848   1.110   .     S
C1524  H1851   1.109   .     S
C1524  H1647   1.109   .     S
C1524  H1852   1.108   .     S
C1524  N1866   1.450   .     S
C1525  H1651   1.110   .     S
C1525  H1649   1.109   .     S
C1525  H1650   1.113   .     S
C1525  N1867   1.450   .     S
C1526  H1654   1.111   .     S
C1526  N1868   1.447   .     S
C1526  H1655   1.110   .     S
C1526  H1653   1.111   .     S
C1527  N1869   1.446   .     S
C1527  H1659   1.110   .     S
C1527  H1660   1.111   .     S
C1527  H1658   1.111   .     S
C1528  H1663   1.111   .     S
C1528  H1662   1.110   .     S
C1528  N1870   1.450   .     S
C1528  H1664   1.109   .     S
C1529  H1669   1.109   .     S
C1529  H1666   1.109   .     S
C1529  N1871   1.450   .     S
C1529  H1667   1.110   .     S
C1530  H1672   1.113   .     S
C1530  N1872   1.450   .     S
C1530  H1673   1.110   .     S
C1530  H1671   1.109   .     S
C1531  N1873   1.447   .     S
C1531  H1675   1.110   .     S
C1531  H1677   1.111   .     S
C1531  H1676   1.109   .     S
C1532  N1874   1.446   .     S
C1532  H1681   1.111   .     S
C1532  H1682   1.111   .     S
C1532  H1680   1.110   .     S
C1533  H1701   1.083   .     S
C1533  C1570   1.393   .     A
C1534  H1684   1.110   .     S
C1534  H1685   1.111   .     S
C1534  H1686   1.111   .     S
C1534  N1876   1.446   .     S
C1535  H1691   1.110   .     S
C1535  H1689   1.113   .     S
C1535  N1877   1.450   .     S
C1535  H1688   1.109   .     S
C1536  H1695   1.111   .     S
C1536  H1694   1.111   .     S
C1536  N1878   1.447   .     S
C1536  H1693   1.110   .     S
C1537  N1879   1.447   .     S
C1537  H1698   1.108   .     S
C1537  H1697   1.110   .     S
C1537  H1699   1.112   .     S
C1538  H1703   1.110   .     S
C1538  H1704   1.111   .     S
C1538  H1702   1.112   .     S
C1538  N1880   1.447   .     S
C1539  H1706   1.110   .     S
C1539  N1881   1.447   .     S
C1539  H1708   1.111   .     S
C1539  H1215   1.111   1_655 S
C1540  H1711   1.110   .     S
C1540  H1710   1.110   .     S
C1540  H1713   1.112   .     S
C1540  N1882   1.447   .     S
C1541  N1883   1.447   .     S
C1541  H1717   1.112   .     S
C1541  H1716   1.110   .     S
C1541  H1715   1.110   .     S
C1542  N1884   1.447   .     S
C1542  H1719   1.112   .     S
C1542  H1720   1.110   .     S
C1542  H1721   1.111   .     S
C1543  N1885   1.446   .     S
C1543  H1726   1.111   .     S
C1543  H1724   1.110   .     S
C1544  C1571   1.393   .     A
C1544  C1580   1.403   .     A
C1544  H1712   1.083   .     S
C1545  N1887   1.446   .     S
C1545  H1730   1.112   .     S
C1545  H1729   1.108   .     S
C1545  H1728   1.110   .     S
C1546  H1732   1.109   .     S
C1546  H1735   1.112   .     S
C1546  N1888   1.447   .     S
C1546  H1241   1.110   1_655 S
C1547  H1738   1.110   .     S
C1547  H1739   1.111   .     S
C1547  N1889   1.447   .     S
C1547  H1737   1.112   .     S
C1548  N1890   1.446   .     S
C1548  H1741   1.111   .     S
C1548  H1742   1.110   .     S
C1548  H1743   1.110   .     S
C1549  N1891   1.446   .     S
C1549  H1746   1.109   .     S
C1550  N1892   1.450   .     S
C1550  H1750   1.111   .     S
C1550  H1751   1.109   .     S
C1551  H1758   1.111   .     S
C1551  H1755   1.110   .     S
C1551  H1754   1.112   .     S
C1551  N1893   1.447   .     S
C1552  N1894   1.447   .     S
C1552  H1760   1.110   .     S
C1552  H1762   1.111   .     S
C1552  H1761   1.111   .     S
C1553  N1895   1.447   .     S
C1553  H1764   1.110   .     S
C1553  H781    1.110   1_565 S
C1553  H782    1.112   1_565 S
C1554  N1879   1.425   .     S
C1555  N1880   1.425   .     S
C1555  C1557   1.399   .     A
C1556  C1568   1.392   .     A
C1556  N1881   1.426   .     S
C1557  H1756   1.084   .     S
C1557  C1573   1.396   .     A
C1558  N1882   1.425   .     S
C1558  C1579   1.394   .     A
C1559  C1590   1.399   .     A
C1559  N1883   1.424   .     S
C1560  N1884   1.424   .     S
C1560  C1601   1.398   .     A
C1561  N1885   1.423   .     S
C1561  C1612   1.393   .     A
C1562  N1887   1.426   .     S
C1562  C1623   1.393   .     A
C1562  C1004   1.408   1_655 S
C1563  N1888   1.424   .     S
C1563  C1634   1.399   .     A
C1564  N1889   1.424   .     S
C1565  N1890   1.425   .     S
C1565  C515    1.421   1_565 S
C1566  N1891   1.425   .     S
C1567  N1892   1.426   .     S
C1568  H1776   1.083   .     S
C1568  C1082   1.399   1_655 S
C1569  N1893   1.425   .     S
C1569  C1006   1.415   1_655 S
C1570  N1894   1.423   .     S
C1571  N1895   1.425   .     S
C1571  C517    1.407   1_565 S
C1572  C1573   1.460   1_554 S
C1572  C606    1.396   1_565 S
C1573  C1572   1.460   1_556 S
C1573  C617    1.396   1_565 S
C1574  C1612   1.398   .     A
C1574  C1575   1.473   1_554 S
C1575  C1579   1.403   .     A
C1575  C1574   1.473   1_556 S
C1576  C1577   1.458   .     S
C1576  C1634   1.396   .     A
C1576  C1019   1.396   1_655 S
C1577  C986    1.395   1_655 S
C1578  C1580   1.470   .     S
C1578  C549    1.398   1_565 S
C1579  H1787   1.083   .     S
C1580  C516    1.402   1_565 S
C1581  O1952   1.277   .     A
C1582  O1949   1.285   .     A
C1583  O1950   1.281   .     A
C1584  O1951   1.280   .     A
C1584  O1412   1.280   1_655 S
C1585  O1909   1.280   .     A
C1585  O1905   1.277   .     S
C1586  O1418   1.284   1_655 A
C1586  O1414   1.285   1_655 S
C1587  O1907   1.280   .     S
C1587  O1911   1.281   .     S
C1588  O1913   1.280   .     A
C1588  O1908   1.279   .     A
C1589  C1644   1.468   .     S
C1589  O1942   1.281   .     A
C1589  O1914   1.280   .     A
C1590  H1798   1.084   .     S
C1591  O1915   1.280   .     A
C1591  O1943   1.279   .     A
C1592  O1940   1.281   .     A
C1592  O1916   1.275   .     A
C1593  O1917   1.278   .     A
C1593  O1941   1.282   .     A
C1594  O1918   1.277   .     A
C1594  O1947   1.279   .     A
C1595  O1948   1.277   .     A
C1595  O1919   1.278   .     A
C1596  C1642   1.453   .     S
C1596  O1920   1.275   .     A
C1596  O1944   1.280   .     A
C1597  O1946   1.282   .     A
C1597  C1643   1.459   .     S
C1597  O1921   1.277   .     A
C1598  O1922   1.281   .     A
C1598  O1933   1.275   .     A
C1599  O1935   1.278   .     A
C1599  O1924   1.282   .     A
C1600  O1925   1.278   .     A
C1600  O1931   1.277   .     A
C1601  H1809   1.084   .     S
C1602  O1926   1.277   .     A
C1602  O1932   1.277   .     A
C1603  O1938   1.275   .     A
C1603  O1927   1.281   .     A
C1604  O1939   1.277   .     A
C1604  O1928   1.282   .     A
C1605  O1936   1.280   .     A
C1605  O1929   1.281   .     A
C1606  O1937   1.280   .     A
C1606  O1930   1.281   .     A
C1607  N1853   1.427   .     S
C1607  C1624   1.405   .     A
C1608  N1864   1.427   .     S
C1608  C1622   1.402   .     A
C1609  C1621   1.407   .     A
C1609  N1875   1.429   .     S
C1610  N1886   1.427   .     S
C1610  C1620   1.402   .     A
C1611  N1896   1.426   .     S
C1611  C1619   1.404   .     A
C1612  H1820   1.083   .     S
C1613  N1897   1.427   .     S
C1613  C1618   1.403   .     A
C1614  C1617   1.401   .     A
C1614  N1898   1.426   .     S
C1615  C1616   1.405   .     A
C1615  N1899   1.427   .     S
C1616  N1900   1.428   .     S
C1617  N1854   1.428   .     S
C1618  N1855   1.427   .     S
C1619  N1856   1.428   .     S
C1620  N1857   1.428   .     S
C1621  C1644   1.415   .     A
C1621  N1858   1.426   .     S
C1622  N1859   1.427   .     S
C1622  C1643   1.411   .     A
C1623  H1831   1.083   .     S
C1623  C1083   1.403   1_655 S
C1624  C1642   1.408   .     A
C1624  N1860   1.429   .     S
C1625  C1641   1.404   .     A
C1625  C1643   1.414   .     A
C1625  N1861   1.426   .     S
C1626  C1642   1.409   .     A
C1626  C1640   1.402   .     A
C1626  N1862   1.427   .     S
C1627  N1863   1.427   .     S
C1627  C1639   1.400   .     A
C1628  N1865   1.427   .     S
C1628  C1644   1.415   .     A
C1628  C1638   1.406   .     A
C1629  N1866   1.426   .     S
C1629  C1637   1.404   .     A
C1630  N1867   1.427   .     S
C1630  C1636   1.403   .     A
C1631  C1635   1.406   .     A
C1631  N1868   1.429   .     S
C1632  N1869   1.427   .     S
C1632  C1633   1.401   .     A
C1633  N1870   1.428   .     S
C1634  H1842   1.084   .     S
C1635  N1871   1.426   .     S
C1636  N1872   1.427   .     S
C1637  N1873   1.429   .     S
C1638  N1874   1.428   .     S
C1639  N1876   1.427   .     S
C1640  N1877   1.427   .     S
C1641  N1878   1.429   .     S
H1648  N1867   1.031   .     S
H1652  N1868   1.028   .     S
H1656  N1869   1.029   .     S
H1661  N1870   1.030   .     S
H1665  N1871   1.031   .     S
H1670  N1872   1.030   .     S
H1674  N1873   1.029   .     S
H1678  N1874   1.028   .     S
H1683  N1876   1.030   .     S
H1687  N1877   1.031   .     S
H1692  N1878   1.029   .     S
H1696  N1879   1.032   .     S
H1700  N1880   1.032   .     S
H1705  N1881   1.029   .     S
H1709  N1882   1.032   .     S
H1714  N1883   1.032   .     S
H1718  N1884   1.032   .     S
H1722  N1885   1.032   .     S
H1723  N1853   1.031   .     S
H1725  C1051   1.111   1_655 S
H1727  N1887   1.032   .     S
H1731  N1888   1.032   .     S
H1736  N1889   1.032   .     S
H1740  N1890   1.029   .     S
H1744  N1891   1.032   .     S
H1747  C565    1.108   1_565 S
H1748  C565    1.112   1_565 S
H1749  N1892   1.032   .     S
H1752  C1058   1.110   1_655 S
H1753  N1893   1.032   .     S
H1759  N1894   1.032   .     S
H1763  N1895   1.032   .     S
H1767  N1864   1.031   .     S
H1771  N1875   1.028   .     S
H1775  N1886   1.029   .     S
H1780  N1896   1.031   .     S
H1784  N1897   1.031   .     S
H1789  N1898   1.031   .     S
H1793  N1899   1.031   .     S
H1797  N1900   1.029   .     S
H1802  N1854   1.029   .     S
H1806  N1855   1.030   .     S
H1811  N1856   1.029   .     S
H1815  N1857   1.030   .     S
H1819  N1858   1.031   .     S
H1824  N1859   1.030   .     S
H1828  N1860   1.028   .     S
H1833  N1861   1.031   .     S
H1837  N1862   1.031   .     S
H1841  N1863   1.031   .     S
H1846  N1865   1.031   .     S
H1850  N1866   1.031   .     S
O1901  Zn1953  1.943   .     S
O1901  Zn1956  1.949   .     S
O1901  Zn1964  1.945   .     S
O1902  Zn1955  1.937   .     S
O1902  C598    1.286   1_565 S
O1903  Zn1958  1.936   .     S
O1903  C1091   1.281   1_655 S
O1904  Zn1957  1.936   .     S
O1905  Zn1967  1.937   .     S
O1906  Zn1966  1.937   .     S
O1907  Zn1961  1.937   .     S
O1908  Zn1953  1.937   .     S
O1909  Zn1963  1.937   .     S
O1910  Zn1962  1.937   .     S
O1911  Zn1965  1.936   .     S
O1912  Zn1965  1.945   .     S
O1912  Zn1959  1.948   .     S
O1912  Zn1961  1.943   .     S
O1913  Zn1964  1.936   .     S
O1914  Zn1956  1.942   .     S
O1915  Zn1955  1.942   .     S
O1916  Zn1958  1.936   .     S
O1917  Zn1957  1.936   .     S
O1918  Zn1960  1.943   .     S
O1919  Zn1959  1.943   .     S
O1920  Zn1954  1.936   .     S
O1921  Zn1968  1.936   .     S
O1922  Zn1955  1.934   .     S
O1923  Zn1962  1.949   .     S
O1923  Zn1954  1.943   .     S
O1923  Zn1966  1.948   .     S
O1924  Zn1956  1.934   .     S
O1925  Zn1968  1.945   .     S
O1926  Zn1954  1.945   .     S
O1927  Zn1959  1.933   .     S
O1928  Zn1960  1.933   .     S
O1929  Zn1957  1.945   .     S
O1930  Zn1958  1.945   .     S
O1931  Zn1471  1.942   1_655 S
O1932  Zn1962  1.942   .     S
O1933  Zn981   1.936   1_565 S
O1934  Zn1957  1.945   .     S
O1934  Zn1963  1.949   .     S
O1934  Zn1967  1.948   .     S
O1935  Zn1964  1.936   .     S
O1936  Zn1967  1.943   .     S
O1937  Zn1474  1.943   1_655 S
O1938  Zn1961  1.936   .     S
O1939  Zn969   1.936   1_565 S
O1940  Zn1470  1.934   1_655 S
O1941  Zn1963  1.934   .     S
O1942  Zn1953  1.945   .     S
O1943  Zn977   1.945   1_565 S
O1944  Zn1966  1.933   .     S
O1945  Zn1960  1.937   .     S
O1945  C597    1.279   1_565 S
O1946  Zn1475  1.933   1_655 S
O1947  Zn980   1.945   1_565 S
O1948  Zn1965  1.945   .     S
O1949  Zn1959  1.937   .     S
O1950  Zn1954  1.937   .     S
O1951  Zn1968  1.937   .     S
O1952  Zn1956  1.937   .     S
Zn1955 O928    1.949   1_565 S
Zn1958 O1431   1.945   1_655 S
Zn1960 O917    1.948   1_565 S
Zn1968 O1442   1.943   1_655 S
