data_str_m1_o1_o2_pcu_sym.43
_audit_creation_date              2020-01-03
_audit_creation_method            'Materials Studio'
_symmetry_space_group_name_H-M    'P1'
_symmetry_Int_Tables_number       1
_symmetry_cell_setting            triclinic
loop_
_symmetry_equiv_pos_as_xyz
  x,y,z
_cell_length_a                    36.6785
_cell_length_b                    36.6756
_cell_length_c                    34.4495
_cell_angle_alpha                 90.0032
_cell_angle_beta                  89.9974
_cell_angle_gamma                 90.0079
loop_
_atom_site_label
_atom_site_type_symbol
_atom_site_fract_x
_atom_site_fract_y
_atom_site_fract_z
_atom_site_U_iso_or_equiv
_atom_site_adp_type
_atom_site_occupancy
C1     C     0.23420   0.47102   0.04151   0.00000  Uiso   1.00
C2     C     0.48884   0.28107   0.45836   0.00000  Uiso   1.00
C3     C     0.34805   0.40178   0.75023   0.00000  Uiso   1.00
C4     C     0.40180   0.15180   0.25000   0.00000  Uiso   1.00
C5     C     0.09807   0.34807   0.75001   0.00000  Uiso   1.00
C6     C     0.34808   0.40192   0.25000   0.00000  Uiso   1.00
C7     C     0.15180   0.09820   0.75000   0.00000  Uiso   1.00
C8     C     0.09808   0.15192   0.75000   0.00000  Uiso   1.00
C9     C     0.40180   0.34820   0.25000   0.00000  Uiso   1.00
C10    C     0.15180   0.40180   0.75000   0.00000  Uiso   1.00
C11    C     0.34807   0.09807   0.25001   0.00000  Uiso   1.00
C12    C     0.40194   0.34822   0.74977   0.00000  Uiso   1.00
C13    C     0.21896   0.01124   0.54164   0.00000  Uiso   1.00
C14    C     0.09805   0.15178   0.25023   0.00000  Uiso   1.00
C15    C     0.34820   0.09820   0.74999   0.00000  Uiso   1.00
C16    C     0.15193   0.40193   0.25000   0.00000  Uiso   1.00
C17    C     0.25000  -0.00000   0.10255   0.00000  Uiso   1.00
C18    C     0.25000  -0.00000   0.89738   0.00000  Uiso   1.00
C19    C     0.00001   0.25000   0.10262   0.00000  Uiso   1.00
C20    C     0.00000   0.25000   0.89745   0.00000  Uiso   1.00
C21    C     0.00000   0.25000   0.60255   0.00000  Uiso   1.00
C22    C    -0.00000   0.25000   0.39737   0.00000  Uiso   1.00
C23    C     0.25001  -0.00000   0.60262   0.00000  Uiso   1.00
C24    C     0.27894   0.01589   0.45849   0.00000  Uiso   1.00
C25    C     0.25000   0.00000   0.39745   0.00000  Uiso   1.00
C26    C     0.21765   0.43765   0.10225   0.00000  Uiso   1.00
C27    C     0.17616   0.44037   0.10363   0.00000  Uiso   1.00
C28    C     0.22660   0.06608   0.89728   0.00000  Uiso   1.00
C29    C     0.25927   0.08748   0.88193   0.00000  Uiso   1.00
C30    C     0.43385   0.27317   0.10273   0.00000  Uiso   1.00
C31    C     0.41254   0.24041   0.11804   0.00000  Uiso   1.00
C32    C     0.06221   0.28262   0.89775   0.00000  Uiso   1.00
C33    C     0.05930   0.32411   0.89637   0.00000  Uiso   1.00
C34    C     0.28236   0.06234   0.10225   0.00000  Uiso   1.00
C35    C     0.01594   0.27890   0.54151   0.00000  Uiso   1.00
C36    C     0.32385   0.05961   0.10362   0.00000  Uiso   1.00
C37    C     0.27339   0.43391   0.89727   0.00000  Uiso   1.00
C38    C     0.24072   0.41251   0.88191   0.00000  Uiso   1.00
C39    C     0.06617   0.22682   0.10274   0.00000  Uiso   1.00
C40    C     0.08747   0.25956   0.11808   0.00000  Uiso   1.00
C41    C     0.43779   0.21739   0.89777   0.00000  Uiso   1.00
C42    C     0.44068   0.17591   0.89638   0.00000  Uiso   1.00
C43    C     0.46737   0.18779   0.60224   0.00000  Uiso   1.00
C44    C     0.42589   0.19069   0.60362   0.00000  Uiso   1.00
C45    C     0.47695   0.31620   0.39727   0.00000  Uiso   1.00
C46    C     0.01115   0.21892   0.45835   0.00000  Uiso   1.00
C47    C     0.00975   0.33747   0.38199   0.00000  Uiso   1.00
C48    C     0.18385   0.02319   0.60273   0.00000  Uiso   1.00
C49    C     0.16254   0.49044   0.61803   0.00000  Uiso   1.00
C50    C     0.31226   0.03254   0.39775   0.00000  Uiso   1.00
C51    C     0.30942   0.07403   0.39637   0.00000  Uiso   1.00
C52    C     0.03264   0.31220   0.60224   0.00000  Uiso   1.00
C53    C     0.07412   0.30929   0.60361   0.00000  Uiso   1.00
C54    C     0.02304   0.18379   0.39725   0.00000  Uiso   1.00
C55    C     0.49025   0.16253   0.38196   0.00000  Uiso   1.00
C56    C     0.31615   0.47678   0.60274   0.00000  Uiso   1.00
C57    C     0.28106   0.48878   0.54164   0.00000  Uiso   1.00
C58    C     0.33748   0.00951   0.61809   0.00000  Uiso   1.00
C59    C     0.18776   0.46746   0.39776   0.00000  Uiso   1.00
C60    C     0.19060   0.42597   0.39639   0.00000  Uiso   1.00
C61    C     0.22108   0.48411   0.45849   0.00000  Uiso   1.00
C62    C     0.23407   0.47051   0.08207   0.00000  Uiso   1.00
C63    C     0.23852   0.03149   0.91780   0.00000  Uiso   1.00
C64    C     0.46848   0.26136   0.08221   0.00000  Uiso   1.00
C65    C     0.23867   0.03101   0.95837   0.00000  Uiso   1.00
C66    C     0.02942   0.26606   0.91793   0.00000  Uiso   1.00
C67    C     0.26593   0.02948   0.08207   0.00000  Uiso   1.00
C68    C     0.26147   0.46850   0.91779   0.00000  Uiso   1.00
C69    C     0.03155   0.23864   0.08221   0.00000  Uiso   1.00
C70    C     0.47060   0.23395   0.91794   0.00000  Uiso   1.00
C71    C     0.48394   0.22059   0.58206   0.00000  Uiso   1.00
C72    C     0.48869   0.28155   0.41779   0.00000  Uiso   1.00
C73    C     0.21848   0.01138   0.58221   0.00000  Uiso   1.00
C74    C     0.27944   0.01602   0.41793   0.00000  Uiso   1.00
C75    C     0.01607   0.27940   0.58206   0.00000  Uiso   1.00
C76    C     0.46896   0.26122   0.04164   0.00000  Uiso   1.00
C77    C     0.01130   0.21844   0.41778   0.00000  Uiso   1.00
C78    C     0.28154   0.48862   0.58221   0.00000  Uiso   1.00
C79    C     0.22058   0.48398   0.41794   0.00000  Uiso   1.00
C80    C     0.25000   0.49999   0.02123   0.00000  Uiso   1.00
C81    C     0.24999   0.49999   0.97863   0.00000  Uiso   1.00
C82    C     0.00002   0.25000   0.02137   0.00000  Uiso   1.00
C83    C     0.00001   0.25000   0.97877   0.00000  Uiso   1.00
C84    C    -0.00000   0.24999   0.52123   0.00000  Uiso   1.00
C85    C    -0.00000   0.24999   0.47862   0.00000  Uiso   1.00
C86    C     0.25001   0.00001   0.52137   0.00000  Uiso   1.00
C87    C     0.02892   0.26592   0.95849   0.00000  Uiso   1.00
C88    C     0.25001   0.00001   0.47877   0.00000  Uiso   1.00
C89    C     0.25000   0.00000   0.35508   0.00000  Uiso   1.00
C90    C     0.25000  -0.00000   0.64494   0.00000  Uiso   1.00
C91    C    -0.00000   0.25000   0.35505   0.00000  Uiso   1.00
C92    C     0.00000   0.25000   0.64492   0.00000  Uiso   1.00
C93    C     0.00000   0.25000   0.85508   0.00000  Uiso   1.00
C94    C     0.00000   0.25000   0.14494   0.00000  Uiso   1.00
C95    C     0.25000   0.00000   0.85506   0.00000  Uiso   1.00
C96    C     0.25000  -0.00000   0.14492   0.00000  Uiso   1.00
C97    C     0.18000   0.07009   0.24994   0.00000  Uiso   1.00
C98    C     0.26580   0.02897   0.04151   0.00000  Uiso   1.00
C99    C     0.32000   0.42991   0.75006   0.00000  Uiso   1.00
C100   C     0.42993   0.17993   0.25000   0.00000  Uiso   1.00
C101   C     0.07002   0.32002   0.75000   0.00000  Uiso   1.00
C102   C     0.32002   0.42998   0.25000   0.00000  Uiso   1.00
C103   C     0.17993   0.07007   0.75000   0.00000  Uiso   1.00
C104   C     0.07007   0.32007   0.25000   0.00000  Uiso   1.00
C105   C     0.42998   0.17998   0.75000   0.00000  Uiso   1.00
C106   C     0.17993   0.42993   0.75000   0.00000  Uiso   1.00
C107   C     0.32002   0.07002   0.25000   0.00000  Uiso   1.00
C108   C     0.43000   0.32009   0.74994   0.00000  Uiso   1.00
C109   C     0.26132   0.46898   0.95836   0.00000  Uiso   1.00
C110   C     0.07000   0.17991   0.25006   0.00000  Uiso   1.00
C111   C     0.32007   0.07007   0.75000   0.00000  Uiso   1.00
C112   C     0.17998   0.42998   0.25000   0.00000  Uiso   1.00
C113   C     0.07002   0.17998   0.75000   0.00000  Uiso   1.00
C114   C     0.42993   0.32007   0.25000   0.00000  Uiso   1.00
C115   C     0.11511   0.41223   0.24773   0.00000  Uiso   1.00
C116   C     0.38498   0.08808   0.75448   0.00000  Uiso   1.00
C117   C     0.08793   0.11497   0.24642   0.00000  Uiso   1.00
C118   C     0.41207   0.38504   0.75358   0.00000  Uiso   1.00
C119   C     0.38488   0.08777   0.24763   0.00000  Uiso   1.00
C120   C     0.03107   0.23879   0.04164   0.00000  Uiso   1.00
C121   C     0.11503   0.41190   0.75460   0.00000  Uiso   1.00
C122   C     0.41191   0.38498   0.24544   0.00000  Uiso   1.00
C123   C     0.08778   0.11510   0.75234   0.00000  Uiso   1.00
C124   C     0.11502   0.08809   0.75456   0.00000  Uiso   1.00
C125   C     0.38489   0.41223   0.24766   0.00000  Uiso   1.00
C126   C     0.08778   0.38489   0.75240   0.00000  Uiso   1.00
C127   C     0.41190   0.11502   0.24542   0.00000  Uiso   1.00
C128   C     0.38487   0.41218   0.75268   0.00000  Uiso   1.00
C129   C     0.11512   0.08783   0.24731   0.00000  Uiso   1.00
C130   C     0.41223   0.11511   0.75228   0.00000  Uiso   1.00
C131   C     0.47111   0.23407   0.95850   0.00000  Uiso   1.00
C132   C     0.08809   0.38498   0.24552   0.00000  Uiso   1.00
C133   C     0.36511   0.16223   0.74771   0.00000  Uiso   1.00
C134   C     0.13498   0.33808   0.25446   0.00000  Uiso   1.00
C135   C     0.33792   0.36497   0.74642   0.00000  Uiso   1.00
C136   C     0.16207   0.13504   0.25358   0.00000  Uiso   1.00
C137   C     0.13488   0.33777   0.74763   0.00000  Uiso   1.00
C138   C     0.36503   0.16190   0.25460   0.00000  Uiso   1.00
C139   C     0.16191   0.13498   0.74544   0.00000  Uiso   1.00
C140   C     0.33778   0.36510   0.25234   0.00000  Uiso   1.00
C141   C     0.36502   0.33809   0.25455   0.00000  Uiso   1.00
C142   C     0.48406   0.22109   0.54151   0.00000  Uiso   1.00
C143   C     0.13489   0.16223   0.74766   0.00000  Uiso   1.00
C144   C     0.33778   0.13489   0.25239   0.00000  Uiso   1.00
C145   C     0.16190   0.36502   0.74541   0.00000  Uiso   1.00
C146   C     0.13487   0.16218   0.25268   0.00000  Uiso   1.00
C147   C     0.36512   0.33783   0.74731   0.00000  Uiso   1.00
C148   C     0.16223   0.36511   0.25226   0.00000  Uiso   1.00
C149   C     0.33809   0.13498   0.74549   0.00000  Uiso   1.00
C150   C     0.09820   0.34820   0.24999   0.00000  Uiso   1.00
C151   C     0.40193   0.15193   0.75000   0.00000  Uiso   1.00
C152   C     0.15194   0.09822   0.24977   0.00000  Uiso   1.00
H153   H     0.22180   0.44870   0.02564   0.00000  Uiso   1.00
H154   H     0.48011   0.30500   0.47433   0.00000  Uiso   1.00
H155   H     0.13679   0.49995   0.63163   0.00000  Uiso   1.00
H156   H     0.15568   0.47164   0.59381   0.00000  Uiso   1.00
H157   H     0.19019   0.04220   0.62687   0.00000  Uiso   1.00
H158   H     0.16584   0.03848   0.58251   0.00000  Uiso   1.00
H159   H     0.33354   0.08540   0.38110   0.00000  Uiso   1.00
H160   H     0.28445   0.08245   0.38050   0.00000  Uiso   1.00
H161   H     0.30857   0.08544   0.42623   0.00000  Uiso   1.00
H162   H     0.33753   0.02478   0.41354   0.00000  Uiso   1.00
H163   H     0.31557   0.02193   0.36779   0.00000  Uiso   1.00
H164   H     0.08553   0.33340   0.61888   0.00000  Uiso   1.00
H165   H     0.19506   0.02002   0.52568   0.00000  Uiso   1.00
H166   H     0.08250   0.28431   0.61948   0.00000  Uiso   1.00
H167   H     0.08552   0.30843   0.57375   0.00000  Uiso   1.00
H168   H     0.02492   0.33748   0.58644   0.00000  Uiso   1.00
H169   H     0.02203   0.31554   0.63220   0.00000  Uiso   1.00
H170   H     0.47524   0.17850   0.35979   0.00000  Uiso   1.00
H171   H     0.49972   0.13677   0.36835   0.00000  Uiso   1.00
H172   H     0.47146   0.15570   0.40618   0.00000  Uiso   1.00
H173   H     0.04205   0.19010   0.37311   0.00000  Uiso   1.00
H174   H     0.03831   0.16575   0.41747   0.00000  Uiso   1.00
H175   H     0.32153   0.02452   0.64029   0.00000  Uiso   1.00
H176   H     0.30122   0.02836   0.47435   0.00000  Uiso   1.00
H177   H     0.36320   0.49996   0.63170   0.00000  Uiso   1.00
H178   H     0.34435   0.02833   0.59391   0.00000  Uiso   1.00
H179   H     0.30979   0.45774   0.62684   0.00000  Uiso   1.00
H180   H     0.33417   0.46150   0.58250   0.00000  Uiso   1.00
H181   H     0.16648   0.41460   0.38112   0.00000  Uiso   1.00
H182   H     0.21557   0.41756   0.38051   0.00000  Uiso   1.00
H183   H     0.19145   0.41457   0.42624   0.00000  Uiso   1.00
H184   H     0.16249   0.47522   0.41356   0.00000  Uiso   1.00
H185   H     0.18444   0.47807   0.36780   0.00000  Uiso   1.00
H186   H     0.02844   0.30116   0.52563   0.00000  Uiso   1.00
H187   H     0.01988   0.19499   0.47431   0.00000  Uiso   1.00
H188   H     0.30496   0.47999   0.52567   0.00000  Uiso   1.00
H189   H     0.19881   0.47165   0.47437   0.00000  Uiso   1.00
H190   H     0.08196   0.45188   0.26050   0.00000  Uiso   1.00
H191   H     0.41618   0.05005   0.77538   0.00000  Uiso   1.00
H192   H     0.04934   0.08395   0.22635   0.00000  Uiso   1.00
H193   H     0.22981   0.05488   0.97434   0.00000  Uiso   1.00
H194   H     0.45065   0.41608   0.77363   0.00000  Uiso   1.00
H195   H     0.41808   0.04810   0.26020   0.00000  Uiso   1.00
H196   H     0.08388   0.44989   0.77570   0.00000  Uiso   1.00
H197   H     0.44991   0.41616   0.22442   0.00000  Uiso   1.00
H198   H     0.04811   0.08189   0.73974   0.00000  Uiso   1.00
H199   H     0.08385   0.05008   0.77559   0.00000  Uiso   1.00
H200   H     0.41810   0.45190   0.26026   0.00000  Uiso   1.00
H201   H     0.04810   0.41810   0.73986   0.00000  Uiso   1.00
H202   H     0.44988   0.08385   0.22435   0.00000  Uiso   1.00
H203   H     0.41755   0.45225   0.73991   0.00000  Uiso   1.00
H204   H     0.44505   0.26999   0.02567   0.00000  Uiso   1.00
H205   H     0.08243   0.04775   0.26003   0.00000  Uiso   1.00
H206   H     0.45188   0.08194   0.73956   0.00000  Uiso   1.00
H207   H     0.05006   0.41621   0.22465   0.00000  Uiso   1.00
H208   H     0.33194   0.20189   0.76040   0.00000  Uiso   1.00
H209   H     0.16619   0.30004   0.27534   0.00000  Uiso   1.00
H210   H     0.29934   0.33395   0.72635   0.00000  Uiso   1.00
H211   H     0.20065   0.16608   0.27363   0.00000  Uiso   1.00
H212   H     0.16808   0.29809   0.76019   0.00000  Uiso   1.00
H213   H     0.33388   0.19989   0.27570   0.00000  Uiso   1.00
H214   H     0.19991   0.16616   0.72441   0.00000  Uiso   1.00
H215   H     0.05119   0.27842   0.97436   0.00000  Uiso   1.00
H216   H     0.29811   0.33189   0.23974   0.00000  Uiso   1.00
H217   H     0.33385   0.30008   0.27558   0.00000  Uiso   1.00
H218   H     0.16810   0.20190   0.76026   0.00000  Uiso   1.00
H219   H     0.29810   0.16810   0.23986   0.00000  Uiso   1.00
H220   H     0.19988   0.33385   0.72433   0.00000  Uiso   1.00
H221   H     0.16755   0.20225   0.23991   0.00000  Uiso   1.00
H222   H     0.33243   0.29774   0.76004   0.00000  Uiso   1.00
H223   H     0.20188   0.33194   0.23952   0.00000  Uiso   1.00
H224   H     0.30008   0.16618   0.72455   0.00000  Uiso   1.00
H225   H     0.16485   0.41621   0.11890   0.00000  Uiso   1.00
H226   H     0.27820   0.05129   0.02564   0.00000  Uiso   1.00
H227   H     0.16767   0.46531   0.11950   0.00000  Uiso   1.00
H228   H     0.16476   0.44118   0.07377   0.00000  Uiso   1.00
H229   H     0.22549   0.41239   0.08647   0.00000  Uiso   1.00
H230   H     0.22826   0.43437   0.13222   0.00000  Uiso   1.00
H231   H     0.27432   0.07158   0.85972   0.00000  Uiso   1.00
H232   H     0.24966   0.11320   0.86833   0.00000  Uiso   1.00
H233   H     0.27807   0.09440   0.90611   0.00000  Uiso   1.00
H234   H     0.20757   0.05968   0.87318   0.00000  Uiso   1.00
H235   H     0.21128   0.08406   0.91753   0.00000  Uiso   1.00
H236   H     0.42849   0.22538   0.14022   0.00000  Uiso   1.00
H237   H     0.27018   0.44511   0.97432   0.00000  Uiso   1.00
H238   H     0.38680   0.24993   0.13164   0.00000  Uiso   1.00
H239   H     0.40568   0.22161   0.09383   0.00000  Uiso   1.00
H240   H     0.44018   0.29218   0.12687   0.00000  Uiso   1.00
H241   H     0.41583   0.28845   0.08250   0.00000  Uiso   1.00
H242   H     0.08340   0.33552   0.88110   0.00000  Uiso   1.00
H243   H     0.03432   0.33248   0.88049   0.00000  Uiso   1.00
H244   H     0.05844   0.33551   0.92622   0.00000  Uiso   1.00
H245   H     0.08749   0.27491   0.91355   0.00000  Uiso   1.00
H246   H     0.06555   0.27201   0.86780   0.00000  Uiso   1.00
H247   H     0.33516   0.08377   0.11888   0.00000  Uiso   1.00
H248   H     0.05498   0.23002   0.02567   0.00000  Uiso   1.00
H249   H     0.33234   0.03467   0.11950   0.00000  Uiso   1.00
H250   H     0.33525   0.05879   0.07376   0.00000  Uiso   1.00
H251   H     0.27453   0.08759   0.08646   0.00000  Uiso   1.00
H252   H     0.27175   0.06562   0.13221   0.00000  Uiso   1.00
H253   H     0.22567   0.42843   0.85972   0.00000  Uiso   1.00
H254   H     0.25033   0.38680   0.86830   0.00000  Uiso   1.00
H255   H     0.22192   0.40559   0.90610   0.00000  Uiso   1.00
H256   H     0.29242   0.44031   0.87316   0.00000  Uiso   1.00
H257   H     0.28871   0.41593   0.91750   0.00000  Uiso   1.00
H258   H     0.07152   0.27458   0.14028   0.00000  Uiso   1.00
H259   H     0.44884   0.22158   0.97437   0.00000  Uiso   1.00
H260   H     0.11321   0.25003   0.13169   0.00000  Uiso   1.00
H261   H     0.09434   0.27838   0.09389   0.00000  Uiso   1.00
H262   H     0.05982   0.20779   0.12685   0.00000  Uiso   1.00
H263   H     0.08419   0.21155   0.08250   0.00000  Uiso   1.00
H264   H     0.41658   0.16451   0.88112   0.00000  Uiso   1.00
H265   H     0.46566   0.16752   0.88050   0.00000  Uiso   1.00
H266   H     0.44155   0.16450   0.92624   0.00000  Uiso   1.00
H267   H     0.41252   0.22512   0.91357   0.00000  Uiso   1.00
H268   H     0.43446   0.22800   0.86781   0.00000  Uiso   1.00
H269   H     0.41448   0.16658   0.61889   0.00000  Uiso   1.00
H270   H     0.47156   0.19883   0.52564   0.00000  Uiso   1.00
H271   H     0.41751   0.21567   0.61949   0.00000  Uiso   1.00
H272   H     0.41449   0.19155   0.57376   0.00000  Uiso   1.00
H273   H     0.47510   0.16250   0.58644   0.00000  Uiso   1.00
H274   H     0.47798   0.18446   0.63220   0.00000  Uiso   1.00
H275   H     0.02477   0.32150   0.35981   0.00000  Uiso   1.00
H276   H     0.00028   0.36322   0.36838   0.00000  Uiso   1.00
H277   H     0.02854   0.34429   0.40622   0.00000  Uiso   1.00
H278   H     0.45794   0.30990   0.37312   0.00000  Uiso   1.00
H279   H     0.46168   0.33424   0.41749   0.00000  Uiso   1.00
H280   H     0.17848   0.47540   0.64021   0.00000  Uiso   1.00
O281   O     0.25000   0.00000   0.25000   0.00000  Uiso   1.00
O282   O     0.25000   0.46964   0.66317   0.00000  Uiso   1.00
O283   O     0.46964   0.25000   0.33683   0.00000  Uiso   1.00
O284   O     0.03036   0.25000   0.66317   0.00000  Uiso   1.00
O285   O    -0.00000   0.21964   0.83683   0.00000  Uiso   1.00
O286   O     0.00000   0.28036   0.16317   0.00000  Uiso   1.00
O287   O     0.28036   0.00000   0.83683   0.00000  Uiso   1.00
O288   O     0.21964   0.00000   0.16317   0.00000  Uiso   1.00
O289   O     0.00000   0.28036   0.83683   0.00000  Uiso   1.00
O290   O     0.00000   0.21964   0.16317   0.00000  Uiso   1.00
O291   O     0.21964  -0.00000   0.83683   0.00000  Uiso   1.00
O292   O     0.25000   0.00000   0.75000   0.00000  Uiso   1.00
O293   O     0.28036   0.00000   0.16317   0.00000  Uiso   1.00
O294   O     0.20725   0.07307   0.27282   0.00000  Uiso   1.00
O295   O     0.29274   0.42693   0.72718   0.00000  Uiso   1.00
O296   O     0.42693   0.20726   0.27282   0.00000  Uiso   1.00
O297   O     0.07307   0.29274   0.72718   0.00000  Uiso   1.00
O298   O     0.29274   0.42693   0.27282   0.00000  Uiso   1.00
O299   O     0.20725   0.07307   0.72718   0.00000  Uiso   1.00
O300   O     0.07307   0.29274   0.27282   0.00000  Uiso   1.00
O301   O     0.42693   0.20726   0.72718   0.00000  Uiso   1.00
O302   O     0.20725   0.42693   0.72718   0.00000  Uiso   1.00
O303   O     0.00000   0.25000   0.25000   0.00000  Uiso   1.00
O304   O     0.29274   0.07307   0.27282   0.00000  Uiso   1.00
O305   O     0.42693   0.29275   0.72718   0.00000  Uiso   1.00
O306   O     0.07307   0.20725   0.27282   0.00000  Uiso   1.00
O307   O     0.29274   0.07307   0.72718   0.00000  Uiso   1.00
O308   O     0.20725   0.42693   0.27282   0.00000  Uiso   1.00
O309   O     0.07307   0.20725   0.72718   0.00000  Uiso   1.00
O310   O     0.42693   0.29275   0.27282   0.00000  Uiso   1.00
O311   O     0.45725   0.32307   0.77282   0.00000  Uiso   1.00
O312   O     0.04274   0.17693   0.22718   0.00000  Uiso   1.00
O313   O     0.17693   0.45725   0.77282   0.00000  Uiso   1.00
O314   O    -0.00000   0.25000   0.75000   0.00000  Uiso   1.00
O315   O     0.32307   0.04275   0.22718   0.00000  Uiso   1.00
O316   O     0.04274   0.17693   0.77282   0.00000  Uiso   1.00
O317   O     0.45725   0.32307   0.22718   0.00000  Uiso   1.00
O318   O     0.32307   0.04275   0.77282   0.00000  Uiso   1.00
O319   O     0.17693   0.45725   0.22718   0.00000  Uiso   1.00
O320   O     0.45725   0.17693   0.22718   0.00000  Uiso   1.00
O321   O     0.04274   0.32307   0.77282   0.00000  Uiso   1.00
O322   O     0.17693   0.04275   0.22718   0.00000  Uiso   1.00
O323   O     0.32307   0.45726   0.77282   0.00000  Uiso   1.00
O324   O     0.04274   0.32307   0.22718   0.00000  Uiso   1.00
O325   O     0.25000   0.46964   0.33683   0.00000  Uiso   1.00
O326   O     0.45725   0.17693   0.77282   0.00000  Uiso   1.00
O327   O     0.32307   0.45726   0.22718   0.00000  Uiso   1.00
O328   O     0.17693   0.04275   0.77282   0.00000  Uiso   1.00
O329   O     0.10649   0.44892   0.24890   0.00000  Uiso   1.00
O330   O     0.39348   0.05172   0.75992   0.00000  Uiso   1.00
O331   O     0.05144   0.10642   0.24214   0.00000  Uiso   1.00
O332   O     0.44855   0.39359   0.75786   0.00000  Uiso   1.00
O333   O     0.39352   0.05108   0.24870   0.00000  Uiso   1.00
O334   O     0.10654   0.44825   0.76015   0.00000  Uiso   1.00
O335   O     0.44826   0.39348   0.23993   0.00000  Uiso   1.00
O336   O     0.25000   0.03036   0.66317   0.00000  Uiso   1.00
O337   O     0.05109   0.10646   0.75124   0.00000  Uiso   1.00
O338   O     0.10653   0.05173   0.76007   0.00000  Uiso   1.00
O339   O     0.39353   0.44892   0.24876   0.00000  Uiso   1.00
O340   O     0.05109   0.39352   0.75134   0.00000  Uiso   1.00
O341   O     0.44825   0.10653   0.23987   0.00000  Uiso   1.00
O342   O     0.39336   0.44892   0.75217   0.00000  Uiso   1.00
O343   O     0.10663   0.05108   0.24779   0.00000  Uiso   1.00
O344   O     0.44892   0.10648   0.75112   0.00000  Uiso   1.00
O345   O     0.05173   0.39348   0.24008   0.00000  Uiso   1.00
O346   O     0.35648   0.19892   0.74886   0.00000  Uiso   1.00
O347   O     0.03036   0.25000   0.33683   0.00000  Uiso   1.00
O348   O     0.14348   0.30172   0.25988   0.00000  Uiso   1.00
O349   O     0.30144   0.35642   0.74214   0.00000  Uiso   1.00
O350   O     0.19855   0.14359   0.25786   0.00000  Uiso   1.00
O351   O     0.14352   0.30108   0.74870   0.00000  Uiso   1.00
O352   O     0.35654   0.19825   0.26015   0.00000  Uiso   1.00
O353   O     0.19826   0.14348   0.73993   0.00000  Uiso   1.00
O354   O     0.30109   0.35646   0.25124   0.00000  Uiso   1.00
O355   O     0.35653   0.30173   0.26006   0.00000  Uiso   1.00
O356   O     0.14353   0.19892   0.74876   0.00000  Uiso   1.00
O357   O     0.30109   0.14352   0.25134   0.00000  Uiso   1.00
O358   O     0.46964   0.25000   0.66317   0.00000  Uiso   1.00
O359   O     0.19825   0.35653   0.73986   0.00000  Uiso   1.00
O360   O     0.14336   0.19892   0.25217   0.00000  Uiso   1.00
O361   O     0.35663   0.30108   0.74779   0.00000  Uiso   1.00
O362   O     0.19892   0.35648   0.25108   0.00000  Uiso   1.00
O363   O     0.30174   0.14348   0.74004   0.00000  Uiso   1.00
O364   O     0.25000   0.03036   0.33683   0.00000  Uiso   1.00
Zn365  Zn    0.20660   0.00000   0.21760   0.00000  Uiso   1.00
Zn366  Zn    0.04340   0.25000   0.28240   0.00000  Uiso   1.00
Zn367  Zn    0.25000   0.45660   0.71760   0.00000  Uiso   1.00
Zn368  Zn    0.25000   0.04340   0.28240   0.00000  Uiso   1.00
Zn369  Zn    0.04340   0.25000   0.71760   0.00000  Uiso   1.00
Zn370  Zn    0.45660   0.25000   0.28240   0.00000  Uiso   1.00
Zn371  Zn    0.25000   0.04340   0.71760   0.00000  Uiso   1.00
Zn372  Zn    0.25000   0.45660   0.28240   0.00000  Uiso   1.00
Zn373  Zn    0.29340   0.00000   0.78240   0.00000  Uiso   1.00
Zn374  Zn    0.00000   0.20660   0.21760   0.00000  Uiso   1.00
Zn375  Zn    0.00000   0.29340   0.78240   0.00000  Uiso   1.00
Zn376  Zn    0.29340   0.00000   0.21760   0.00000  Uiso   1.00
Zn377  Zn    0.20660   0.00000   0.78240   0.00000  Uiso   1.00
Zn378  Zn    0.00000   0.29340   0.21760   0.00000  Uiso   1.00
Zn379  Zn    0.00000   0.20660   0.78240   0.00000  Uiso   1.00
Zn380  Zn    0.45660   0.25000   0.71760   0.00000  Uiso   1.00
C381   C     0.73420   0.47102   0.04151   0.00000  Uiso   1.00
C382   C     0.98884   0.28107   0.45836   0.00000  Uiso   1.00
C383   C     0.84805   0.40178   0.75023   0.00000  Uiso   1.00
C384   C     0.90180   0.15180   0.25000   0.00000  Uiso   1.00
C385   C     0.59807   0.34807   0.75001   0.00000  Uiso   1.00
C386   C     0.84808   0.40192   0.25000   0.00000  Uiso   1.00
C387   C     0.65180   0.09820   0.75000   0.00000  Uiso   1.00
C388   C     0.59808   0.15192   0.75000   0.00000  Uiso   1.00
C389   C     0.90180   0.34820   0.25000   0.00000  Uiso   1.00
C390   C     0.65180   0.40180   0.75000   0.00000  Uiso   1.00
C391   C     0.84807   0.09807   0.25001   0.00000  Uiso   1.00
C392   C     0.90194   0.34822   0.74977   0.00000  Uiso   1.00
C393   C     0.71896   0.01124   0.54164   0.00000  Uiso   1.00
C394   C     0.59805   0.15178   0.25023   0.00000  Uiso   1.00
C395   C     0.84820   0.09820   0.74999   0.00000  Uiso   1.00
C396   C     0.65193   0.40193   0.25000   0.00000  Uiso   1.00
C397   C     0.75000  -0.00000   0.10255   0.00000  Uiso   1.00
C398   C     0.75000  -0.00000   0.89738   0.00000  Uiso   1.00
C399   C     0.50001   0.25000   0.10262   0.00000  Uiso   1.00
C400   C     0.50000   0.25000   0.89745   0.00000  Uiso   1.00
C401   C     0.50000   0.25000   0.60255   0.00000  Uiso   1.00
C402   C     0.50000   0.25000   0.39737   0.00000  Uiso   1.00
C403   C     0.75001  -0.00000   0.60262   0.00000  Uiso   1.00
C404   C     0.77894   0.01589   0.45849   0.00000  Uiso   1.00
C405   C     0.75000   0.00000   0.39745   0.00000  Uiso   1.00
C406   C     0.71765   0.43765   0.10225   0.00000  Uiso   1.00
C407   C     0.67616   0.44037   0.10363   0.00000  Uiso   1.00
C408   C     0.72660   0.06608   0.89728   0.00000  Uiso   1.00
C409   C     0.75927   0.08748   0.88193   0.00000  Uiso   1.00
C410   C     0.93385   0.27317   0.10273   0.00000  Uiso   1.00
C411   C     0.91254   0.24041   0.11804   0.00000  Uiso   1.00
C412   C     0.56221   0.28262   0.89775   0.00000  Uiso   1.00
C413   C     0.55930   0.32411   0.89637   0.00000  Uiso   1.00
C414   C     0.78236   0.06234   0.10225   0.00000  Uiso   1.00
C415   C     0.51594   0.27890   0.54151   0.00000  Uiso   1.00
C416   C     0.82385   0.05961   0.10362   0.00000  Uiso   1.00
C417   C     0.77339   0.43391   0.89727   0.00000  Uiso   1.00
C418   C     0.74072   0.41251   0.88191   0.00000  Uiso   1.00
C419   C     0.56617   0.22682   0.10274   0.00000  Uiso   1.00
C420   C     0.58747   0.25956   0.11808   0.00000  Uiso   1.00
C421   C     0.93779   0.21739   0.89777   0.00000  Uiso   1.00
C422   C     0.94068   0.17591   0.89638   0.00000  Uiso   1.00
C423   C     0.96737   0.18779   0.60224   0.00000  Uiso   1.00
C424   C     0.92589   0.19069   0.60362   0.00000  Uiso   1.00
C425   C     0.97695   0.31620   0.39727   0.00000  Uiso   1.00
C426   C     0.51115   0.21892   0.45835   0.00000  Uiso   1.00
C427   C     0.50975   0.33747   0.38199   0.00000  Uiso   1.00
C428   C     0.68385   0.02319   0.60273   0.00000  Uiso   1.00
C429   C     0.66254   0.49044   0.61803   0.00000  Uiso   1.00
C430   C     0.81226   0.03254   0.39775   0.00000  Uiso   1.00
C431   C     0.80942   0.07403   0.39637   0.00000  Uiso   1.00
C432   C     0.53264   0.31220   0.60224   0.00000  Uiso   1.00
C433   C     0.57412   0.30929   0.60361   0.00000  Uiso   1.00
C434   C     0.52304   0.18379   0.39725   0.00000  Uiso   1.00
C435   C     0.99025   0.16253   0.38196   0.00000  Uiso   1.00
C436   C     0.81615   0.47678   0.60274   0.00000  Uiso   1.00
C437   C     0.78106   0.48878   0.54164   0.00000  Uiso   1.00
C438   C     0.83748   0.00951   0.61809   0.00000  Uiso   1.00
C439   C     0.68776   0.46746   0.39776   0.00000  Uiso   1.00
C440   C     0.69060   0.42597   0.39639   0.00000  Uiso   1.00
C441   C     0.72108   0.48411   0.45849   0.00000  Uiso   1.00
C442   C     0.73407   0.47051   0.08207   0.00000  Uiso   1.00
C443   C     0.73852   0.03149   0.91780   0.00000  Uiso   1.00
C444   C     0.96848   0.26136   0.08221   0.00000  Uiso   1.00
C445   C     0.73867   0.03101   0.95837   0.00000  Uiso   1.00
C446   C     0.52942   0.26606   0.91793   0.00000  Uiso   1.00
C447   C     0.76593   0.02948   0.08207   0.00000  Uiso   1.00
C448   C     0.76147   0.46850   0.91779   0.00000  Uiso   1.00
C449   C     0.53155   0.23864   0.08221   0.00000  Uiso   1.00
C450   C     0.97060   0.23395   0.91794   0.00000  Uiso   1.00
C451   C     0.98394   0.22059   0.58206   0.00000  Uiso   1.00
C452   C     0.98869   0.28155   0.41779   0.00000  Uiso   1.00
C453   C     0.71848   0.01138   0.58221   0.00000  Uiso   1.00
C454   C     0.77944   0.01602   0.41793   0.00000  Uiso   1.00
C455   C     0.51607   0.27940   0.58206   0.00000  Uiso   1.00
C456   C     0.96896   0.26122   0.04164   0.00000  Uiso   1.00
C457   C     0.51130   0.21844   0.41778   0.00000  Uiso   1.00
C458   C     0.78154   0.48862   0.58221   0.00000  Uiso   1.00
C459   C     0.72058   0.48398   0.41794   0.00000  Uiso   1.00
C460   C     0.75000   0.49999   0.02123   0.00000  Uiso   1.00
C461   C     0.74999   0.49999   0.97863   0.00000  Uiso   1.00
C462   C     0.50002   0.25000   0.02137   0.00000  Uiso   1.00
C463   C     0.50001   0.25000   0.97877   0.00000  Uiso   1.00
C464   C     0.50000   0.24999   0.52123   0.00000  Uiso   1.00
C465   C     0.50000   0.24999   0.47862   0.00000  Uiso   1.00
C466   C     0.75001   0.00001   0.52137   0.00000  Uiso   1.00
C467   C     0.52892   0.26592   0.95849   0.00000  Uiso   1.00
C468   C     0.75001   0.00001   0.47877   0.00000  Uiso   1.00
C469   C     0.75000   0.00000   0.35508   0.00000  Uiso   1.00
C470   C     0.75000  -0.00000   0.64494   0.00000  Uiso   1.00
C471   C     0.50000   0.25000   0.35505   0.00000  Uiso   1.00
C472   C     0.50000   0.25000   0.64492   0.00000  Uiso   1.00
C473   C     0.50000   0.25000   0.85508   0.00000  Uiso   1.00
C474   C     0.50000   0.25000   0.14494   0.00000  Uiso   1.00
C475   C     0.75000   0.00000   0.85506   0.00000  Uiso   1.00
C476   C     0.75000  -0.00000   0.14492   0.00000  Uiso   1.00
C477   C     0.68000   0.07009   0.24994   0.00000  Uiso   1.00
C478   C     0.76580   0.02897   0.04151   0.00000  Uiso   1.00
C479   C     0.82000   0.42991   0.75006   0.00000  Uiso   1.00
C480   C     0.92993   0.17993   0.25000   0.00000  Uiso   1.00
C481   C     0.57002   0.32002   0.75000   0.00000  Uiso   1.00
C482   C     0.82002   0.42998   0.25000   0.00000  Uiso   1.00
C483   C     0.67993   0.07007   0.75000   0.00000  Uiso   1.00
C484   C     0.57007   0.32007   0.25000   0.00000  Uiso   1.00
C485   C     0.92998   0.17998   0.75000   0.00000  Uiso   1.00
C486   C     0.67993   0.42993   0.75000   0.00000  Uiso   1.00
C487   C     0.82002   0.07002   0.25000   0.00000  Uiso   1.00
C488   C     0.93000   0.32009   0.74994   0.00000  Uiso   1.00
C489   C     0.76132   0.46898   0.95836   0.00000  Uiso   1.00
C490   C     0.57000   0.17991   0.25006   0.00000  Uiso   1.00
C491   C     0.82007   0.07007   0.75000   0.00000  Uiso   1.00
C492   C     0.67998   0.42998   0.25000   0.00000  Uiso   1.00
C493   C     0.57002   0.17998   0.75000   0.00000  Uiso   1.00
C494   C     0.92993   0.32007   0.25000   0.00000  Uiso   1.00
C495   C     0.61511   0.41223   0.24773   0.00000  Uiso   1.00
C496   C     0.88498   0.08808   0.75448   0.00000  Uiso   1.00
C497   C     0.58793   0.11497   0.24642   0.00000  Uiso   1.00
C498   C     0.91207   0.38504   0.75358   0.00000  Uiso   1.00
C499   C     0.88488   0.08777   0.24763   0.00000  Uiso   1.00
C500   C     0.53107   0.23879   0.04164   0.00000  Uiso   1.00
C501   C     0.61503   0.41190   0.75460   0.00000  Uiso   1.00
C502   C     0.91191   0.38498   0.24544   0.00000  Uiso   1.00
C503   C     0.58778   0.11510   0.75234   0.00000  Uiso   1.00
C504   C     0.61502   0.08809   0.75456   0.00000  Uiso   1.00
C505   C     0.88489   0.41223   0.24766   0.00000  Uiso   1.00
C506   C     0.58778   0.38489   0.75240   0.00000  Uiso   1.00
C507   C     0.91190   0.11502   0.24542   0.00000  Uiso   1.00
C508   C     0.88487   0.41218   0.75268   0.00000  Uiso   1.00
C509   C     0.61512   0.08783   0.24731   0.00000  Uiso   1.00
C510   C     0.91223   0.11511   0.75228   0.00000  Uiso   1.00
C511   C     0.97111   0.23407   0.95850   0.00000  Uiso   1.00
C512   C     0.58809   0.38498   0.24552   0.00000  Uiso   1.00
C513   C     0.86511   0.16223   0.74771   0.00000  Uiso   1.00
C514   C     0.63498   0.33808   0.25446   0.00000  Uiso   1.00
C515   C     0.83792   0.36497   0.74642   0.00000  Uiso   1.00
C516   C     0.66207   0.13504   0.25358   0.00000  Uiso   1.00
C517   C     0.63488   0.33777   0.74763   0.00000  Uiso   1.00
C518   C     0.86503   0.16190   0.25460   0.00000  Uiso   1.00
C519   C     0.66191   0.13498   0.74544   0.00000  Uiso   1.00
C520   C     0.83778   0.36510   0.25234   0.00000  Uiso   1.00
C521   C     0.86502   0.33809   0.25455   0.00000  Uiso   1.00
C522   C     0.98406   0.22109   0.54151   0.00000  Uiso   1.00
C523   C     0.63489   0.16223   0.74766   0.00000  Uiso   1.00
C524   C     0.83778   0.13489   0.25239   0.00000  Uiso   1.00
C525   C     0.66190   0.36502   0.74541   0.00000  Uiso   1.00
C526   C     0.63487   0.16218   0.25268   0.00000  Uiso   1.00
C527   C     0.86512   0.33783   0.74731   0.00000  Uiso   1.00
C528   C     0.66223   0.36511   0.25226   0.00000  Uiso   1.00
C529   C     0.83809   0.13498   0.74549   0.00000  Uiso   1.00
C530   C     0.59820   0.34820   0.24999   0.00000  Uiso   1.00
C531   C     0.90193   0.15193   0.75000   0.00000  Uiso   1.00
C532   C     0.65194   0.09822   0.24977   0.00000  Uiso   1.00
H533   H     0.72180   0.44870   0.02564   0.00000  Uiso   1.00
H534   H     0.98011   0.30500   0.47433   0.00000  Uiso   1.00
H535   H     0.63679   0.49995   0.63163   0.00000  Uiso   1.00
H536   H     0.65568   0.47164   0.59381   0.00000  Uiso   1.00
H537   H     0.69019   0.04220   0.62687   0.00000  Uiso   1.00
H538   H     0.66584   0.03848   0.58251   0.00000  Uiso   1.00
H539   H     0.83354   0.08540   0.38110   0.00000  Uiso   1.00
H540   H     0.78445   0.08245   0.38050   0.00000  Uiso   1.00
H541   H     0.80857   0.08544   0.42623   0.00000  Uiso   1.00
H542   H     0.83753   0.02478   0.41354   0.00000  Uiso   1.00
H543   H     0.81557   0.02193   0.36779   0.00000  Uiso   1.00
H544   H     0.58553   0.33340   0.61888   0.00000  Uiso   1.00
H545   H     0.69506   0.02002   0.52568   0.00000  Uiso   1.00
H546   H     0.58250   0.28431   0.61948   0.00000  Uiso   1.00
H547   H     0.58552   0.30843   0.57375   0.00000  Uiso   1.00
H548   H     0.52492   0.33748   0.58644   0.00000  Uiso   1.00
H549   H     0.52203   0.31554   0.63220   0.00000  Uiso   1.00
H550   H     0.97524   0.17850   0.35979   0.00000  Uiso   1.00
H551   H     0.99972   0.13677   0.36835   0.00000  Uiso   1.00
H552   H     0.97146   0.15570   0.40618   0.00000  Uiso   1.00
H553   H     0.54205   0.19010   0.37311   0.00000  Uiso   1.00
H554   H     0.53831   0.16575   0.41747   0.00000  Uiso   1.00
H555   H     0.82153   0.02452   0.64029   0.00000  Uiso   1.00
H556   H     0.80122   0.02836   0.47435   0.00000  Uiso   1.00
H557   H     0.86320   0.49996   0.63170   0.00000  Uiso   1.00
H558   H     0.84435   0.02833   0.59391   0.00000  Uiso   1.00
H559   H     0.80979   0.45774   0.62684   0.00000  Uiso   1.00
H560   H     0.83417   0.46150   0.58250   0.00000  Uiso   1.00
H561   H     0.66648   0.41460   0.38112   0.00000  Uiso   1.00
H562   H     0.71557   0.41756   0.38051   0.00000  Uiso   1.00
H563   H     0.69145   0.41457   0.42624   0.00000  Uiso   1.00
H564   H     0.66249   0.47522   0.41356   0.00000  Uiso   1.00
H565   H     0.68444   0.47807   0.36780   0.00000  Uiso   1.00
H566   H     0.52844   0.30116   0.52563   0.00000  Uiso   1.00
H567   H     0.51988   0.19499   0.47431   0.00000  Uiso   1.00
H568   H     0.80496   0.47999   0.52567   0.00000  Uiso   1.00
H569   H     0.69881   0.47165   0.47437   0.00000  Uiso   1.00
H570   H     0.58196   0.45188   0.26050   0.00000  Uiso   1.00
H571   H     0.91618   0.05005   0.77538   0.00000  Uiso   1.00
H572   H     0.54934   0.08395   0.22635   0.00000  Uiso   1.00
H573   H     0.72981   0.05488   0.97434   0.00000  Uiso   1.00
H574   H     0.95065   0.41608   0.77363   0.00000  Uiso   1.00
H575   H     0.91808   0.04810   0.26020   0.00000  Uiso   1.00
H576   H     0.58388   0.44989   0.77570   0.00000  Uiso   1.00
H577   H     0.94991   0.41616   0.22442   0.00000  Uiso   1.00
H578   H     0.54811   0.08189   0.73974   0.00000  Uiso   1.00
H579   H     0.58385   0.05008   0.77559   0.00000  Uiso   1.00
H580   H     0.91810   0.45190   0.26026   0.00000  Uiso   1.00
H581   H     0.54810   0.41810   0.73986   0.00000  Uiso   1.00
H582   H     0.94988   0.08385   0.22435   0.00000  Uiso   1.00
H583   H     0.91755   0.45225   0.73991   0.00000  Uiso   1.00
H584   H     0.94505   0.26999   0.02567   0.00000  Uiso   1.00
H585   H     0.58243   0.04775   0.26003   0.00000  Uiso   1.00
H586   H     0.95188   0.08194   0.73956   0.00000  Uiso   1.00
H587   H     0.55006   0.41621   0.22465   0.00000  Uiso   1.00
H588   H     0.83194   0.20189   0.76040   0.00000  Uiso   1.00
H589   H     0.66619   0.30004   0.27534   0.00000  Uiso   1.00
H590   H     0.79934   0.33395   0.72635   0.00000  Uiso   1.00
H591   H     0.70065   0.16608   0.27363   0.00000  Uiso   1.00
H592   H     0.66808   0.29809   0.76019   0.00000  Uiso   1.00
H593   H     0.83388   0.19989   0.27570   0.00000  Uiso   1.00
H594   H     0.69991   0.16616   0.72441   0.00000  Uiso   1.00
H595   H     0.55119   0.27842   0.97436   0.00000  Uiso   1.00
H596   H     0.79811   0.33189   0.23974   0.00000  Uiso   1.00
H597   H     0.83385   0.30008   0.27558   0.00000  Uiso   1.00
H598   H     0.66810   0.20190   0.76026   0.00000  Uiso   1.00
H599   H     0.79810   0.16810   0.23986   0.00000  Uiso   1.00
H600   H     0.69988   0.33385   0.72433   0.00000  Uiso   1.00
H601   H     0.66755   0.20225   0.23991   0.00000  Uiso   1.00
H602   H     0.83243   0.29774   0.76004   0.00000  Uiso   1.00
H603   H     0.70188   0.33194   0.23952   0.00000  Uiso   1.00
H604   H     0.80008   0.16618   0.72455   0.00000  Uiso   1.00
H605   H     0.66485   0.41621   0.11890   0.00000  Uiso   1.00
H606   H     0.77820   0.05129   0.02564   0.00000  Uiso   1.00
H607   H     0.66767   0.46531   0.11950   0.00000  Uiso   1.00
H608   H     0.66476   0.44118   0.07377   0.00000  Uiso   1.00
H609   H     0.72549   0.41239   0.08647   0.00000  Uiso   1.00
H610   H     0.72826   0.43437   0.13222   0.00000  Uiso   1.00
H611   H     0.77432   0.07158   0.85972   0.00000  Uiso   1.00
H612   H     0.74966   0.11320   0.86833   0.00000  Uiso   1.00
H613   H     0.77807   0.09440   0.90611   0.00000  Uiso   1.00
H614   H     0.70757   0.05968   0.87318   0.00000  Uiso   1.00
H615   H     0.71128   0.08406   0.91753   0.00000  Uiso   1.00
H616   H     0.92849   0.22538   0.14022   0.00000  Uiso   1.00
H617   H     0.77018   0.44511   0.97432   0.00000  Uiso   1.00
H618   H     0.88680   0.24993   0.13164   0.00000  Uiso   1.00
H619   H     0.90568   0.22161   0.09383   0.00000  Uiso   1.00
H620   H     0.94018   0.29218   0.12687   0.00000  Uiso   1.00
H621   H     0.91583   0.28845   0.08250   0.00000  Uiso   1.00
H622   H     0.58340   0.33552   0.88110   0.00000  Uiso   1.00
H623   H     0.53432   0.33248   0.88049   0.00000  Uiso   1.00
H624   H     0.55844   0.33551   0.92622   0.00000  Uiso   1.00
H625   H     0.58749   0.27491   0.91355   0.00000  Uiso   1.00
H626   H     0.56555   0.27201   0.86780   0.00000  Uiso   1.00
H627   H     0.83516   0.08377   0.11888   0.00000  Uiso   1.00
H628   H     0.55498   0.23002   0.02567   0.00000  Uiso   1.00
H629   H     0.83234   0.03467   0.11950   0.00000  Uiso   1.00
H630   H     0.83525   0.05879   0.07376   0.00000  Uiso   1.00
H631   H     0.77453   0.08759   0.08646   0.00000  Uiso   1.00
H632   H     0.77175   0.06562   0.13221   0.00000  Uiso   1.00
H633   H     0.72567   0.42843   0.85972   0.00000  Uiso   1.00
H634   H     0.75033   0.38680   0.86830   0.00000  Uiso   1.00
H635   H     0.72192   0.40559   0.90610   0.00000  Uiso   1.00
H636   H     0.79242   0.44031   0.87316   0.00000  Uiso   1.00
H637   H     0.78871   0.41593   0.91750   0.00000  Uiso   1.00
H638   H     0.57152   0.27458   0.14028   0.00000  Uiso   1.00
H639   H     0.94884   0.22158   0.97437   0.00000  Uiso   1.00
H640   H     0.61321   0.25003   0.13169   0.00000  Uiso   1.00
H641   H     0.59434   0.27838   0.09389   0.00000  Uiso   1.00
H642   H     0.55982   0.20779   0.12685   0.00000  Uiso   1.00
H643   H     0.58419   0.21155   0.08250   0.00000  Uiso   1.00
H644   H     0.91658   0.16451   0.88112   0.00000  Uiso   1.00
H645   H     0.96566   0.16752   0.88050   0.00000  Uiso   1.00
H646   H     0.94155   0.16450   0.92624   0.00000  Uiso   1.00
H647   H     0.91252   0.22512   0.91357   0.00000  Uiso   1.00
H648   H     0.93446   0.22800   0.86781   0.00000  Uiso   1.00
H649   H     0.91448   0.16658   0.61889   0.00000  Uiso   1.00
H650   H     0.97156   0.19883   0.52564   0.00000  Uiso   1.00
H651   H     0.91751   0.21567   0.61949   0.00000  Uiso   1.00
H652   H     0.91449   0.19155   0.57376   0.00000  Uiso   1.00
H653   H     0.97510   0.16250   0.58644   0.00000  Uiso   1.00
H654   H     0.97798   0.18446   0.63220   0.00000  Uiso   1.00
H655   H     0.52477   0.32150   0.35981   0.00000  Uiso   1.00
H656   H     0.50028   0.36322   0.36838   0.00000  Uiso   1.00
H657   H     0.52854   0.34429   0.40622   0.00000  Uiso   1.00
H658   H     0.95794   0.30990   0.37312   0.00000  Uiso   1.00
H659   H     0.96168   0.33424   0.41749   0.00000  Uiso   1.00
H660   H     0.67848   0.47540   0.64021   0.00000  Uiso   1.00
O661   O     0.75000   0.00000   0.25000   0.00000  Uiso   1.00
O662   O     0.75000   0.46964   0.66317   0.00000  Uiso   1.00
O663   O     0.96964   0.25000   0.33683   0.00000  Uiso   1.00
O664   O     0.53036   0.25000   0.66317   0.00000  Uiso   1.00
O665   O     0.50000   0.21964   0.83683   0.00000  Uiso   1.00
O666   O     0.50000   0.28036   0.16317   0.00000  Uiso   1.00
O667   O     0.78036   0.00000   0.83683   0.00000  Uiso   1.00
O668   O     0.71964   0.00000   0.16317   0.00000  Uiso   1.00
O669   O     0.50000   0.28036   0.83683   0.00000  Uiso   1.00
O670   O     0.50000   0.21964   0.16317   0.00000  Uiso   1.00
O671   O     0.71964  -0.00000   0.83683   0.00000  Uiso   1.00
O672   O     0.75000   0.00000   0.75000   0.00000  Uiso   1.00
O673   O     0.78036   0.00000   0.16317   0.00000  Uiso   1.00
O674   O     0.70725   0.07307   0.27282   0.00000  Uiso   1.00
O675   O     0.79274   0.42693   0.72718   0.00000  Uiso   1.00
O676   O     0.92693   0.20726   0.27282   0.00000  Uiso   1.00
O677   O     0.57307   0.29274   0.72718   0.00000  Uiso   1.00
O678   O     0.79274   0.42693   0.27282   0.00000  Uiso   1.00
O679   O     0.70725   0.07307   0.72718   0.00000  Uiso   1.00
O680   O     0.57307   0.29274   0.27282   0.00000  Uiso   1.00
O681   O     0.92693   0.20726   0.72718   0.00000  Uiso   1.00
O682   O     0.70725   0.42693   0.72718   0.00000  Uiso   1.00
O683   O     0.50000   0.25000   0.25000   0.00000  Uiso   1.00
O684   O     0.79274   0.07307   0.27282   0.00000  Uiso   1.00
O685   O     0.92693   0.29275   0.72718   0.00000  Uiso   1.00
O686   O     0.57307   0.20725   0.27282   0.00000  Uiso   1.00
O687   O     0.79274   0.07307   0.72718   0.00000  Uiso   1.00
O688   O     0.70725   0.42693   0.27282   0.00000  Uiso   1.00
O689   O     0.57307   0.20725   0.72718   0.00000  Uiso   1.00
O690   O     0.92693   0.29275   0.27282   0.00000  Uiso   1.00
O691   O     0.95725   0.32307   0.77282   0.00000  Uiso   1.00
O692   O     0.54274   0.17693   0.22718   0.00000  Uiso   1.00
O693   O     0.67693   0.45725   0.77282   0.00000  Uiso   1.00
O694   O     0.50000   0.25000   0.75000   0.00000  Uiso   1.00
O695   O     0.82307   0.04275   0.22718   0.00000  Uiso   1.00
O696   O     0.54274   0.17693   0.77282   0.00000  Uiso   1.00
O697   O     0.95725   0.32307   0.22718   0.00000  Uiso   1.00
O698   O     0.82307   0.04275   0.77282   0.00000  Uiso   1.00
O699   O     0.67693   0.45725   0.22718   0.00000  Uiso   1.00
O700   O     0.95725   0.17693   0.22718   0.00000  Uiso   1.00
O701   O     0.54274   0.32307   0.77282   0.00000  Uiso   1.00
O702   O     0.67693   0.04275   0.22718   0.00000  Uiso   1.00
O703   O     0.82307   0.45726   0.77282   0.00000  Uiso   1.00
O704   O     0.54274   0.32307   0.22718   0.00000  Uiso   1.00
O705   O     0.75000   0.46964   0.33683   0.00000  Uiso   1.00
O706   O     0.95725   0.17693   0.77282   0.00000  Uiso   1.00
O707   O     0.82307   0.45726   0.22718   0.00000  Uiso   1.00
O708   O     0.67693   0.04275   0.77282   0.00000  Uiso   1.00
O709   O     0.60649   0.44892   0.24890   0.00000  Uiso   1.00
O710   O     0.89348   0.05172   0.75992   0.00000  Uiso   1.00
O711   O     0.55144   0.10642   0.24214   0.00000  Uiso   1.00
O712   O     0.94855   0.39359   0.75786   0.00000  Uiso   1.00
O713   O     0.89352   0.05108   0.24870   0.00000  Uiso   1.00
O714   O     0.60654   0.44825   0.76015   0.00000  Uiso   1.00
O715   O     0.94826   0.39348   0.23993   0.00000  Uiso   1.00
O716   O     0.75000   0.03036   0.66317   0.00000  Uiso   1.00
O717   O     0.55109   0.10646   0.75124   0.00000  Uiso   1.00
O718   O     0.60653   0.05173   0.76007   0.00000  Uiso   1.00
O719   O     0.89353   0.44892   0.24876   0.00000  Uiso   1.00
O720   O     0.55109   0.39352   0.75134   0.00000  Uiso   1.00
O721   O     0.94825   0.10653   0.23987   0.00000  Uiso   1.00
O722   O     0.89336   0.44892   0.75217   0.00000  Uiso   1.00
O723   O     0.60663   0.05108   0.24779   0.00000  Uiso   1.00
O724   O     0.94892   0.10648   0.75112   0.00000  Uiso   1.00
O725   O     0.55173   0.39348   0.24008   0.00000  Uiso   1.00
O726   O     0.85648   0.19892   0.74886   0.00000  Uiso   1.00
O727   O     0.53036   0.25000   0.33683   0.00000  Uiso   1.00
O728   O     0.64348   0.30172   0.25988   0.00000  Uiso   1.00
O729   O     0.80144   0.35642   0.74214   0.00000  Uiso   1.00
O730   O     0.69855   0.14359   0.25786   0.00000  Uiso   1.00
O731   O     0.64352   0.30108   0.74870   0.00000  Uiso   1.00
O732   O     0.85654   0.19825   0.26015   0.00000  Uiso   1.00
O733   O     0.69826   0.14348   0.73993   0.00000  Uiso   1.00
O734   O     0.80109   0.35646   0.25124   0.00000  Uiso   1.00
O735   O     0.85653   0.30173   0.26006   0.00000  Uiso   1.00
O736   O     0.64353   0.19892   0.74876   0.00000  Uiso   1.00
O737   O     0.80109   0.14352   0.25134   0.00000  Uiso   1.00
O738   O     0.96964   0.25000   0.66317   0.00000  Uiso   1.00
O739   O     0.69825   0.35653   0.73986   0.00000  Uiso   1.00
O740   O     0.64336   0.19892   0.25217   0.00000  Uiso   1.00
O741   O     0.85663   0.30108   0.74779   0.00000  Uiso   1.00
O742   O     0.69892   0.35648   0.25108   0.00000  Uiso   1.00
O743   O     0.80174   0.14348   0.74004   0.00000  Uiso   1.00
O744   O     0.75000   0.03036   0.33683   0.00000  Uiso   1.00
Zn745  Zn    0.70660   0.00000   0.21760   0.00000  Uiso   1.00
Zn746  Zn    0.54340   0.25000   0.28240   0.00000  Uiso   1.00
Zn747  Zn    0.75000   0.45660   0.71760   0.00000  Uiso   1.00
Zn748  Zn    0.75000   0.04340   0.28240   0.00000  Uiso   1.00
Zn749  Zn    0.54340   0.25000   0.71760   0.00000  Uiso   1.00
Zn750  Zn    0.95660   0.25000   0.28240   0.00000  Uiso   1.00
Zn751  Zn    0.75000   0.04340   0.71760   0.00000  Uiso   1.00
Zn752  Zn    0.75000   0.45660   0.28240   0.00000  Uiso   1.00
Zn753  Zn    0.79340   0.00000   0.78240   0.00000  Uiso   1.00
Zn754  Zn    0.50000   0.20660   0.21760   0.00000  Uiso   1.00
Zn755  Zn    0.50000   0.29340   0.78240   0.00000  Uiso   1.00
Zn756  Zn    0.79340   0.00000   0.21760   0.00000  Uiso   1.00
Zn757  Zn    0.70660   0.00000   0.78240   0.00000  Uiso   1.00
Zn758  Zn    0.50000   0.29340   0.21760   0.00000  Uiso   1.00
Zn759  Zn    0.50000   0.20660   0.78240   0.00000  Uiso   1.00
Zn760  Zn    0.95660   0.25000   0.71760   0.00000  Uiso   1.00
C761   C     0.23420   0.97102   0.04151   0.00000  Uiso   1.00
C762   C     0.48884   0.78107   0.45836   0.00000  Uiso   1.00
C763   C     0.34805   0.90178   0.75023   0.00000  Uiso   1.00
C764   C     0.40180   0.65180   0.25000   0.00000  Uiso   1.00
C765   C     0.09807   0.84807   0.75001   0.00000  Uiso   1.00
C766   C     0.34808   0.90192   0.25000   0.00000  Uiso   1.00
C767   C     0.15180   0.59820   0.75000   0.00000  Uiso   1.00
C768   C     0.09808   0.65192   0.75000   0.00000  Uiso   1.00
C769   C     0.40180   0.84820   0.25000   0.00000  Uiso   1.00
C770   C     0.15180   0.90180   0.75000   0.00000  Uiso   1.00
C771   C     0.34807   0.59807   0.25001   0.00000  Uiso   1.00
C772   C     0.40194   0.84822   0.74977   0.00000  Uiso   1.00
C773   C     0.21896   0.51124   0.54164   0.00000  Uiso   1.00
C774   C     0.09805   0.65178   0.25023   0.00000  Uiso   1.00
C775   C     0.34820   0.59820   0.74999   0.00000  Uiso   1.00
C776   C     0.15193   0.90193   0.25000   0.00000  Uiso   1.00
C777   C     0.25000   0.50000   0.10255   0.00000  Uiso   1.00
C778   C     0.25000   0.50000   0.89738   0.00000  Uiso   1.00
C779   C     0.00001   0.75000   0.10262   0.00000  Uiso   1.00
C780   C     0.00000   0.75000   0.89745   0.00000  Uiso   1.00
C781   C     0.00000   0.75000   0.60255   0.00000  Uiso   1.00
C782   C    -0.00000   0.75000   0.39737   0.00000  Uiso   1.00
C783   C     0.25001   0.50000   0.60262   0.00000  Uiso   1.00
C784   C     0.27894   0.51589   0.45849   0.00000  Uiso   1.00
C785   C     0.25000   0.50000   0.39745   0.00000  Uiso   1.00
C786   C     0.21765   0.93765   0.10225   0.00000  Uiso   1.00
C787   C     0.17616   0.94037   0.10363   0.00000  Uiso   1.00
C788   C     0.22660   0.56608   0.89728   0.00000  Uiso   1.00
C789   C     0.25927   0.58748   0.88193   0.00000  Uiso   1.00
C790   C     0.43385   0.77317   0.10273   0.00000  Uiso   1.00
C791   C     0.41254   0.74041   0.11804   0.00000  Uiso   1.00
C792   C     0.06221   0.78262   0.89775   0.00000  Uiso   1.00
C793   C     0.05930   0.82411   0.89637   0.00000  Uiso   1.00
C794   C     0.28236   0.56234   0.10225   0.00000  Uiso   1.00
C795   C     0.01594   0.77890   0.54151   0.00000  Uiso   1.00
C796   C     0.32385   0.55961   0.10362   0.00000  Uiso   1.00
C797   C     0.27339   0.93391   0.89727   0.00000  Uiso   1.00
C798   C     0.24072   0.91251   0.88191   0.00000  Uiso   1.00
C799   C     0.06617   0.72682   0.10274   0.00000  Uiso   1.00
C800   C     0.08747   0.75956   0.11808   0.00000  Uiso   1.00
C801   C     0.43779   0.71739   0.89777   0.00000  Uiso   1.00
C802   C     0.44068   0.67591   0.89638   0.00000  Uiso   1.00
C803   C     0.46737   0.68779   0.60224   0.00000  Uiso   1.00
C804   C     0.42589   0.69069   0.60362   0.00000  Uiso   1.00
C805   C     0.47695   0.81620   0.39727   0.00000  Uiso   1.00
C806   C     0.01115   0.71892   0.45835   0.00000  Uiso   1.00
C807   C     0.00975   0.83747   0.38199   0.00000  Uiso   1.00
C808   C     0.18385   0.52319   0.60273   0.00000  Uiso   1.00
C809   C     0.16254   0.99044   0.61803   0.00000  Uiso   1.00
C810   C     0.31226   0.53254   0.39775   0.00000  Uiso   1.00
C811   C     0.30942   0.57403   0.39637   0.00000  Uiso   1.00
C812   C     0.03264   0.81220   0.60224   0.00000  Uiso   1.00
C813   C     0.07412   0.80929   0.60361   0.00000  Uiso   1.00
C814   C     0.02304   0.68379   0.39725   0.00000  Uiso   1.00
C815   C     0.49025   0.66253   0.38196   0.00000  Uiso   1.00
C816   C     0.31615   0.97678   0.60274   0.00000  Uiso   1.00
C817   C     0.28106   0.98878   0.54164   0.00000  Uiso   1.00
C818   C     0.33748   0.50951   0.61809   0.00000  Uiso   1.00
C819   C     0.18776   0.96746   0.39776   0.00000  Uiso   1.00
C820   C     0.19060   0.92597   0.39639   0.00000  Uiso   1.00
C821   C     0.22108   0.98411   0.45849   0.00000  Uiso   1.00
C822   C     0.23407   0.97051   0.08207   0.00000  Uiso   1.00
C823   C     0.23852   0.53149   0.91780   0.00000  Uiso   1.00
C824   C     0.46848   0.76136   0.08221   0.00000  Uiso   1.00
C825   C     0.23867   0.53101   0.95837   0.00000  Uiso   1.00
C826   C     0.02942   0.76606   0.91793   0.00000  Uiso   1.00
C827   C     0.26593   0.52948   0.08207   0.00000  Uiso   1.00
C828   C     0.26147   0.96850   0.91779   0.00000  Uiso   1.00
C829   C     0.03155   0.73864   0.08221   0.00000  Uiso   1.00
C830   C     0.47060   0.73395   0.91794   0.00000  Uiso   1.00
C831   C     0.48394   0.72059   0.58206   0.00000  Uiso   1.00
C832   C     0.48869   0.78155   0.41779   0.00000  Uiso   1.00
C833   C     0.21848   0.51138   0.58221   0.00000  Uiso   1.00
C834   C     0.27944   0.51602   0.41793   0.00000  Uiso   1.00
C835   C     0.01607   0.77940   0.58206   0.00000  Uiso   1.00
C836   C     0.46896   0.76122   0.04164   0.00000  Uiso   1.00
C837   C     0.01130   0.71844   0.41778   0.00000  Uiso   1.00
C838   C     0.28154   0.98862   0.58221   0.00000  Uiso   1.00
C839   C     0.22058   0.98398   0.41794   0.00000  Uiso   1.00
C840   C     0.25000   0.99999   0.02123   0.00000  Uiso   1.00
C841   C     0.24999   0.99999   0.97863   0.00000  Uiso   1.00
C842   C     0.00002   0.75000   0.02137   0.00000  Uiso   1.00
C843   C     0.00001   0.75000   0.97877   0.00000  Uiso   1.00
C844   C    -0.00000   0.74999   0.52123   0.00000  Uiso   1.00
C845   C    -0.00000   0.74999   0.47862   0.00000  Uiso   1.00
C846   C     0.25001   0.50001   0.52137   0.00000  Uiso   1.00
C847   C     0.02892   0.76592   0.95849   0.00000  Uiso   1.00
C848   C     0.25001   0.50001   0.47877   0.00000  Uiso   1.00
C849   C     0.25000   0.50000   0.35508   0.00000  Uiso   1.00
C850   C     0.25000   0.50000   0.64494   0.00000  Uiso   1.00
C851   C    -0.00000   0.75000   0.35505   0.00000  Uiso   1.00
C852   C     0.00000   0.75000   0.64492   0.00000  Uiso   1.00
C853   C     0.00000   0.75000   0.85508   0.00000  Uiso   1.00
C854   C     0.00000   0.75000   0.14494   0.00000  Uiso   1.00
C855   C     0.25000   0.50000   0.85506   0.00000  Uiso   1.00
C856   C     0.25000   0.50000   0.14492   0.00000  Uiso   1.00
C857   C     0.18000   0.57009   0.24994   0.00000  Uiso   1.00
C858   C     0.26580   0.52897   0.04151   0.00000  Uiso   1.00
C859   C     0.32000   0.92991   0.75006   0.00000  Uiso   1.00
C860   C     0.42993   0.67993   0.25000   0.00000  Uiso   1.00
C861   C     0.07002   0.82002   0.75000   0.00000  Uiso   1.00
C862   C     0.32002   0.92998   0.25000   0.00000  Uiso   1.00
C863   C     0.17993   0.57007   0.75000   0.00000  Uiso   1.00
C864   C     0.07007   0.82007   0.25000   0.00000  Uiso   1.00
C865   C     0.42998   0.67998   0.75000   0.00000  Uiso   1.00
C866   C     0.17993   0.92993   0.75000   0.00000  Uiso   1.00
C867   C     0.32002   0.57002   0.25000   0.00000  Uiso   1.00
C868   C     0.43000   0.82009   0.74994   0.00000  Uiso   1.00
C869   C     0.26132   0.96898   0.95836   0.00000  Uiso   1.00
C870   C     0.07000   0.67991   0.25006   0.00000  Uiso   1.00
C871   C     0.32007   0.57007   0.75000   0.00000  Uiso   1.00
C872   C     0.17998   0.92998   0.25000   0.00000  Uiso   1.00
C873   C     0.07002   0.67998   0.75000   0.00000  Uiso   1.00
C874   C     0.42993   0.82007   0.25000   0.00000  Uiso   1.00
C875   C     0.11511   0.91223   0.24773   0.00000  Uiso   1.00
C876   C     0.38498   0.58808   0.75448   0.00000  Uiso   1.00
C877   C     0.08793   0.61497   0.24642   0.00000  Uiso   1.00
C878   C     0.41207   0.88504   0.75358   0.00000  Uiso   1.00
C879   C     0.38488   0.58777   0.24763   0.00000  Uiso   1.00
C880   C     0.03107   0.73879   0.04164   0.00000  Uiso   1.00
C881   C     0.11503   0.91190   0.75460   0.00000  Uiso   1.00
C882   C     0.41191   0.88498   0.24544   0.00000  Uiso   1.00
C883   C     0.08778   0.61510   0.75234   0.00000  Uiso   1.00
C884   C     0.11502   0.58809   0.75456   0.00000  Uiso   1.00
C885   C     0.38489   0.91223   0.24766   0.00000  Uiso   1.00
C886   C     0.08778   0.88489   0.75240   0.00000  Uiso   1.00
C887   C     0.41190   0.61502   0.24542   0.00000  Uiso   1.00
C888   C     0.38487   0.91218   0.75268   0.00000  Uiso   1.00
C889   C     0.11512   0.58783   0.24731   0.00000  Uiso   1.00
C890   C     0.41223   0.61511   0.75228   0.00000  Uiso   1.00
C891   C     0.47111   0.73407   0.95850   0.00000  Uiso   1.00
C892   C     0.08809   0.88498   0.24552   0.00000  Uiso   1.00
C893   C     0.36511   0.66223   0.74771   0.00000  Uiso   1.00
C894   C     0.13498   0.83808   0.25446   0.00000  Uiso   1.00
C895   C     0.33792   0.86497   0.74642   0.00000  Uiso   1.00
C896   C     0.16207   0.63504   0.25358   0.00000  Uiso   1.00
C897   C     0.13488   0.83777   0.74763   0.00000  Uiso   1.00
C898   C     0.36503   0.66190   0.25460   0.00000  Uiso   1.00
C899   C     0.16191   0.63498   0.74544   0.00000  Uiso   1.00
C900   C     0.33778   0.86510   0.25234   0.00000  Uiso   1.00
C901   C     0.36502   0.83809   0.25455   0.00000  Uiso   1.00
C902   C     0.48406   0.72109   0.54151   0.00000  Uiso   1.00
C903   C     0.13489   0.66223   0.74766   0.00000  Uiso   1.00
C904   C     0.33778   0.63489   0.25239   0.00000  Uiso   1.00
C905   C     0.16190   0.86502   0.74541   0.00000  Uiso   1.00
C906   C     0.13487   0.66218   0.25268   0.00000  Uiso   1.00
C907   C     0.36512   0.83783   0.74731   0.00000  Uiso   1.00
C908   C     0.16223   0.86511   0.25226   0.00000  Uiso   1.00
C909   C     0.33809   0.63498   0.74549   0.00000  Uiso   1.00
C910   C     0.09820   0.84820   0.24999   0.00000  Uiso   1.00
C911   C     0.40193   0.65193   0.75000   0.00000  Uiso   1.00
C912   C     0.15194   0.59822   0.24977   0.00000  Uiso   1.00
H913   H     0.22180   0.94870   0.02564   0.00000  Uiso   1.00
H914   H     0.48011   0.80500   0.47433   0.00000  Uiso   1.00
H915   H     0.13679   0.99995   0.63163   0.00000  Uiso   1.00
H916   H     0.15568   0.97164   0.59381   0.00000  Uiso   1.00
H917   H     0.19019   0.54220   0.62687   0.00000  Uiso   1.00
H918   H     0.16584   0.53848   0.58251   0.00000  Uiso   1.00
H919   H     0.33354   0.58540   0.38110   0.00000  Uiso   1.00
H920   H     0.28445   0.58245   0.38050   0.00000  Uiso   1.00
H921   H     0.30857   0.58544   0.42623   0.00000  Uiso   1.00
H922   H     0.33753   0.52478   0.41354   0.00000  Uiso   1.00
H923   H     0.31557   0.52193   0.36779   0.00000  Uiso   1.00
H924   H     0.08553   0.83340   0.61888   0.00000  Uiso   1.00
H925   H     0.19506   0.52002   0.52568   0.00000  Uiso   1.00
H926   H     0.08250   0.78431   0.61948   0.00000  Uiso   1.00
H927   H     0.08552   0.80843   0.57375   0.00000  Uiso   1.00
H928   H     0.02492   0.83748   0.58644   0.00000  Uiso   1.00
H929   H     0.02203   0.81554   0.63220   0.00000  Uiso   1.00
H930   H     0.47524   0.67850   0.35979   0.00000  Uiso   1.00
H931   H     0.49972   0.63677   0.36835   0.00000  Uiso   1.00
H932   H     0.47146   0.65570   0.40618   0.00000  Uiso   1.00
H933   H     0.04205   0.69010   0.37311   0.00000  Uiso   1.00
H934   H     0.03831   0.66575   0.41747   0.00000  Uiso   1.00
H935   H     0.32153   0.52452   0.64029   0.00000  Uiso   1.00
H936   H     0.30122   0.52836   0.47435   0.00000  Uiso   1.00
H937   H     0.36320   0.99996   0.63170   0.00000  Uiso   1.00
H938   H     0.34435   0.52833   0.59391   0.00000  Uiso   1.00
H939   H     0.30979   0.95774   0.62684   0.00000  Uiso   1.00
H940   H     0.33417   0.96150   0.58250   0.00000  Uiso   1.00
H941   H     0.16648   0.91460   0.38112   0.00000  Uiso   1.00
H942   H     0.21557   0.91756   0.38051   0.00000  Uiso   1.00
H943   H     0.19145   0.91457   0.42624   0.00000  Uiso   1.00
H944   H     0.16249   0.97522   0.41356   0.00000  Uiso   1.00
H945   H     0.18444   0.97807   0.36780   0.00000  Uiso   1.00
H946   H     0.02844   0.80116   0.52563   0.00000  Uiso   1.00
H947   H     0.01988   0.69499   0.47431   0.00000  Uiso   1.00
H948   H     0.30496   0.97999   0.52567   0.00000  Uiso   1.00
H949   H     0.19881   0.97165   0.47437   0.00000  Uiso   1.00
H950   H     0.08196   0.95188   0.26050   0.00000  Uiso   1.00
H951   H     0.41618   0.55005   0.77538   0.00000  Uiso   1.00
H952   H     0.04934   0.58395   0.22635   0.00000  Uiso   1.00
H953   H     0.22981   0.55488   0.97434   0.00000  Uiso   1.00
H954   H     0.45065   0.91608   0.77363   0.00000  Uiso   1.00
H955   H     0.41808   0.54810   0.26020   0.00000  Uiso   1.00
H956   H     0.08388   0.94989   0.77570   0.00000  Uiso   1.00
H957   H     0.44991   0.91616   0.22442   0.00000  Uiso   1.00
H958   H     0.04811   0.58189   0.73974   0.00000  Uiso   1.00
H959   H     0.08385   0.55008   0.77559   0.00000  Uiso   1.00
H960   H     0.41810   0.95190   0.26026   0.00000  Uiso   1.00
H961   H     0.04810   0.91810   0.73986   0.00000  Uiso   1.00
H962   H     0.44988   0.58385   0.22435   0.00000  Uiso   1.00
H963   H     0.41755   0.95225   0.73991   0.00000  Uiso   1.00
H964   H     0.44505   0.76999   0.02567   0.00000  Uiso   1.00
H965   H     0.08243   0.54775   0.26003   0.00000  Uiso   1.00
H966   H     0.45188   0.58194   0.73956   0.00000  Uiso   1.00
H967   H     0.05006   0.91621   0.22465   0.00000  Uiso   1.00
H968   H     0.33194   0.70189   0.76040   0.00000  Uiso   1.00
H969   H     0.16619   0.80004   0.27534   0.00000  Uiso   1.00
H970   H     0.29934   0.83395   0.72635   0.00000  Uiso   1.00
H971   H     0.20065   0.66608   0.27363   0.00000  Uiso   1.00
H972   H     0.16808   0.79809   0.76019   0.00000  Uiso   1.00
H973   H     0.33388   0.69989   0.27570   0.00000  Uiso   1.00
H974   H     0.19991   0.66616   0.72441   0.00000  Uiso   1.00
H975   H     0.05119   0.77842   0.97436   0.00000  Uiso   1.00
H976   H     0.29811   0.83189   0.23974   0.00000  Uiso   1.00
H977   H     0.33385   0.80008   0.27558   0.00000  Uiso   1.00
H978   H     0.16810   0.70190   0.76026   0.00000  Uiso   1.00
H979   H     0.29810   0.66810   0.23986   0.00000  Uiso   1.00
H980   H     0.19988   0.83385   0.72433   0.00000  Uiso   1.00
H981   H     0.16755   0.70225   0.23991   0.00000  Uiso   1.00
H982   H     0.33243   0.79774   0.76004   0.00000  Uiso   1.00
H983   H     0.20188   0.83194   0.23952   0.00000  Uiso   1.00
H984   H     0.30008   0.66618   0.72455   0.00000  Uiso   1.00
H985   H     0.16485   0.91621   0.11890   0.00000  Uiso   1.00
H986   H     0.27820   0.55129   0.02564   0.00000  Uiso   1.00
H987   H     0.16767   0.96531   0.11950   0.00000  Uiso   1.00
H988   H     0.16476   0.94118   0.07377   0.00000  Uiso   1.00
H989   H     0.22549   0.91239   0.08647   0.00000  Uiso   1.00
H990   H     0.22826   0.93437   0.13222   0.00000  Uiso   1.00
H991   H     0.27432   0.57158   0.85972   0.00000  Uiso   1.00
H992   H     0.24966   0.61320   0.86833   0.00000  Uiso   1.00
H993   H     0.27807   0.59440   0.90611   0.00000  Uiso   1.00
H994   H     0.20757   0.55968   0.87318   0.00000  Uiso   1.00
H995   H     0.21128   0.58406   0.91753   0.00000  Uiso   1.00
H996   H     0.42849   0.72538   0.14022   0.00000  Uiso   1.00
H997   H     0.27018   0.94511   0.97432   0.00000  Uiso   1.00
H998   H     0.38680   0.74993   0.13164   0.00000  Uiso   1.00
H999   H     0.40568   0.72161   0.09383   0.00000  Uiso   1.00
H1000  H     0.44018   0.79218   0.12687   0.00000  Uiso   1.00
H1001  H     0.41583   0.78845   0.08250   0.00000  Uiso   1.00
H1002  H     0.08340   0.83552   0.88110   0.00000  Uiso   1.00
H1003  H     0.03432   0.83248   0.88049   0.00000  Uiso   1.00
H1004  H     0.05844   0.83551   0.92622   0.00000  Uiso   1.00
H1005  H     0.08749   0.77491   0.91355   0.00000  Uiso   1.00
H1006  H     0.06555   0.77201   0.86780   0.00000  Uiso   1.00
H1007  H     0.33516   0.58377   0.11888   0.00000  Uiso   1.00
H1008  H     0.05498   0.73002   0.02567   0.00000  Uiso   1.00
H1009  H     0.33234   0.53467   0.11950   0.00000  Uiso   1.00
H1010  H     0.33525   0.55879   0.07376   0.00000  Uiso   1.00
H1011  H     0.27453   0.58759   0.08646   0.00000  Uiso   1.00
H1012  H     0.27175   0.56562   0.13221   0.00000  Uiso   1.00
H1013  H     0.22567   0.92843   0.85972   0.00000  Uiso   1.00
H1014  H     0.25033   0.88680   0.86830   0.00000  Uiso   1.00
H1015  H     0.22192   0.90559   0.90610   0.00000  Uiso   1.00
H1016  H     0.29242   0.94031   0.87316   0.00000  Uiso   1.00
H1017  H     0.28871   0.91593   0.91750   0.00000  Uiso   1.00
H1018  H     0.07152   0.77458   0.14028   0.00000  Uiso   1.00
H1019  H     0.44884   0.72158   0.97437   0.00000  Uiso   1.00
H1020  H     0.11321   0.75003   0.13169   0.00000  Uiso   1.00
H1021  H     0.09434   0.77838   0.09389   0.00000  Uiso   1.00
H1022  H     0.05982   0.70779   0.12685   0.00000  Uiso   1.00
H1023  H     0.08419   0.71155   0.08250   0.00000  Uiso   1.00
H1024  H     0.41658   0.66451   0.88112   0.00000  Uiso   1.00
H1025  H     0.46566   0.66752   0.88050   0.00000  Uiso   1.00
H1026  H     0.44155   0.66450   0.92624   0.00000  Uiso   1.00
H1027  H     0.41252   0.72512   0.91357   0.00000  Uiso   1.00
H1028  H     0.43446   0.72800   0.86781   0.00000  Uiso   1.00
H1029  H     0.41448   0.66658   0.61889   0.00000  Uiso   1.00
H1030  H     0.47156   0.69883   0.52564   0.00000  Uiso   1.00
H1031  H     0.41751   0.71567   0.61949   0.00000  Uiso   1.00
H1032  H     0.41449   0.69155   0.57376   0.00000  Uiso   1.00
H1033  H     0.47510   0.66250   0.58644   0.00000  Uiso   1.00
H1034  H     0.47798   0.68446   0.63220   0.00000  Uiso   1.00
H1035  H     0.02477   0.82150   0.35981   0.00000  Uiso   1.00
H1036  H     0.00028   0.86322   0.36838   0.00000  Uiso   1.00
H1037  H     0.02854   0.84429   0.40622   0.00000  Uiso   1.00
H1038  H     0.45794   0.80990   0.37312   0.00000  Uiso   1.00
H1039  H     0.46168   0.83424   0.41749   0.00000  Uiso   1.00
H1040  H     0.17848   0.97540   0.64021   0.00000  Uiso   1.00
O1041  O     0.25000   0.50000   0.25000   0.00000  Uiso   1.00
O1042  O     0.25000   0.96964   0.66317   0.00000  Uiso   1.00
O1043  O     0.46964   0.75000   0.33683   0.00000  Uiso   1.00
O1044  O     0.03036   0.75000   0.66317   0.00000  Uiso   1.00
O1045  O    -0.00000   0.71964   0.83683   0.00000  Uiso   1.00
O1046  O     0.00000   0.78036   0.16317   0.00000  Uiso   1.00
O1047  O     0.28036   0.50000   0.83683   0.00000  Uiso   1.00
O1048  O     0.21964   0.50000   0.16317   0.00000  Uiso   1.00
O1049  O     0.00000   0.78036   0.83683   0.00000  Uiso   1.00
O1050  O     0.00000   0.71964   0.16317   0.00000  Uiso   1.00
O1051  O     0.21964   0.50000   0.83683   0.00000  Uiso   1.00
O1052  O     0.25000   0.50000   0.75000   0.00000  Uiso   1.00
O1053  O     0.28036   0.50000   0.16317   0.00000  Uiso   1.00
O1054  O     0.20725   0.57307   0.27282   0.00000  Uiso   1.00
O1055  O     0.29274   0.92693   0.72718   0.00000  Uiso   1.00
O1056  O     0.42693   0.70726   0.27282   0.00000  Uiso   1.00
O1057  O     0.07307   0.79274   0.72718   0.00000  Uiso   1.00
O1058  O     0.29274   0.92693   0.27282   0.00000  Uiso   1.00
O1059  O     0.20725   0.57307   0.72718   0.00000  Uiso   1.00
O1060  O     0.07307   0.79274   0.27282   0.00000  Uiso   1.00
O1061  O     0.42693   0.70726   0.72718   0.00000  Uiso   1.00
O1062  O     0.20725   0.92693   0.72718   0.00000  Uiso   1.00
O1063  O     0.00000   0.75000   0.25000   0.00000  Uiso   1.00
O1064  O     0.29274   0.57307   0.27282   0.00000  Uiso   1.00
O1065  O     0.42693   0.79275   0.72718   0.00000  Uiso   1.00
O1066  O     0.07307   0.70725   0.27282   0.00000  Uiso   1.00
O1067  O     0.29274   0.57307   0.72718   0.00000  Uiso   1.00
O1068  O     0.20725   0.92693   0.27282   0.00000  Uiso   1.00
O1069  O     0.07307   0.70725   0.72718   0.00000  Uiso   1.00
O1070  O     0.42693   0.79275   0.27282   0.00000  Uiso   1.00
O1071  O     0.45725   0.82307   0.77282   0.00000  Uiso   1.00
O1072  O     0.04274   0.67693   0.22718   0.00000  Uiso   1.00
O1073  O     0.17693   0.95725   0.77282   0.00000  Uiso   1.00
O1074  O    -0.00000   0.75000   0.75000   0.00000  Uiso   1.00
O1075  O     0.32307   0.54275   0.22718   0.00000  Uiso   1.00
O1076  O     0.04274   0.67693   0.77282   0.00000  Uiso   1.00
O1077  O     0.45725   0.82307   0.22718   0.00000  Uiso   1.00
O1078  O     0.32307   0.54275   0.77282   0.00000  Uiso   1.00
O1079  O     0.17693   0.95725   0.22718   0.00000  Uiso   1.00
O1080  O     0.45725   0.67693   0.22718   0.00000  Uiso   1.00
O1081  O     0.04274   0.82307   0.77282   0.00000  Uiso   1.00
O1082  O     0.17693   0.54275   0.22718   0.00000  Uiso   1.00
O1083  O     0.32307   0.95726   0.77282   0.00000  Uiso   1.00
O1084  O     0.04274   0.82307   0.22718   0.00000  Uiso   1.00
O1085  O     0.25000   0.96964   0.33683   0.00000  Uiso   1.00
O1086  O     0.45725   0.67693   0.77282   0.00000  Uiso   1.00
O1087  O     0.32307   0.95726   0.22718   0.00000  Uiso   1.00
O1088  O     0.17693   0.54275   0.77282   0.00000  Uiso   1.00
O1089  O     0.10649   0.94892   0.24890   0.00000  Uiso   1.00
O1090  O     0.39348   0.55172   0.75992   0.00000  Uiso   1.00
O1091  O     0.05144   0.60642   0.24214   0.00000  Uiso   1.00
O1092  O     0.44855   0.89359   0.75786   0.00000  Uiso   1.00
O1093  O     0.39352   0.55108   0.24870   0.00000  Uiso   1.00
O1094  O     0.10654   0.94825   0.76015   0.00000  Uiso   1.00
O1095  O     0.44826   0.89348   0.23993   0.00000  Uiso   1.00
O1096  O     0.25000   0.53036   0.66317   0.00000  Uiso   1.00
O1097  O     0.05109   0.60646   0.75124   0.00000  Uiso   1.00
O1098  O     0.10653   0.55173   0.76007   0.00000  Uiso   1.00
O1099  O     0.39353   0.94892   0.24876   0.00000  Uiso   1.00
O1100  O     0.05109   0.89352   0.75134   0.00000  Uiso   1.00
O1101  O     0.44825   0.60653   0.23987   0.00000  Uiso   1.00
O1102  O     0.39336   0.94892   0.75217   0.00000  Uiso   1.00
O1103  O     0.10663   0.55108   0.24779   0.00000  Uiso   1.00
O1104  O     0.44892   0.60648   0.75112   0.00000  Uiso   1.00
O1105  O     0.05173   0.89348   0.24008   0.00000  Uiso   1.00
O1106  O     0.35648   0.69892   0.74886   0.00000  Uiso   1.00
O1107  O     0.03036   0.75000   0.33683   0.00000  Uiso   1.00
O1108  O     0.14348   0.80172   0.25988   0.00000  Uiso   1.00
O1109  O     0.30144   0.85642   0.74214   0.00000  Uiso   1.00
O1110  O     0.19855   0.64359   0.25786   0.00000  Uiso   1.00
O1111  O     0.14352   0.80108   0.74870   0.00000  Uiso   1.00
O1112  O     0.35654   0.69825   0.26015   0.00000  Uiso   1.00
O1113  O     0.19826   0.64348   0.73993   0.00000  Uiso   1.00
O1114  O     0.30109   0.85646   0.25124   0.00000  Uiso   1.00
O1115  O     0.35653   0.80173   0.26006   0.00000  Uiso   1.00
O1116  O     0.14353   0.69892   0.74876   0.00000  Uiso   1.00
O1117  O     0.30109   0.64352   0.25134   0.00000  Uiso   1.00
O1118  O     0.46964   0.75000   0.66317   0.00000  Uiso   1.00
O1119  O     0.19825   0.85653   0.73986   0.00000  Uiso   1.00
O1120  O     0.14336   0.69892   0.25217   0.00000  Uiso   1.00
O1121  O     0.35663   0.80108   0.74779   0.00000  Uiso   1.00
O1122  O     0.19892   0.85648   0.25108   0.00000  Uiso   1.00
O1123  O     0.30174   0.64348   0.74004   0.00000  Uiso   1.00
O1124  O     0.25000   0.53036   0.33683   0.00000  Uiso   1.00
Zn1125 Zn    0.20660   0.50000   0.21760   0.00000  Uiso   1.00
Zn1126 Zn    0.04340   0.75000   0.28240   0.00000  Uiso   1.00
Zn1127 Zn    0.25000   0.95660   0.71760   0.00000  Uiso   1.00
Zn1128 Zn    0.25000   0.54340   0.28240   0.00000  Uiso   1.00
Zn1129 Zn    0.04340   0.75000   0.71760   0.00000  Uiso   1.00
Zn1130 Zn    0.45660   0.75000   0.28240   0.00000  Uiso   1.00
Zn1131 Zn    0.25000   0.54340   0.71760   0.00000  Uiso   1.00
Zn1132 Zn    0.25000   0.95660   0.28240   0.00000  Uiso   1.00
Zn1133 Zn    0.29340   0.50000   0.78240   0.00000  Uiso   1.00
Zn1134 Zn    0.00000   0.70660   0.21760   0.00000  Uiso   1.00
Zn1135 Zn    0.00000   0.79340   0.78240   0.00000  Uiso   1.00
Zn1136 Zn    0.29340   0.50000   0.21760   0.00000  Uiso   1.00
Zn1137 Zn    0.20660   0.50000   0.78240   0.00000  Uiso   1.00
Zn1138 Zn    0.00000   0.79340   0.21760   0.00000  Uiso   1.00
Zn1139 Zn    0.00000   0.70660   0.78240   0.00000  Uiso   1.00
Zn1140 Zn    0.45660   0.75000   0.71760   0.00000  Uiso   1.00
C1141  C     0.73420   0.97102   0.04151   0.00000  Uiso   1.00
C1142  C     0.98884   0.78107   0.45836   0.00000  Uiso   1.00
C1143  C     0.84805   0.90178   0.75023   0.00000  Uiso   1.00
C1144  C     0.90180   0.65180   0.25000   0.00000  Uiso   1.00
C1145  C     0.59807   0.84807   0.75001   0.00000  Uiso   1.00
C1146  C     0.84808   0.90192   0.25000   0.00000  Uiso   1.00
C1147  C     0.65180   0.59820   0.75000   0.00000  Uiso   1.00
C1148  C     0.59808   0.65192   0.75000   0.00000  Uiso   1.00
C1149  C     0.90180   0.84820   0.25000   0.00000  Uiso   1.00
C1150  C     0.65180   0.90180   0.75000   0.00000  Uiso   1.00
C1151  C     0.84807   0.59807   0.25001   0.00000  Uiso   1.00
C1152  C     0.90194   0.84822   0.74977   0.00000  Uiso   1.00
C1153  C     0.71896   0.51124   0.54164   0.00000  Uiso   1.00
C1154  C     0.59805   0.65178   0.25023   0.00000  Uiso   1.00
C1155  C     0.84820   0.59820   0.74999   0.00000  Uiso   1.00
C1156  C     0.65193   0.90193   0.25000   0.00000  Uiso   1.00
C1157  C     0.75000   0.50000   0.10255   0.00000  Uiso   1.00
C1158  C     0.75000   0.50000   0.89738   0.00000  Uiso   1.00
C1159  C     0.50001   0.75000   0.10262   0.00000  Uiso   1.00
C1160  C     0.50000   0.75000   0.89745   0.00000  Uiso   1.00
C1161  C     0.50000   0.75000   0.60255   0.00000  Uiso   1.00
C1162  C     0.50000   0.75000   0.39737   0.00000  Uiso   1.00
C1163  C     0.75001   0.50000   0.60262   0.00000  Uiso   1.00
C1164  C     0.77894   0.51589   0.45849   0.00000  Uiso   1.00
C1165  C     0.75000   0.50000   0.39745   0.00000  Uiso   1.00
C1166  C     0.71765   0.93765   0.10225   0.00000  Uiso   1.00
C1167  C     0.67616   0.94037   0.10363   0.00000  Uiso   1.00
C1168  C     0.72660   0.56608   0.89728   0.00000  Uiso   1.00
C1169  C     0.75927   0.58748   0.88193   0.00000  Uiso   1.00
C1170  C     0.93385   0.77317   0.10273   0.00000  Uiso   1.00
C1171  C     0.91254   0.74041   0.11804   0.00000  Uiso   1.00
C1172  C     0.56221   0.78262   0.89775   0.00000  Uiso   1.00
C1173  C     0.55930   0.82411   0.89637   0.00000  Uiso   1.00
C1174  C     0.78236   0.56234   0.10225   0.00000  Uiso   1.00
C1175  C     0.51594   0.77890   0.54151   0.00000  Uiso   1.00
C1176  C     0.82385   0.55961   0.10362   0.00000  Uiso   1.00
C1177  C     0.77339   0.93391   0.89727   0.00000  Uiso   1.00
C1178  C     0.74072   0.91251   0.88191   0.00000  Uiso   1.00
C1179  C     0.56617   0.72682   0.10274   0.00000  Uiso   1.00
C1180  C     0.58747   0.75956   0.11808   0.00000  Uiso   1.00
C1181  C     0.93779   0.71739   0.89777   0.00000  Uiso   1.00
C1182  C     0.94068   0.67591   0.89638   0.00000  Uiso   1.00
C1183  C     0.96737   0.68779   0.60224   0.00000  Uiso   1.00
C1184  C     0.92589   0.69069   0.60362   0.00000  Uiso   1.00
C1185  C     0.97695   0.81620   0.39727   0.00000  Uiso   1.00
C1186  C     0.51115   0.71892   0.45835   0.00000  Uiso   1.00
C1187  C     0.50975   0.83747   0.38199   0.00000  Uiso   1.00
C1188  C     0.68385   0.52319   0.60273   0.00000  Uiso   1.00
C1189  C     0.66254   0.99044   0.61803   0.00000  Uiso   1.00
C1190  C     0.81226   0.53254   0.39775   0.00000  Uiso   1.00
C1191  C     0.80942   0.57403   0.39637   0.00000  Uiso   1.00
C1192  C     0.53264   0.81220   0.60224   0.00000  Uiso   1.00
C1193  C     0.57412   0.80929   0.60361   0.00000  Uiso   1.00
C1194  C     0.52304   0.68379   0.39725   0.00000  Uiso   1.00
C1195  C     0.99025   0.66253   0.38196   0.00000  Uiso   1.00
C1196  C     0.81615   0.97678   0.60274   0.00000  Uiso   1.00
C1197  C     0.78106   0.98878   0.54164   0.00000  Uiso   1.00
C1198  C     0.83748   0.50951   0.61809   0.00000  Uiso   1.00
C1199  C     0.68776   0.96746   0.39776   0.00000  Uiso   1.00
C1200  C     0.69060   0.92597   0.39639   0.00000  Uiso   1.00
C1201  C     0.72108   0.98411   0.45849   0.00000  Uiso   1.00
C1202  C     0.73407   0.97051   0.08207   0.00000  Uiso   1.00
C1203  C     0.73852   0.53149   0.91780   0.00000  Uiso   1.00
C1204  C     0.96848   0.76136   0.08221   0.00000  Uiso   1.00
C1205  C     0.73867   0.53101   0.95837   0.00000  Uiso   1.00
C1206  C     0.52942   0.76606   0.91793   0.00000  Uiso   1.00
C1207  C     0.76593   0.52948   0.08207   0.00000  Uiso   1.00
C1208  C     0.76147   0.96850   0.91779   0.00000  Uiso   1.00
C1209  C     0.53155   0.73864   0.08221   0.00000  Uiso   1.00
C1210  C     0.97060   0.73395   0.91794   0.00000  Uiso   1.00
C1211  C     0.98394   0.72059   0.58206   0.00000  Uiso   1.00
C1212  C     0.98869   0.78155   0.41779   0.00000  Uiso   1.00
C1213  C     0.71848   0.51138   0.58221   0.00000  Uiso   1.00
C1214  C     0.77944   0.51602   0.41793   0.00000  Uiso   1.00
C1215  C     0.51607   0.77940   0.58206   0.00000  Uiso   1.00
C1216  C     0.96896   0.76122   0.04164   0.00000  Uiso   1.00
C1217  C     0.51130   0.71844   0.41778   0.00000  Uiso   1.00
C1218  C     0.78154   0.98862   0.58221   0.00000  Uiso   1.00
C1219  C     0.72058   0.98398   0.41794   0.00000  Uiso   1.00
C1220  C     0.75000   0.99999   0.02123   0.00000  Uiso   1.00
C1221  C     0.74999   0.99999   0.97863   0.00000  Uiso   1.00
C1222  C     0.50002   0.75000   0.02137   0.00000  Uiso   1.00
C1223  C     0.50001   0.75000   0.97877   0.00000  Uiso   1.00
C1224  C     0.50000   0.74999   0.52123   0.00000  Uiso   1.00
C1225  C     0.50000   0.74999   0.47862   0.00000  Uiso   1.00
C1226  C     0.75001   0.50001   0.52137   0.00000  Uiso   1.00
C1227  C     0.52892   0.76592   0.95849   0.00000  Uiso   1.00
C1228  C     0.75001   0.50001   0.47877   0.00000  Uiso   1.00
C1229  C     0.75000   0.50000   0.35508   0.00000  Uiso   1.00
C1230  C     0.75000   0.50000   0.64494   0.00000  Uiso   1.00
C1231  C     0.50000   0.75000   0.35505   0.00000  Uiso   1.00
C1232  C     0.50000   0.75000   0.64492   0.00000  Uiso   1.00
C1233  C     0.50000   0.75000   0.85508   0.00000  Uiso   1.00
C1234  C     0.50000   0.75000   0.14494   0.00000  Uiso   1.00
C1235  C     0.75000   0.50000   0.85506   0.00000  Uiso   1.00
C1236  C     0.75000   0.50000   0.14492   0.00000  Uiso   1.00
C1237  C     0.68000   0.57009   0.24994   0.00000  Uiso   1.00
C1238  C     0.76580   0.52897   0.04151   0.00000  Uiso   1.00
C1239  C     0.82000   0.92991   0.75006   0.00000  Uiso   1.00
C1240  C     0.92993   0.67993   0.25000   0.00000  Uiso   1.00
C1241  C     0.57002   0.82002   0.75000   0.00000  Uiso   1.00
C1242  C     0.82002   0.92998   0.25000   0.00000  Uiso   1.00
C1243  C     0.67993   0.57007   0.75000   0.00000  Uiso   1.00
C1244  C     0.57007   0.82007   0.25000   0.00000  Uiso   1.00
C1245  C     0.92998   0.67998   0.75000   0.00000  Uiso   1.00
C1246  C     0.67993   0.92993   0.75000   0.00000  Uiso   1.00
C1247  C     0.82002   0.57002   0.25000   0.00000  Uiso   1.00
C1248  C     0.93000   0.82009   0.74994   0.00000  Uiso   1.00
C1249  C     0.76132   0.96898   0.95836   0.00000  Uiso   1.00
C1250  C     0.57000   0.67991   0.25006   0.00000  Uiso   1.00
C1251  C     0.82007   0.57007   0.75000   0.00000  Uiso   1.00
C1252  C     0.67998   0.92998   0.25000   0.00000  Uiso   1.00
C1253  C     0.57002   0.67998   0.75000   0.00000  Uiso   1.00
C1254  C     0.92993   0.82007   0.25000   0.00000  Uiso   1.00
C1255  C     0.61511   0.91223   0.24773   0.00000  Uiso   1.00
C1256  C     0.88498   0.58808   0.75448   0.00000  Uiso   1.00
C1257  C     0.58793   0.61497   0.24642   0.00000  Uiso   1.00
C1258  C     0.91207   0.88504   0.75358   0.00000  Uiso   1.00
C1259  C     0.88488   0.58777   0.24763   0.00000  Uiso   1.00
C1260  C     0.53107   0.73879   0.04164   0.00000  Uiso   1.00
C1261  C     0.61503   0.91190   0.75460   0.00000  Uiso   1.00
C1262  C     0.91191   0.88498   0.24544   0.00000  Uiso   1.00
C1263  C     0.58778   0.61510   0.75234   0.00000  Uiso   1.00
C1264  C     0.61502   0.58809   0.75456   0.00000  Uiso   1.00
C1265  C     0.88489   0.91223   0.24766   0.00000  Uiso   1.00
C1266  C     0.58778   0.88489   0.75240   0.00000  Uiso   1.00
C1267  C     0.91190   0.61502   0.24542   0.00000  Uiso   1.00
C1268  C     0.88487   0.91218   0.75268   0.00000  Uiso   1.00
C1269  C     0.61512   0.58783   0.24731   0.00000  Uiso   1.00
C1270  C     0.91223   0.61511   0.75228   0.00000  Uiso   1.00
C1271  C     0.97111   0.73407   0.95850   0.00000  Uiso   1.00
C1272  C     0.58809   0.88498   0.24552   0.00000  Uiso   1.00
C1273  C     0.86511   0.66223   0.74771   0.00000  Uiso   1.00
C1274  C     0.63498   0.83808   0.25446   0.00000  Uiso   1.00
C1275  C     0.83792   0.86497   0.74642   0.00000  Uiso   1.00
C1276  C     0.66207   0.63504   0.25358   0.00000  Uiso   1.00
C1277  C     0.63488   0.83777   0.74763   0.00000  Uiso   1.00
C1278  C     0.86503   0.66190   0.25460   0.00000  Uiso   1.00
C1279  C     0.66191   0.63498   0.74544   0.00000  Uiso   1.00
C1280  C     0.83778   0.86510   0.25234   0.00000  Uiso   1.00
C1281  C     0.86502   0.83809   0.25455   0.00000  Uiso   1.00
C1282  C     0.98406   0.72109   0.54151   0.00000  Uiso   1.00
C1283  C     0.63489   0.66223   0.74766   0.00000  Uiso   1.00
C1284  C     0.83778   0.63489   0.25239   0.00000  Uiso   1.00
C1285  C     0.66190   0.86502   0.74541   0.00000  Uiso   1.00
C1286  C     0.63487   0.66218   0.25268   0.00000  Uiso   1.00
C1287  C     0.86512   0.83783   0.74731   0.00000  Uiso   1.00
C1288  C     0.66223   0.86511   0.25226   0.00000  Uiso   1.00
C1289  C     0.83809   0.63498   0.74549   0.00000  Uiso   1.00
C1290  C     0.59820   0.84820   0.24999   0.00000  Uiso   1.00
C1291  C     0.90193   0.65193   0.75000   0.00000  Uiso   1.00
C1292  C     0.65194   0.59822   0.24977   0.00000  Uiso   1.00
H1293  H     0.72180   0.94870   0.02564   0.00000  Uiso   1.00
H1294  H     0.98011   0.80500   0.47433   0.00000  Uiso   1.00
H1295  H     0.63679   0.99995   0.63163   0.00000  Uiso   1.00
H1296  H     0.65568   0.97164   0.59381   0.00000  Uiso   1.00
H1297  H     0.69019   0.54220   0.62687   0.00000  Uiso   1.00
H1298  H     0.66584   0.53848   0.58251   0.00000  Uiso   1.00
H1299  H     0.83354   0.58540   0.38110   0.00000  Uiso   1.00
H1300  H     0.78445   0.58245   0.38050   0.00000  Uiso   1.00
H1301  H     0.80857   0.58544   0.42623   0.00000  Uiso   1.00
H1302  H     0.83753   0.52478   0.41354   0.00000  Uiso   1.00
H1303  H     0.81557   0.52193   0.36779   0.00000  Uiso   1.00
H1304  H     0.58553   0.83340   0.61888   0.00000  Uiso   1.00
H1305  H     0.69506   0.52002   0.52568   0.00000  Uiso   1.00
H1306  H     0.58250   0.78431   0.61948   0.00000  Uiso   1.00
H1307  H     0.58552   0.80843   0.57375   0.00000  Uiso   1.00
H1308  H     0.52492   0.83748   0.58644   0.00000  Uiso   1.00
H1309  H     0.52203   0.81554   0.63220   0.00000  Uiso   1.00
H1310  H     0.97524   0.67850   0.35979   0.00000  Uiso   1.00
H1311  H     0.99972   0.63677   0.36835   0.00000  Uiso   1.00
H1312  H     0.97146   0.65570   0.40618   0.00000  Uiso   1.00
H1313  H     0.54205   0.69010   0.37311   0.00000  Uiso   1.00
H1314  H     0.53831   0.66575   0.41747   0.00000  Uiso   1.00
H1315  H     0.82153   0.52452   0.64029   0.00000  Uiso   1.00
H1316  H     0.80122   0.52836   0.47435   0.00000  Uiso   1.00
H1317  H     0.86320   0.99996   0.63170   0.00000  Uiso   1.00
H1318  H     0.84435   0.52833   0.59391   0.00000  Uiso   1.00
H1319  H     0.80979   0.95774   0.62684   0.00000  Uiso   1.00
H1320  H     0.83417   0.96150   0.58250   0.00000  Uiso   1.00
H1321  H     0.66648   0.91460   0.38112   0.00000  Uiso   1.00
H1322  H     0.71557   0.91756   0.38051   0.00000  Uiso   1.00
H1323  H     0.69145   0.91457   0.42624   0.00000  Uiso   1.00
H1324  H     0.66249   0.97522   0.41356   0.00000  Uiso   1.00
H1325  H     0.68444   0.97807   0.36780   0.00000  Uiso   1.00
H1326  H     0.52844   0.80116   0.52563   0.00000  Uiso   1.00
H1327  H     0.51988   0.69499   0.47431   0.00000  Uiso   1.00
H1328  H     0.80496   0.97999   0.52567   0.00000  Uiso   1.00
H1329  H     0.69881   0.97165   0.47437   0.00000  Uiso   1.00
H1330  H     0.58196   0.95188   0.26050   0.00000  Uiso   1.00
H1331  H     0.91618   0.55005   0.77538   0.00000  Uiso   1.00
H1332  H     0.54934   0.58395   0.22635   0.00000  Uiso   1.00
H1333  H     0.72981   0.55488   0.97434   0.00000  Uiso   1.00
H1334  H     0.95065   0.91608   0.77363   0.00000  Uiso   1.00
H1335  H     0.91808   0.54810   0.26020   0.00000  Uiso   1.00
H1336  H     0.58388   0.94989   0.77570   0.00000  Uiso   1.00
H1337  H     0.94991   0.91616   0.22442   0.00000  Uiso   1.00
H1338  H     0.54811   0.58189   0.73974   0.00000  Uiso   1.00
H1339  H     0.58385   0.55008   0.77559   0.00000  Uiso   1.00
H1340  H     0.91810   0.95190   0.26026   0.00000  Uiso   1.00
H1341  H     0.54810   0.91810   0.73986   0.00000  Uiso   1.00
H1342  H     0.94988   0.58385   0.22435   0.00000  Uiso   1.00
H1343  H     0.91755   0.95225   0.73991   0.00000  Uiso   1.00
H1344  H     0.94505   0.76999   0.02567   0.00000  Uiso   1.00
H1345  H     0.58243   0.54775   0.26003   0.00000  Uiso   1.00
H1346  H     0.95188   0.58194   0.73956   0.00000  Uiso   1.00
H1347  H     0.55006   0.91621   0.22465   0.00000  Uiso   1.00
H1348  H     0.83194   0.70189   0.76040   0.00000  Uiso   1.00
H1349  H     0.66619   0.80004   0.27534   0.00000  Uiso   1.00
H1350  H     0.79934   0.83395   0.72635   0.00000  Uiso   1.00
H1351  H     0.70065   0.66608   0.27363   0.00000  Uiso   1.00
H1352  H     0.66808   0.79809   0.76019   0.00000  Uiso   1.00
H1353  H     0.83388   0.69989   0.27570   0.00000  Uiso   1.00
H1354  H     0.69991   0.66616   0.72441   0.00000  Uiso   1.00
H1355  H     0.55119   0.77842   0.97436   0.00000  Uiso   1.00
H1356  H     0.79811   0.83189   0.23974   0.00000  Uiso   1.00
H1357  H     0.83385   0.80008   0.27558   0.00000  Uiso   1.00
H1358  H     0.66810   0.70190   0.76026   0.00000  Uiso   1.00
H1359  H     0.79810   0.66810   0.23986   0.00000  Uiso   1.00
H1360  H     0.69988   0.83385   0.72433   0.00000  Uiso   1.00
H1361  H     0.66755   0.70225   0.23991   0.00000  Uiso   1.00
H1362  H     0.83243   0.79774   0.76004   0.00000  Uiso   1.00
H1363  H     0.70188   0.83194   0.23952   0.00000  Uiso   1.00
H1364  H     0.80008   0.66618   0.72455   0.00000  Uiso   1.00
H1365  H     0.66485   0.91621   0.11890   0.00000  Uiso   1.00
H1366  H     0.77820   0.55129   0.02564   0.00000  Uiso   1.00
H1367  H     0.66767   0.96531   0.11950   0.00000  Uiso   1.00
H1368  H     0.66476   0.94118   0.07377   0.00000  Uiso   1.00
H1369  H     0.72549   0.91239   0.08647   0.00000  Uiso   1.00
H1370  H     0.72826   0.93437   0.13222   0.00000  Uiso   1.00
H1371  H     0.77432   0.57158   0.85972   0.00000  Uiso   1.00
H1372  H     0.74966   0.61320   0.86833   0.00000  Uiso   1.00
H1373  H     0.77807   0.59440   0.90611   0.00000  Uiso   1.00
H1374  H     0.70757   0.55968   0.87318   0.00000  Uiso   1.00
H1375  H     0.71128   0.58406   0.91753   0.00000  Uiso   1.00
H1376  H     0.92849   0.72538   0.14022   0.00000  Uiso   1.00
H1377  H     0.77018   0.94511   0.97432   0.00000  Uiso   1.00
H1378  H     0.88680   0.74993   0.13164   0.00000  Uiso   1.00
H1379  H     0.90568   0.72161   0.09383   0.00000  Uiso   1.00
H1380  H     0.94018   0.79218   0.12687   0.00000  Uiso   1.00
H1381  H     0.91583   0.78845   0.08250   0.00000  Uiso   1.00
H1382  H     0.58340   0.83552   0.88110   0.00000  Uiso   1.00
H1383  H     0.53432   0.83248   0.88049   0.00000  Uiso   1.00
H1384  H     0.55844   0.83551   0.92622   0.00000  Uiso   1.00
H1385  H     0.58749   0.77491   0.91355   0.00000  Uiso   1.00
H1386  H     0.56555   0.77201   0.86780   0.00000  Uiso   1.00
H1387  H     0.83516   0.58377   0.11888   0.00000  Uiso   1.00
H1388  H     0.55498   0.73002   0.02567   0.00000  Uiso   1.00
H1389  H     0.83234   0.53467   0.11950   0.00000  Uiso   1.00
H1390  H     0.83525   0.55879   0.07376   0.00000  Uiso   1.00
H1391  H     0.77453   0.58759   0.08646   0.00000  Uiso   1.00
H1392  H     0.77175   0.56562   0.13221   0.00000  Uiso   1.00
H1393  H     0.72567   0.92843   0.85972   0.00000  Uiso   1.00
H1394  H     0.75033   0.88680   0.86830   0.00000  Uiso   1.00
H1395  H     0.72192   0.90559   0.90610   0.00000  Uiso   1.00
H1396  H     0.79242   0.94031   0.87316   0.00000  Uiso   1.00
H1397  H     0.78871   0.91593   0.91750   0.00000  Uiso   1.00
H1398  H     0.57152   0.77458   0.14028   0.00000  Uiso   1.00
H1399  H     0.94884   0.72158   0.97437   0.00000  Uiso   1.00
H1400  H     0.61321   0.75003   0.13169   0.00000  Uiso   1.00
H1401  H     0.59434   0.77838   0.09389   0.00000  Uiso   1.00
H1402  H     0.55982   0.70779   0.12685   0.00000  Uiso   1.00
H1403  H     0.58419   0.71155   0.08250   0.00000  Uiso   1.00
H1404  H     0.91658   0.66451   0.88112   0.00000  Uiso   1.00
H1405  H     0.96566   0.66752   0.88050   0.00000  Uiso   1.00
H1406  H     0.94155   0.66450   0.92624   0.00000  Uiso   1.00
H1407  H     0.91252   0.72512   0.91357   0.00000  Uiso   1.00
H1408  H     0.93446   0.72800   0.86781   0.00000  Uiso   1.00
H1409  H     0.91448   0.66658   0.61889   0.00000  Uiso   1.00
H1410  H     0.97156   0.69883   0.52564   0.00000  Uiso   1.00
H1411  H     0.91751   0.71567   0.61949   0.00000  Uiso   1.00
H1412  H     0.91449   0.69155   0.57376   0.00000  Uiso   1.00
H1413  H     0.97510   0.66250   0.58644   0.00000  Uiso   1.00
H1414  H     0.97798   0.68446   0.63220   0.00000  Uiso   1.00
H1415  H     0.52477   0.82150   0.35981   0.00000  Uiso   1.00
H1416  H     0.50028   0.86322   0.36838   0.00000  Uiso   1.00
H1417  H     0.52854   0.84429   0.40622   0.00000  Uiso   1.00
H1418  H     0.95794   0.80990   0.37312   0.00000  Uiso   1.00
H1419  H     0.96168   0.83424   0.41749   0.00000  Uiso   1.00
H1420  H     0.67848   0.97540   0.64021   0.00000  Uiso   1.00
O1421  O     0.75000   0.50000   0.25000   0.00000  Uiso   1.00
O1422  O     0.75000   0.96964   0.66317   0.00000  Uiso   1.00
O1423  O     0.96964   0.75000   0.33683   0.00000  Uiso   1.00
O1424  O     0.53036   0.75000   0.66317   0.00000  Uiso   1.00
O1425  O     0.50000   0.71964   0.83683   0.00000  Uiso   1.00
O1426  O     0.50000   0.78036   0.16317   0.00000  Uiso   1.00
O1427  O     0.78036   0.50000   0.83683   0.00000  Uiso   1.00
O1428  O     0.71964   0.50000   0.16317   0.00000  Uiso   1.00
O1429  O     0.50000   0.78036   0.83683   0.00000  Uiso   1.00
O1430  O     0.50000   0.71964   0.16317   0.00000  Uiso   1.00
O1431  O     0.71964   0.50000   0.83683   0.00000  Uiso   1.00
O1432  O     0.75000   0.50000   0.75000   0.00000  Uiso   1.00
O1433  O     0.78036   0.50000   0.16317   0.00000  Uiso   1.00
O1434  O     0.70725   0.57307   0.27282   0.00000  Uiso   1.00
O1435  O     0.79274   0.92693   0.72718   0.00000  Uiso   1.00
O1436  O     0.92693   0.70726   0.27282   0.00000  Uiso   1.00
O1437  O     0.57307   0.79274   0.72718   0.00000  Uiso   1.00
O1438  O     0.79274   0.92693   0.27282   0.00000  Uiso   1.00
O1439  O     0.70725   0.57307   0.72718   0.00000  Uiso   1.00
O1440  O     0.57307   0.79274   0.27282   0.00000  Uiso   1.00
O1441  O     0.92693   0.70726   0.72718   0.00000  Uiso   1.00
O1442  O     0.70725   0.92693   0.72718   0.00000  Uiso   1.00
O1443  O     0.50000   0.75000   0.25000   0.00000  Uiso   1.00
O1444  O     0.79274   0.57307   0.27282   0.00000  Uiso   1.00
O1445  O     0.92693   0.79275   0.72718   0.00000  Uiso   1.00
O1446  O     0.57307   0.70725   0.27282   0.00000  Uiso   1.00
O1447  O     0.79274   0.57307   0.72718   0.00000  Uiso   1.00
O1448  O     0.70725   0.92693   0.27282   0.00000  Uiso   1.00
O1449  O     0.57307   0.70725   0.72718   0.00000  Uiso   1.00
O1450  O     0.92693   0.79275   0.27282   0.00000  Uiso   1.00
O1451  O     0.95725   0.82307   0.77282   0.00000  Uiso   1.00
O1452  O     0.54274   0.67693   0.22718   0.00000  Uiso   1.00
O1453  O     0.67693   0.95725   0.77282   0.00000  Uiso   1.00
O1454  O     0.50000   0.75000   0.75000   0.00000  Uiso   1.00
O1455  O     0.82307   0.54275   0.22718   0.00000  Uiso   1.00
O1456  O     0.54274   0.67693   0.77282   0.00000  Uiso   1.00
O1457  O     0.95725   0.82307   0.22718   0.00000  Uiso   1.00
O1458  O     0.82307   0.54275   0.77282   0.00000  Uiso   1.00
O1459  O     0.67693   0.95725   0.22718   0.00000  Uiso   1.00
O1460  O     0.95725   0.67693   0.22718   0.00000  Uiso   1.00
O1461  O     0.54274   0.82307   0.77282   0.00000  Uiso   1.00
O1462  O     0.67693   0.54275   0.22718   0.00000  Uiso   1.00
O1463  O     0.82307   0.95726   0.77282   0.00000  Uiso   1.00
O1464  O     0.54274   0.82307   0.22718   0.00000  Uiso   1.00
O1465  O     0.75000   0.96964   0.33683   0.00000  Uiso   1.00
O1466  O     0.95725   0.67693   0.77282   0.00000  Uiso   1.00
O1467  O     0.82307   0.95726   0.22718   0.00000  Uiso   1.00
O1468  O     0.67693   0.54275   0.77282   0.00000  Uiso   1.00
O1469  O     0.60649   0.94892   0.24890   0.00000  Uiso   1.00
O1470  O     0.89348   0.55172   0.75992   0.00000  Uiso   1.00
O1471  O     0.55144   0.60642   0.24214   0.00000  Uiso   1.00
O1472  O     0.94855   0.89359   0.75786   0.00000  Uiso   1.00
O1473  O     0.89352   0.55108   0.24870   0.00000  Uiso   1.00
O1474  O     0.60654   0.94825   0.76015   0.00000  Uiso   1.00
O1475  O     0.94826   0.89348   0.23993   0.00000  Uiso   1.00
O1476  O     0.75000   0.53036   0.66317   0.00000  Uiso   1.00
O1477  O     0.55109   0.60646   0.75124   0.00000  Uiso   1.00
O1478  O     0.60653   0.55173   0.76007   0.00000  Uiso   1.00
O1479  O     0.89353   0.94892   0.24876   0.00000  Uiso   1.00
O1480  O     0.55109   0.89352   0.75134   0.00000  Uiso   1.00
O1481  O     0.94825   0.60653   0.23987   0.00000  Uiso   1.00
O1482  O     0.89336   0.94892   0.75217   0.00000  Uiso   1.00
O1483  O     0.60663   0.55108   0.24779   0.00000  Uiso   1.00
O1484  O     0.94892   0.60648   0.75112   0.00000  Uiso   1.00
O1485  O     0.55173   0.89348   0.24008   0.00000  Uiso   1.00
O1486  O     0.85648   0.69892   0.74886   0.00000  Uiso   1.00
O1487  O     0.53036   0.75000   0.33683   0.00000  Uiso   1.00
O1488  O     0.64348   0.80172   0.25988   0.00000  Uiso   1.00
O1489  O     0.80144   0.85642   0.74214   0.00000  Uiso   1.00
O1490  O     0.69855   0.64359   0.25786   0.00000  Uiso   1.00
O1491  O     0.64352   0.80108   0.74870   0.00000  Uiso   1.00
O1492  O     0.85654   0.69825   0.26015   0.00000  Uiso   1.00
O1493  O     0.69826   0.64348   0.73993   0.00000  Uiso   1.00
O1494  O     0.80109   0.85646   0.25124   0.00000  Uiso   1.00
O1495  O     0.85653   0.80173   0.26006   0.00000  Uiso   1.00
O1496  O     0.64353   0.69892   0.74876   0.00000  Uiso   1.00
O1497  O     0.80109   0.64352   0.25134   0.00000  Uiso   1.00
O1498  O     0.96964   0.75000   0.66317   0.00000  Uiso   1.00
O1499  O     0.69825   0.85653   0.73986   0.00000  Uiso   1.00
O1500  O     0.64336   0.69892   0.25217   0.00000  Uiso   1.00
O1501  O     0.85663   0.80108   0.74779   0.00000  Uiso   1.00
O1502  O     0.69892   0.85648   0.25108   0.00000  Uiso   1.00
O1503  O     0.80174   0.64348   0.74004   0.00000  Uiso   1.00
O1504  O     0.75000   0.53036   0.33683   0.00000  Uiso   1.00
Zn1505 Zn    0.70660   0.50000   0.21760   0.00000  Uiso   1.00
Zn1506 Zn    0.54340   0.75000   0.28240   0.00000  Uiso   1.00
Zn1507 Zn    0.75000   0.95660   0.71760   0.00000  Uiso   1.00
Zn1508 Zn    0.75000   0.54340   0.28240   0.00000  Uiso   1.00
Zn1509 Zn    0.54340   0.75000   0.71760   0.00000  Uiso   1.00
Zn1510 Zn    0.95660   0.75000   0.28240   0.00000  Uiso   1.00
Zn1511 Zn    0.75000   0.54340   0.71760   0.00000  Uiso   1.00
Zn1512 Zn    0.75000   0.95660   0.28240   0.00000  Uiso   1.00
Zn1513 Zn    0.79340   0.50000   0.78240   0.00000  Uiso   1.00
Zn1514 Zn    0.50000   0.70660   0.21760   0.00000  Uiso   1.00
Zn1515 Zn    0.50000   0.79340   0.78240   0.00000  Uiso   1.00
Zn1516 Zn    0.79340   0.50000   0.21760   0.00000  Uiso   1.00
Zn1517 Zn    0.70660   0.50000   0.78240   0.00000  Uiso   1.00
Zn1518 Zn    0.50000   0.79340   0.21760   0.00000  Uiso   1.00
Zn1519 Zn    0.50000   0.70660   0.78240   0.00000  Uiso   1.00
Zn1520 Zn    0.95660   0.75000   0.71760   0.00000  Uiso   1.00
loop_
_geom_bond_atom_site_label_1
_geom_bond_atom_site_label_2
_geom_bond_distance
_geom_bond_site_symmetry_2
_ccdc_geom_bond_type
C1     C62     1.397   .     A
C1     H153    1.084   .     S
C1     C80     1.398   .     A
C2     H154    1.084   .     S
C2     C465    1.398   .     A
C2     C72     1.398   .     A
C3     C128    1.406   .     A
C3     C99     1.457   .     S
C3     C135    1.406   .     A
C4     C127    1.408   .     A
C4     C138    1.408   .     A
C4     C100    1.459   .     S
C5     C126    1.404   .     A
C5     C101    1.455   .     S
C5     C137    1.404   .     A
C6     C125    1.405   .     A
C6     C102    1.455   .     S
C6     C140    1.405   .     A
C7     C103    1.459   .     S
C7     C124    1.408   .     A
C7     C139    1.408   .     A
C8     C123    1.405   .     A
C8     C143    1.405   .     A
C8     C113    1.455   .     S
C9     C114    1.459   .     S
C9     C122    1.408   .     A
C9     C141    1.408   .     A
C10    C106    1.459   .     S
C10    C121    1.408   .     A
C10    C145    1.408   .     A
C11    C119    1.404   .     A
C11    C144    1.404   .     A
C11    C107    1.455   .     S
C12    C108    1.457   .     S
C12    C147    1.406   .     A
C12    C118    1.406   .     A
C13    H165    1.084   .     S
C13    C86     1.398   .     A
C13    C73     1.398   .     A
C14    C117    1.406   .     A
C14    C110    1.457   .     S
C14    C146    1.406   .     A
C15    C149    1.408   .     A
C15    C116    1.408   .     A
C15    C111    1.459   .     S
C16    C115    1.404   .     A
C16    C112    1.455   .     S
C16    C148    1.404   .     A
C17    C96     1.459   .     S
C17    C822    1.417   1_545 A
C17    C67     1.417   .     S
C18    C828    1.416   1_545 A
C18    C63     1.416   .     S
C18    C95     1.458   .     S
C19    C94     1.458   .     S
C19    C69     1.416   .     A
C19    C444    1.416   1_455 S
C20    C66     1.417   .     A
C20    C93     1.460   .     S
C20    C450    1.417   1_455 S
C21    C92     1.460   .     S
C21    C75     1.417   .     A
C21    C451    1.417   1_455 S
C22    C91     1.458   .     S
C22    C452    1.416   1_455 A
C22    C77     1.416   .     S
C23    C90     1.458   .     S
C23    C838    1.416   1_545 A
C23    C73     1.416   .     S
C24    H176    1.084   .     S
C24    C88     1.398   .     A
C24    C74     1.397   .     A
C25    C74     1.417   .     A
C25    C89     1.460   .     S
C25    C839    1.417   1_545 S
C26    H230    1.110   .     S
C26    C27     1.526   .     S
C26    H229    1.112   .     S
C26    C62     1.516   .     S
C27    H227    1.111   .     S
C27    H225    1.110   .     S
C27    H228    1.111   .     S
C28    C63     1.517   .     S
C28    H234    1.110   .     S
C28    C29     1.527   .     S
C28    H235    1.112   .     S
C29    H232    1.110   .     S
C29    H233    1.111   .     S
C29    H231    1.109   .     S
C30    H241    1.112   .     S
C30    H240    1.110   .     S
C30    C64     1.517   .     S
C30    C31     1.527   .     S
C31    H238    1.110   .     S
C31    H239    1.111   .     S
C31    H236    1.109   .     S
C32    H245    1.112   .     S
C32    C66     1.516   .     S
C32    C33     1.526   .     S
C32    H246    1.110   .     S
C33    H243    1.110   .     S
C33    H242    1.110   .     S
C33    H244    1.111   .     S
C34    C67     1.516   .     S
C34    C36     1.526   .     S
C34    H251    1.112   .     S
C34    H252    1.110   .     S
C35    H186    1.084   .     S
C35    C75     1.397   .     A
C35    C84     1.398   .     S
C36    H250    1.111   .     S
C36    H247    1.110   .     S
C36    H249    1.110   .     S
C37    H257    1.112   .     S
C37    C68     1.517   .     S
C37    C38     1.527   .     S
C37    H256    1.110   .     S
C38    H254    1.110   .     S
C38    H255    1.111   .     S
C38    H253    1.109   .     S
C39    C40     1.527   .     S
C39    C69     1.517   .     S
C39    H262    1.110   .     S
C39    H263    1.112   .     S
C40    H258    1.109   .     S
C40    H260    1.110   .     S
C40    H261    1.111   .     S
C41    H267    1.112   .     S
C41    C42     1.526   .     S
C41    H268    1.110   .     S
C41    C70     1.516   .     S
C42    H266    1.111   .     S
C42    H264    1.110   .     S
C42    H265    1.110   .     S
C43    C44     1.526   .     S
C43    C71     1.516   .     S
C43    H274    1.110   .     S
C43    H273    1.112   .     S
C44    H272    1.111   .     S
C44    H269    1.110   .     S
C44    H271    1.110   .     S
C45    H279    1.112   .     S
C45    H278    1.110   .     S
C45    C72     1.517   .     S
C45    C427    1.527   .     S
C46    C77     1.398   .     A
C46    H187    1.084   .     S
C46    C85     1.398   .     S
C47    H277    1.111   .     S
C47    H276    1.110   .     S
C47    H275    1.109   .     S
C47    C425    1.527   1_455 S
C48    H158    1.112   .     S
C48    C73     1.517   .     S
C48    H157    1.110   .     S
C48    C809    1.527   1_545 S
C49    H280    1.109   .     S
C49    H155    1.110   .     S
C49    H156    1.111   .     S
C49    C808    1.527   .     S
C50    H162    1.112   .     S
C50    C74     1.516   .     S
C50    H163    1.110   .     S
C50    C51     1.526   .     S
C51    H160    1.110   .     S
C51    H161    1.111   .     S
C51    H159    1.110   .     S
C52    C75     1.516   .     S
C52    C53     1.526   .     S
C52    H169    1.110   .     S
C52    H168    1.112   .     S
C53    H166    1.110   .     S
C53    H164    1.110   .     S
C53    H167    1.111   .     S
C54    H174    1.112   .     S
C54    C77     1.517   .     S
C54    H173    1.110   .     S
C54    C435    1.527   1_455 S
C55    H172    1.111   .     S
C55    H170    1.109   .     S
C55    H171    1.110   .     S
C55    C434    1.527   .     S
C56    C78     1.517   .     S
C56    H180    1.112   .     S
C56    H179    1.110   .     S
C56    C818    1.527   .     S
C57    C78     1.398   .     A
C57    H188    1.084   .     S
C57    C846    1.398   .     S
C58    H178    1.111   .     S
C58    H175    1.109   .     S
C58    C816    1.527   1_545 S
C58    H937    1.110   1_545 S
C59    C60     1.526   .     S
C59    H185    1.110   .     S
C59    C79     1.516   .     S
C59    H184    1.112   .     S
C60    H181    1.110   .     S
C60    H183    1.111   .     S
C60    H182    1.111   .     S
C61    H189    1.084   .     S
C61    C79     1.397   .     A
C61    C848    1.398   .     S
C62    C777    1.417   .     A
C63    C65     1.398   .     A
C64    C76     1.398   .     A
C64    C399    1.416   .     S
C65    H193    1.084   .     S
C65    C841    1.398   1_545 S
C66    C87     1.397   .     A
C67    C98     1.397   .     A
C68    C778    1.416   .     A
C68    C109    1.398   .     A
C69    C120    1.398   .     A
C70    C131    1.397   .     A
C70    C400    1.417   .     S
C71    C142    1.397   .     A
C71    C401    1.417   .     S
C72    C402    1.416   .     A
C76    H204    1.084   .     S
C76    C462    1.398   .     S
C78    C783    1.416   .     A
C79    C785    1.417   .     S
C80    C81     1.468   1_554 S
C80    C858    1.398   .     S
C81    C109    1.398   .     A
C81    C80     1.468   1_556 S
C81    C825    1.398   .     S
C82    C120    1.398   .     A
C82    C456    1.398   1_455 S
C82    C83     1.468   1_554 S
C83    C87     1.398   .     A
C83    C82     1.468   1_556 S
C83    C511    1.398   1_455 S
C84    C522    1.398   1_455 A
C84    C85     1.468   .     S
C85    C382    1.398   1_455 A
C86    C88     1.468   .     S
C86    C817    1.398   1_545 S
C87    H215    1.084   .     S
C88    C821    1.398   1_545 S
C89    O364    1.279   .     A
C89    O1085   1.279   1_545 S
C90    O1042   1.278   1_545 A
C90    O336    1.278   .     S
C91    O663    1.278   1_455 A
C91    O347    1.278   .     S
C92    O284    1.279   .     A
C92    O738    1.279   1_455 S
C93    O289    1.279   .     A
C93    O285    1.279   .     S
C94    O290    1.278   .     A
C94    O286    1.278   .     A
C95    O287    1.278   .     S
C95    O291    1.278   .     S
C96    O288    1.279   .     S
C96    O293    1.279   .     S
C97    O294    1.278   .     A
C97    C152    1.457   .     S
C97    O322    1.278   .     A
C98    H226    1.084   .     S
C98    C840    1.398   1_545 S
C99    O295    1.278   .     A
C99    O323    1.278   .     A
C100   O296    1.278   .     A
C100   O320    1.278   .     A
C101   O297    1.277   .     A
C101   O321    1.277   .     A
C102   O327    1.277   .     A
C102   O298    1.277   .     A
C103   O299    1.278   .     A
C103   O328    1.278   .     A
C104   C150    1.459   .     S
C104   O300    1.279   .     A
C104   O324    1.278   .     A
C105   C151    1.455   .     S
C105   O301    1.277   .     A
C105   O326    1.277   .     A
C106   O313    1.278   .     A
C106   O302    1.278   .     A
C107   O315    1.277   .     A
C107   O304    1.277   .     A
C108   O305    1.278   .     A
C108   O311    1.278   .     A
C109   H237    1.084   .     S
C110   O312    1.278   .     A
C110   O306    1.278   .     A
C111   O307    1.278   .     A
C111   O318    1.279   .     A
C112   O319    1.277   .     A
C112   O308    1.277   .     A
C113   O309    1.277   .     A
C113   O316    1.277   .     A
C114   O317    1.278   .     A
C114   O310    1.278   .     A
C115   C132    1.409   .     A
C115   O329    1.383   .     S
C116   C130    1.409   .     A
C116   O330    1.382   .     S
C117   C129    1.410   .     A
C117   O331    1.382   .     S
C118   O332    1.382   .     S
C118   C128    1.410   .     A
C119   O333    1.383   .     S
C119   C127    1.409   .     A
C120   H248    1.084   .     S
C121   O334    1.382   .     S
C121   C126    1.409   .     A
C122   O335    1.382   .     S
C122   C125    1.410   .     A
C123   C124    1.410   .     A
C123   O337    1.383   .     S
C124   O338    1.382   .     S
C125   O339    1.383   .     S
C126   O340    1.383   .     S
C127   O341    1.382   .     S
C128   O342    1.383   .     S
C129   O343    1.383   .     S
C129   C152    1.406   .     A
C130   O344    1.383   .     S
C130   C151    1.404   .     A
C131   H259    1.084   .     S
C131   C463    1.398   .     S
C132   C150    1.408   .     A
C132   O345    1.382   .     S
C133   C151    1.404   .     A
C133   O346    1.383   .     S
C133   C149    1.409   .     A
C134   O348    1.382   .     S
C134   C150    1.408   .     A
C134   C148    1.409   .     A
C135   O349    1.382   .     S
C135   C147    1.410   .     A
C136   C152    1.406   .     A
C136   C146    1.410   .     A
C136   O350    1.382   .     S
C137   O351    1.383   .     S
C137   C145    1.409   .     A
C138   O352    1.382   .     S
C138   C144    1.409   .     A
C139   O353    1.382   .     S
C139   C143    1.410   .     A
C140   C141    1.410   .     A
C140   O354    1.383   .     S
C141   O355    1.382   .     S
C142   H270    1.084   .     S
C142   C464    1.398   .     A
C143   O356    1.383   .     S
C144   O357    1.383   .     S
C145   O359    1.382   .     S
C146   O360    1.383   .     S
C147   O361    1.383   .     S
C148   O362    1.383   .     S
C149   O363    1.382   .     S
H177   C818    1.110   .     S
H190   O329    0.990   .     S
H191   O330    0.991   .     S
H192   O331    0.990   .     S
H194   O332    0.990   .     S
H195   O333    0.990   .     S
H196   O334    0.991   .     S
H197   O335    0.991   .     S
H198   O337    0.990   .     S
H199   O338    0.991   .     S
H200   O339    0.990   .     S
H201   O340    0.990   .     S
H202   O341    0.991   .     S
H203   O342    0.990   .     S
H205   O343    0.990   .     S
H206   O344    0.990   .     S
H207   O345    0.991   .     S
H208   O346    0.990   .     S
H209   O348    0.991   .     S
H210   O349    0.990   .     S
H211   O350    0.990   .     S
H212   O351    0.990   .     S
H213   O352    0.991   .     S
H214   O353    0.991   .     S
H216   O354    0.990   .     S
H217   O355    0.991   .     S
H218   O356    0.990   .     S
H219   O357    0.990   .     S
H220   O359    0.991   .     S
H221   O360    0.990   .     S
H222   O361    0.990   .     S
H223   O362    0.990   .     S
H224   O363    0.991   .     S
O281   Zn368   1.944   .     S
O281   Zn365   1.944   .     S
O281   Zn376   1.944   .     S
O281   Zn1132  1.944   1_545 S
O282   C850    1.278   .     A
O282   Zn367   1.935   .     S
O283   C471    1.278   .     A
O283   Zn370   1.935   .     S
O284   Zn369   1.935   .     S
O285   Zn379   1.935   .     S
O286   Zn378   1.935   .     S
O287   Zn373   1.935   .     S
O288   Zn365   1.935   .     S
O289   Zn375   1.935   .     S
O290   Zn374   1.935   .     S
O291   Zn377   1.935   .     S
O292   Zn371   1.944   .     S
O292   Zn373   1.944   .     S
O292   Zn377   1.944   .     S
O292   Zn1127  1.944   1_545 S
O293   Zn376   1.935   .     S
O294   Zn368   1.937   .     S
O295   Zn367   1.937   .     S
O296   Zn370   1.937   .     S
O297   Zn369   1.937   .     S
O298   Zn372   1.937   .     S
O299   Zn371   1.937   .     S
O300   Zn366   1.937   .     S
O301   Zn380   1.937   .     S
O302   Zn367   1.937   .     S
O303   Zn378   1.944   .     S
O303   Zn366   1.944   .     S
O303   Zn374   1.944   .     S
O303   Zn750   1.944   1_455 S
O304   Zn368   1.937   .     S
O305   Zn380   1.937   .     S
O306   Zn366   1.937   .     S
O307   Zn371   1.937   .     S
O308   Zn372   1.937   .     S
O309   Zn369   1.937   .     S
O310   Zn370   1.937   .     S
O311   Zn755   1.937   .     S
O312   Zn374   1.937   .     S
O313   Zn1137  1.937   .     S
O314   Zn760   1.944   1_455 S
O314   Zn369   1.944   .     S
O314   Zn375   1.944   .     S
O314   Zn379   1.944   .     S
O315   Zn376   1.937   .     S
O316   Zn379   1.937   .     S
O317   Zn758   1.937   .     S
O318   Zn373   1.937   .     S
O319   Zn1125  1.937   .     S
O320   Zn754   1.937   .     S
O321   Zn375   1.937   .     S
O322   Zn365   1.937   .     S
O323   Zn1133  1.937   .     S
O324   Zn378   1.937   .     S
O325   Zn372   1.935   .     S
O325   C849    1.279   .     S
O326   Zn759   1.937   .     S
O327   Zn1136  1.937   .     S
O328   Zn377   1.937   .     S
O336   Zn371   1.935   .     S
O347   Zn366   1.935   .     S
O358   Zn380   1.935   .     S
O358   C472    1.279   .     S
O364   Zn368   1.935   .     S
Zn365  O1079   1.937   1_545 S
Zn367  O1052   1.944   .     S
Zn370  O683    1.944   .     S
Zn372  O1041   1.944   .     S
Zn373  O1083   1.937   1_545 S
Zn374  O700    1.937   1_455 S
Zn375  O691    1.937   1_455 S
Zn376  O1087   1.937   1_545 S
Zn377  O1073   1.937   1_545 S
Zn378  O697    1.937   1_455 S
Zn379  O706    1.937   1_455 S
Zn380  O694    1.944   .     S
C381   C442    1.397   .     A
C381   H533    1.084   .     S
C381   C460    1.398   .     A
C382   H534    1.084   .     S
C382   C85     1.398   1_655 A
C382   C452    1.398   .     A
C383   C508    1.406   .     A
C383   C479    1.457   .     S
C383   C515    1.406   .     A
C384   C507    1.408   .     A
C384   C518    1.408   .     A
C384   C480    1.459   .     S
C385   C506    1.404   .     A
C385   C481    1.455   .     S
C385   C517    1.404   .     A
C386   C505    1.405   .     A
C386   C482    1.455   .     S
C386   C520    1.405   .     A
C387   C483    1.459   .     S
C387   C504    1.408   .     A
C387   C519    1.408   .     A
C388   C503    1.405   .     A
C388   C523    1.405   .     A
C388   C493    1.455   .     S
C389   C494    1.459   .     S
C389   C502    1.408   .     A
C389   C521    1.408   .     A
C390   C486    1.459   .     S
C390   C501    1.408   .     A
C390   C525    1.408   .     A
C391   C499    1.404   .     A
C391   C524    1.404   .     A
C391   C487    1.455   .     S
C392   C488    1.457   .     S
C392   C527    1.406   .     A
C392   C498    1.406   .     A
C393   H545    1.084   .     S
C393   C466    1.398   .     A
C393   C453    1.398   .     A
C394   C497    1.406   .     A
C394   C490    1.457   .     S
C394   C526    1.406   .     A
C395   C529    1.408   .     A
C395   C496    1.408   .     A
C395   C491    1.459   .     S
C396   C495    1.404   .     A
C396   C492    1.455   .     S
C396   C528    1.404   .     A
C397   C476    1.459   .     S
C397   C1202   1.417   1_545 A
C397   C447    1.417   .     S
C398   C1208   1.416   1_545 A
C398   C443    1.416   .     S
C398   C475    1.458   .     S
C399   C474    1.458   .     S
C399   C449    1.416   .     A
C400   C446    1.417   .     A
C400   C473    1.460   .     S
C401   C472    1.460   .     S
C401   C455    1.417   .     A
C402   C471    1.458   .     S
C402   C457    1.416   .     S
C403   C470    1.458   .     S
C403   C1218   1.416   1_545 A
C403   C453    1.416   .     S
C404   H556    1.084   .     S
C404   C468    1.398   .     A
C404   C454    1.397   .     A
C405   C454    1.417   .     A
C405   C469    1.460   .     S
C405   C1219   1.417   1_545 S
C406   H610    1.110   .     S
C406   C407    1.526   .     S
C406   H609    1.112   .     S
C406   C442    1.516   .     S
C407   H607    1.111   .     S
C407   H605    1.110   .     S
C407   H608    1.111   .     S
C408   C443    1.517   .     S
C408   H614    1.110   .     S
C408   C409    1.527   .     S
C408   H615    1.112   .     S
C409   H612    1.110   .     S
C409   H613    1.111   .     S
C409   H611    1.109   .     S
C410   H621    1.112   .     S
C410   H620    1.110   .     S
C410   C444    1.517   .     S
C410   C411    1.527   .     S
C411   H618    1.110   .     S
C411   H619    1.111   .     S
C411   H616    1.109   .     S
C412   H625    1.112   .     S
C412   C446    1.516   .     S
C412   C413    1.526   .     S
C412   H626    1.110   .     S
C413   H623    1.110   .     S
C413   H622    1.110   .     S
C413   H624    1.111   .     S
C414   C447    1.516   .     S
C414   C416    1.526   .     S
C414   H631    1.112   .     S
C414   H632    1.110   .     S
C415   H566    1.084   .     S
C415   C455    1.397   .     A
C415   C464    1.398   .     S
C416   H630    1.111   .     S
C416   H627    1.110   .     S
C416   H629    1.110   .     S
C417   H637    1.112   .     S
C417   C448    1.517   .     S
C417   C418    1.527   .     S
C417   H636    1.110   .     S
C418   H634    1.110   .     S
C418   H635    1.111   .     S
C418   H633    1.109   .     S
C419   C420    1.527   .     S
C419   C449    1.517   .     S
C419   H642    1.110   .     S
C419   H643    1.112   .     S
C420   H638    1.109   .     S
C420   H640    1.110   .     S
C420   H641    1.111   .     S
C421   H647    1.112   .     S
C421   C422    1.526   .     S
C421   H648    1.110   .     S
C421   C450    1.516   .     S
C422   H646    1.111   .     S
C422   H644    1.110   .     S
C422   H645    1.110   .     S
C423   C424    1.526   .     S
C423   C451    1.516   .     S
C423   H654    1.110   .     S
C423   H653    1.112   .     S
C424   H652    1.111   .     S
C424   H649    1.110   .     S
C424   H651    1.110   .     S
C425   H659    1.112   .     S
C425   H658    1.110   .     S
C425   C452    1.517   .     S
C425   C47     1.527   1_655 S
C426   C457    1.398   .     A
C426   H567    1.084   .     S
C426   C465    1.398   .     S
C427   H657    1.111   .     S
C427   H656    1.110   .     S
C427   H655    1.109   .     S
C428   H538    1.112   .     S
C428   C453    1.517   .     S
C428   H537    1.110   .     S
C428   C1189   1.527   1_545 S
C429   H660    1.109   .     S
C429   H535    1.110   .     S
C429   H536    1.111   .     S
C429   C1188   1.527   .     S
C430   H542    1.112   .     S
C430   C454    1.516   .     S
C430   H543    1.110   .     S
C430   C431    1.526   .     S
C431   H540    1.110   .     S
C431   H541    1.111   .     S
C431   H539    1.110   .     S
C432   C455    1.516   .     S
C432   C433    1.526   .     S
C432   H549    1.110   .     S
C432   H548    1.112   .     S
C433   H546    1.110   .     S
C433   H544    1.110   .     S
C433   H547    1.111   .     S
C434   H554    1.112   .     S
C434   C457    1.517   .     S
C434   H553    1.110   .     S
C435   H552    1.111   .     S
C435   H550    1.109   .     S
C435   H551    1.110   .     S
C435   C54     1.527   1_655 S
C436   C458    1.517   .     S
C436   H560    1.112   .     S
C436   H559    1.110   .     S
C436   C1198   1.527   .     S
C437   C458    1.398   .     A
C437   H568    1.084   .     S
C437   C1226   1.398   .     S
C438   H558    1.111   .     S
C438   H555    1.109   .     S
C438   C1196   1.527   1_545 S
C438   H1317   1.110   1_545 S
C439   C440    1.526   .     S
C439   H565    1.110   .     S
C439   C459    1.516   .     S
C439   H564    1.112   .     S
C440   H561    1.110   .     S
C440   H563    1.111   .     S
C440   H562    1.111   .     S
C441   H569    1.084   .     S
C441   C459    1.397   .     A
C441   C1228   1.398   .     S
C442   C1157   1.417   .     A
C443   C445    1.398   .     A
C444   C456    1.398   .     A
C444   C19     1.416   1_655 S
C445   H573    1.084   .     S
C445   C1221   1.398   1_545 S
C446   C467    1.397   .     A
C447   C478    1.397   .     A
C448   C1158   1.416   .     A
C448   C489    1.398   .     A
C449   C500    1.398   .     A
C450   C511    1.397   .     A
C450   C20     1.417   1_655 S
C451   C522    1.397   .     A
C451   C21     1.417   1_655 S
C452   C22     1.416   1_655 A
C456   H584    1.084   .     S
C456   C82     1.398   1_655 S
C458   C1163   1.416   .     A
C459   C1165   1.417   .     S
C460   C461    1.468   1_554 S
C460   C1238   1.398   .     S
C461   C489    1.398   .     A
C461   C460    1.468   1_556 S
C461   C1205   1.398   .     S
C462   C500    1.398   .     A
C462   C463    1.468   1_554 S
C463   C467    1.398   .     A
C463   C462    1.468   1_556 S
C464   C465    1.468   .     S
C466   C468    1.468   .     S
C466   C1197   1.398   1_545 S
C467   H595    1.084   .     S
C468   C1201   1.398   1_545 S
C469   O744    1.279   .     A
C469   O1465   1.279   1_545 S
C470   O1422   1.278   1_545 A
C470   O716    1.278   .     S
C471   O727    1.278   .     S
C472   O664    1.279   .     A
C473   O669    1.279   .     A
C473   O665    1.279   .     S
C474   O670    1.278   .     A
C474   O666    1.278   .     A
C475   O667    1.278   .     S
C475   O671    1.278   .     S
C476   O668    1.279   .     S
C476   O673    1.279   .     S
C477   O674    1.278   .     A
C477   C532    1.457   .     S
C477   O702    1.278   .     A
C478   H606    1.084   .     S
C478   C1220   1.398   1_545 S
C479   O675    1.278   .     A
C479   O703    1.278   .     A
C480   O676    1.278   .     A
C480   O700    1.278   .     A
C481   O677    1.277   .     A
C481   O701    1.277   .     A
C482   O707    1.277   .     A
C482   O678    1.277   .     A
C483   O679    1.278   .     A
C483   O708    1.278   .     A
C484   C530    1.459   .     S
C484   O680    1.279   .     A
C484   O704    1.278   .     A
C485   C531    1.455   .     S
C485   O681    1.277   .     A
C485   O706    1.277   .     A
C486   O693    1.278   .     A
C486   O682    1.278   .     A
C487   O695    1.277   .     A
C487   O684    1.277   .     A
C488   O685    1.278   .     A
C488   O691    1.278   .     A
C489   H617    1.084   .     S
C490   O692    1.278   .     A
C490   O686    1.278   .     A
C491   O687    1.278   .     A
C491   O698    1.279   .     A
C492   O699    1.277   .     A
C492   O688    1.277   .     A
C493   O689    1.277   .     A
C493   O696    1.277   .     A
C494   O697    1.278   .     A
C494   O690    1.278   .     A
C495   C512    1.409   .     A
C495   O709    1.383   .     S
C496   C510    1.409   .     A
C496   O710    1.382   .     S
C497   C509    1.410   .     A
C497   O711    1.382   .     S
C498   O712    1.382   .     S
C498   C508    1.410   .     A
C499   O713    1.383   .     S
C499   C507    1.409   .     A
C500   H628    1.084   .     S
C501   O714    1.382   .     S
C501   C506    1.409   .     A
C502   O715    1.382   .     S
C502   C505    1.410   .     A
C503   C504    1.410   .     A
C503   O717    1.383   .     S
C504   O718    1.382   .     S
C505   O719    1.383   .     S
C506   O720    1.383   .     S
C507   O721    1.382   .     S
C508   O722    1.383   .     S
C509   O723    1.383   .     S
C509   C532    1.406   .     A
C510   O724    1.383   .     S
C510   C531    1.404   .     A
C511   H639    1.084   .     S
C511   C83     1.398   1_655 S
C512   C530    1.408   .     A
C512   O725    1.382   .     S
C513   C531    1.404   .     A
C513   O726    1.383   .     S
C513   C529    1.409   .     A
C514   O728    1.382   .     S
C514   C530    1.408   .     A
C514   C528    1.409   .     A
C515   O729    1.382   .     S
C515   C527    1.410   .     A
C516   C532    1.406   .     A
C516   C526    1.410   .     A
C516   O730    1.382   .     S
C517   O731    1.383   .     S
C517   C525    1.409   .     A
C518   O732    1.382   .     S
C518   C524    1.409   .     A
C519   O733    1.382   .     S
C519   C523    1.410   .     A
C520   C521    1.410   .     A
C520   O734    1.383   .     S
C521   O735    1.382   .     S
C522   H650    1.084   .     S
C522   C84     1.398   1_655 A
C523   O736    1.383   .     S
C524   O737    1.383   .     S
C525   O739    1.382   .     S
C526   O740    1.383   .     S
C527   O741    1.383   .     S
C528   O742    1.383   .     S
C529   O743    1.382   .     S
H557   C1198   1.110   .     S
H570   O709    0.990   .     S
H571   O710    0.991   .     S
H572   O711    0.990   .     S
H574   O712    0.990   .     S
H575   O713    0.990   .     S
H576   O714    0.991   .     S
H577   O715    0.991   .     S
H578   O717    0.990   .     S
H579   O718    0.991   .     S
H580   O719    0.990   .     S
H581   O720    0.990   .     S
H582   O721    0.991   .     S
H583   O722    0.990   .     S
H585   O723    0.990   .     S
H586   O724    0.990   .     S
H587   O725    0.991   .     S
H588   O726    0.990   .     S
H589   O728    0.991   .     S
H590   O729    0.990   .     S
H591   O730    0.990   .     S
H592   O731    0.990   .     S
H593   O732    0.991   .     S
H594   O733    0.991   .     S
H596   O734    0.990   .     S
H597   O735    0.991   .     S
H598   O736    0.990   .     S
H599   O737    0.990   .     S
H600   O739    0.991   .     S
H601   O740    0.990   .     S
H602   O741    0.990   .     S
H603   O742    0.990   .     S
H604   O743    0.991   .     S
O661   Zn748   1.944   .     S
O661   Zn745   1.944   .     S
O661   Zn756   1.944   .     S
O661   Zn1512  1.944   1_545 S
O662   C1230   1.278   .     A
O662   Zn747   1.935   .     S
O663   C91     1.278   1_655 A
O663   Zn750   1.935   .     S
O664   Zn749   1.935   .     S
O665   Zn759   1.935   .     S
O666   Zn758   1.935   .     S
O667   Zn753   1.935   .     S
O668   Zn745   1.935   .     S
O669   Zn755   1.935   .     S
O670   Zn754   1.935   .     S
O671   Zn757   1.935   .     S
O672   Zn751   1.944   .     S
O672   Zn753   1.944   .     S
O672   Zn757   1.944   .     S
O672   Zn1507  1.944   1_545 S
O673   Zn756   1.935   .     S
O674   Zn748   1.937   .     S
O675   Zn747   1.937   .     S
O676   Zn750   1.937   .     S
O677   Zn749   1.937   .     S
O678   Zn752   1.937   .     S
O679   Zn751   1.937   .     S
O680   Zn746   1.937   .     S
O681   Zn760   1.937   .     S
O682   Zn747   1.937   .     S
O683   Zn758   1.944   .     S
O683   Zn746   1.944   .     S
O683   Zn754   1.944   .     S
O684   Zn748   1.937   .     S
O685   Zn760   1.937   .     S
O686   Zn746   1.937   .     S
O687   Zn751   1.937   .     S
O688   Zn752   1.937   .     S
O689   Zn749   1.937   .     S
O690   Zn750   1.937   .     S
O691   Zn375   1.937   1_655 S
O692   Zn754   1.937   .     S
O693   Zn1517  1.937   .     S
O694   Zn749   1.944   .     S
O694   Zn755   1.944   .     S
O694   Zn759   1.944   .     S
O695   Zn756   1.937   .     S
O696   Zn759   1.937   .     S
O697   Zn378   1.937   1_655 S
O698   Zn753   1.937   .     S
O699   Zn1505  1.937   .     S
O700   Zn374   1.937   1_655 S
O701   Zn755   1.937   .     S
O702   Zn745   1.937   .     S
O703   Zn1513  1.937   .     S
O704   Zn758   1.937   .     S
O705   Zn752   1.935   .     S
O705   C1229   1.279   .     S
O706   Zn379   1.937   1_655 S
O707   Zn1516  1.937   .     S
O708   Zn757   1.937   .     S
O716   Zn751   1.935   .     S
O727   Zn746   1.935   .     S
O738   Zn760   1.935   .     S
O738   C92     1.279   1_655 S
O744   Zn748   1.935   .     S
Zn745  O1459   1.937   1_545 S
Zn747  O1432   1.944   .     S
Zn750  O303    1.944   1_655 S
Zn752  O1421   1.944   .     S
Zn753  O1463   1.937   1_545 S
Zn756  O1467   1.937   1_545 S
Zn757  O1453   1.937   1_545 S
Zn760  O314    1.944   1_655 S
C761   C822    1.397   .     A
C761   H913    1.084   .     S
C761   C840    1.398   .     A
C762   H914    1.084   .     S
C762   C1225   1.398   .     A
C762   C832    1.398   .     A
C763   C888    1.406   .     A
C763   C859    1.457   .     S
C763   C895    1.406   .     A
C764   C887    1.408   .     A
C764   C898    1.408   .     A
C764   C860    1.459   .     S
C765   C886    1.404   .     A
C765   C861    1.455   .     S
C765   C897    1.404   .     A
C766   C885    1.405   .     A
C766   C862    1.455   .     S
C766   C900    1.405   .     A
C767   C863    1.459   .     S
C767   C884    1.408   .     A
C767   C899    1.408   .     A
C768   C883    1.405   .     A
C768   C903    1.405   .     A
C768   C873    1.455   .     S
C769   C874    1.459   .     S
C769   C882    1.408   .     A
C769   C901    1.408   .     A
C770   C866    1.459   .     S
C770   C881    1.408   .     A
C770   C905    1.408   .     A
C771   C879    1.404   .     A
C771   C904    1.404   .     A
C771   C867    1.455   .     S
C772   C868    1.457   .     S
C772   C907    1.406   .     A
C772   C878    1.406   .     A
C773   H925    1.084   .     S
C773   C846    1.398   .     A
C773   C833    1.398   .     A
C774   C877    1.406   .     A
C774   C870    1.457   .     S
C774   C906    1.406   .     A
C775   C909    1.408   .     A
C775   C876    1.408   .     A
C775   C871    1.459   .     S
C776   C875    1.404   .     A
C776   C872    1.455   .     S
C776   C908    1.404   .     A
C777   C856    1.459   .     S
C777   C827    1.417   .     S
C778   C823    1.416   .     S
C778   C855    1.458   .     S
C779   C854    1.458   .     S
C779   C829    1.416   .     A
C779   C1204   1.416   1_455 S
C780   C826    1.417   .     A
C780   C853    1.460   .     S
C780   C1210   1.417   1_455 S
C781   C852    1.460   .     S
C781   C835    1.417   .     A
C781   C1211   1.417   1_455 S
C782   C851    1.458   .     S
C782   C1212   1.416   1_455 A
C782   C837    1.416   .     S
C783   C850    1.458   .     S
C783   C833    1.416   .     S
C784   H936    1.084   .     S
C784   C848    1.398   .     A
C784   C834    1.397   .     A
C785   C834    1.417   .     A
C785   C849    1.460   .     S
C786   H990    1.110   .     S
C786   C787    1.526   .     S
C786   H989    1.112   .     S
C786   C822    1.516   .     S
C787   H987    1.111   .     S
C787   H985    1.110   .     S
C787   H988    1.111   .     S
C788   C823    1.517   .     S
C788   H994    1.110   .     S
C788   C789    1.527   .     S
C788   H995    1.112   .     S
C789   H992    1.110   .     S
C789   H993    1.111   .     S
C789   H991    1.109   .     S
C790   H1001   1.112   .     S
C790   H1000   1.110   .     S
C790   C824    1.517   .     S
C790   C791    1.527   .     S
C791   H998    1.110   .     S
C791   H999    1.111   .     S
C791   H996    1.109   .     S
C792   H1005   1.112   .     S
C792   C826    1.516   .     S
C792   C793    1.526   .     S
C792   H1006   1.110   .     S
C793   H1003   1.110   .     S
C793   H1002   1.110   .     S
C793   H1004   1.111   .     S
C794   C827    1.516   .     S
C794   C796    1.526   .     S
C794   H1011   1.112   .     S
C794   H1012   1.110   .     S
C795   H946    1.084   .     S
C795   C835    1.397   .     A
C795   C844    1.398   .     S
C796   H1010   1.111   .     S
C796   H1007   1.110   .     S
C796   H1009   1.110   .     S
C797   H1017   1.112   .     S
C797   C828    1.517   .     S
C797   C798    1.527   .     S
C797   H1016   1.110   .     S
C798   H1014   1.110   .     S
C798   H1015   1.111   .     S
C798   H1013   1.109   .     S
C799   C800    1.527   .     S
C799   C829    1.517   .     S
C799   H1022   1.110   .     S
C799   H1023   1.112   .     S
C800   H1018   1.109   .     S
C800   H1020   1.110   .     S
C800   H1021   1.111   .     S
C801   H1027   1.112   .     S
C801   C802    1.526   .     S
C801   H1028   1.110   .     S
C801   C830    1.516   .     S
C802   H1026   1.111   .     S
C802   H1024   1.110   .     S
C802   H1025   1.110   .     S
C803   C804    1.526   .     S
C803   C831    1.516   .     S
C803   H1034   1.110   .     S
C803   H1033   1.112   .     S
C804   H1032   1.111   .     S
C804   H1029   1.110   .     S
C804   H1031   1.110   .     S
C805   H1039   1.112   .     S
C805   H1038   1.110   .     S
C805   C832    1.517   .     S
C805   C1187   1.527   .     S
C806   C837    1.398   .     A
C806   H947    1.084   .     S
C806   C845    1.398   .     S
C807   H1037   1.111   .     S
C807   H1036   1.110   .     S
C807   H1035   1.109   .     S
C807   C1185   1.527   1_455 S
C808   H918    1.112   .     S
C808   C833    1.517   .     S
C808   H917    1.110   .     S
C809   H1040   1.109   .     S
C809   H915    1.110   .     S
C809   H916    1.111   .     S
C809   C48     1.527   1_565 S
C810   H922    1.112   .     S
C810   C834    1.516   .     S
C810   H923    1.110   .     S
C810   C811    1.526   .     S
C811   H920    1.110   .     S
C811   H921    1.111   .     S
C811   H919    1.110   .     S
C812   C835    1.516   .     S
C812   C813    1.526   .     S
C812   H929    1.110   .     S
C812   H928    1.112   .     S
C813   H926    1.110   .     S
C813   H924    1.110   .     S
C813   H927    1.111   .     S
C814   H934    1.112   .     S
C814   C837    1.517   .     S
C814   H933    1.110   .     S
C814   C1195   1.527   1_455 S
C815   H932    1.111   .     S
C815   H930    1.109   .     S
C815   H931    1.110   .     S
C815   C1194   1.527   .     S
C816   C838    1.517   .     S
C816   H940    1.112   .     S
C816   H939    1.110   .     S
C816   C58     1.527   1_565 S
C817   C838    1.398   .     A
C817   H948    1.084   .     S
C817   C86     1.398   1_565 S
C818   H938    1.111   .     S
C818   H935    1.109   .     S
C819   C820    1.526   .     S
C819   H945    1.110   .     S
C819   C839    1.516   .     S
C819   H944    1.112   .     S
C820   H941    1.110   .     S
C820   H943    1.111   .     S
C820   H942    1.111   .     S
C821   H949    1.084   .     S
C821   C839    1.397   .     A
C821   C88     1.398   1_565 S
C822   C17     1.417   1_565 A
C823   C825    1.398   .     A
C824   C836    1.398   .     A
C824   C1159   1.416   .     S
C825   H953    1.084   .     S
C826   C847    1.397   .     A
C827   C858    1.397   .     A
C828   C18     1.416   1_565 A
C828   C869    1.398   .     A
C829   C880    1.398   .     A
C830   C891    1.397   .     A
C830   C1160   1.417   .     S
C831   C902    1.397   .     A
C831   C1161   1.417   .     S
C832   C1162   1.416   .     A
C836   H964    1.084   .     S
C836   C1222   1.398   .     S
C838   C23     1.416   1_565 A
C839   C25     1.417   1_565 S
C840   C841    1.468   1_554 S
C840   C98     1.398   1_565 S
C841   C869    1.398   .     A
C841   C840    1.468   1_556 S
C841   C65     1.398   1_565 S
C842   C880    1.398   .     A
C842   C1216   1.398   1_455 S
C842   C843    1.468   1_554 S
C843   C847    1.398   .     A
C843   C842    1.468   1_556 S
C843   C1271   1.398   1_455 S
C844   C1282   1.398   1_455 A
C844   C845    1.468   .     S
C845   C1142   1.398   1_455 A
C846   C848    1.468   .     S
C847   H975    1.084   .     S
C849   O1124   1.279   .     A
C850   O1096   1.278   .     S
C851   O1423   1.278   1_455 A
C851   O1107   1.278   .     S
C852   O1044   1.279   .     A
C852   O1498   1.279   1_455 S
C853   O1049   1.279   .     A
C853   O1045   1.279   .     S
C854   O1050   1.278   .     A
C854   O1046   1.278   .     A
C855   O1047   1.278   .     S
C855   O1051   1.278   .     S
C856   O1048   1.279   .     S
C856   O1053   1.279   .     S
C857   O1054   1.278   .     A
C857   C912    1.457   .     S
C857   O1082   1.278   .     A
C858   H986    1.084   .     S
C859   O1055   1.278   .     A
C859   O1083   1.278   .     A
C860   O1056   1.278   .     A
C860   O1080   1.278   .     A
C861   O1057   1.277   .     A
C861   O1081   1.277   .     A
C862   O1087   1.277   .     A
C862   O1058   1.277   .     A
C863   O1059   1.278   .     A
C863   O1088   1.278   .     A
C864   C910    1.459   .     S
C864   O1060   1.279   .     A
C864   O1084   1.278   .     A
C865   C911    1.455   .     S
C865   O1061   1.277   .     A
C865   O1086   1.277   .     A
C866   O1073   1.278   .     A
C866   O1062   1.278   .     A
C867   O1075   1.277   .     A
C867   O1064   1.277   .     A
C868   O1065   1.278   .     A
C868   O1071   1.278   .     A
C869   H997    1.084   .     S
C870   O1072   1.278   .     A
C870   O1066   1.278   .     A
C871   O1067   1.278   .     A
C871   O1078   1.279   .     A
C872   O1079   1.277   .     A
C872   O1068   1.277   .     A
C873   O1069   1.277   .     A
C873   O1076   1.277   .     A
C874   O1077   1.278   .     A
C874   O1070   1.278   .     A
C875   C892    1.409   .     A
C875   O1089   1.383   .     S
C876   C890    1.409   .     A
C876   O1090   1.382   .     S
C877   C889    1.410   .     A
C877   O1091   1.382   .     S
C878   O1092   1.382   .     S
C878   C888    1.410   .     A
C879   O1093   1.383   .     S
C879   C887    1.409   .     A
C880   H1008   1.084   .     S
C881   O1094   1.382   .     S
C881   C886    1.409   .     A
C882   O1095   1.382   .     S
C882   C885    1.410   .     A
C883   C884    1.410   .     A
C883   O1097   1.383   .     S
C884   O1098   1.382   .     S
C885   O1099   1.383   .     S
C886   O1100   1.383   .     S
C887   O1101   1.382   .     S
C888   O1102   1.383   .     S
C889   O1103   1.383   .     S
C889   C912    1.406   .     A
C890   O1104   1.383   .     S
C890   C911    1.404   .     A
C891   H1019   1.084   .     S
C891   C1223   1.398   .     S
C892   C910    1.408   .     A
C892   O1105   1.382   .     S
C893   C911    1.404   .     A
C893   O1106   1.383   .     S
C893   C909    1.409   .     A
C894   O1108   1.382   .     S
C894   C910    1.408   .     A
C894   C908    1.409   .     A
C895   O1109   1.382   .     S
C895   C907    1.410   .     A
C896   C912    1.406   .     A
C896   C906    1.410   .     A
C896   O1110   1.382   .     S
C897   O1111   1.383   .     S
C897   C905    1.409   .     A
C898   O1112   1.382   .     S
C898   C904    1.409   .     A
C899   O1113   1.382   .     S
C899   C903    1.410   .     A
C900   C901    1.410   .     A
C900   O1114   1.383   .     S
C901   O1115   1.382   .     S
C902   H1030   1.084   .     S
C902   C1224   1.398   .     A
C903   O1116   1.383   .     S
C904   O1117   1.383   .     S
C905   O1119   1.382   .     S
C906   O1120   1.383   .     S
C907   O1121   1.383   .     S
C908   O1122   1.383   .     S
C909   O1123   1.382   .     S
H937   C58     1.110   1_565 S
H950   O1089   0.990   .     S
H951   O1090   0.991   .     S
H952   O1091   0.990   .     S
H954   O1092   0.990   .     S
H955   O1093   0.990   .     S
H956   O1094   0.991   .     S
H957   O1095   0.991   .     S
H958   O1097   0.990   .     S
H959   O1098   0.991   .     S
H960   O1099   0.990   .     S
H961   O1100   0.990   .     S
H962   O1101   0.991   .     S
H963   O1102   0.990   .     S
H965   O1103   0.990   .     S
H966   O1104   0.990   .     S
H967   O1105   0.991   .     S
H968   O1106   0.990   .     S
H969   O1108   0.991   .     S
H970   O1109   0.990   .     S
H971   O1110   0.990   .     S
H972   O1111   0.990   .     S
H973   O1112   0.991   .     S
H974   O1113   0.991   .     S
H976   O1114   0.990   .     S
H977   O1115   0.991   .     S
H978   O1116   0.990   .     S
H979   O1117   0.990   .     S
H980   O1119   0.991   .     S
H981   O1120   0.990   .     S
H982   O1121   0.990   .     S
H983   O1122   0.990   .     S
H984   O1123   0.991   .     S
O1041  Zn1128  1.944   .     S
O1041  Zn1125  1.944   .     S
O1041  Zn1136  1.944   .     S
O1042  C90     1.278   1_565 A
O1042  Zn1127  1.935   .     S
O1043  C1231   1.278   .     A
O1043  Zn1130  1.935   .     S
O1044  Zn1129  1.935   .     S
O1045  Zn1139  1.935   .     S
O1046  Zn1138  1.935   .     S
O1047  Zn1133  1.935   .     S
O1048  Zn1125  1.935   .     S
O1049  Zn1135  1.935   .     S
O1050  Zn1134  1.935   .     S
O1051  Zn1137  1.935   .     S
O1052  Zn1131  1.944   .     S
O1052  Zn1133  1.944   .     S
O1052  Zn1137  1.944   .     S
O1053  Zn1136  1.935   .     S
O1054  Zn1128  1.937   .     S
O1055  Zn1127  1.937   .     S
O1056  Zn1130  1.937   .     S
O1057  Zn1129  1.937   .     S
O1058  Zn1132  1.937   .     S
O1059  Zn1131  1.937   .     S
O1060  Zn1126  1.937   .     S
O1061  Zn1140  1.937   .     S
O1062  Zn1127  1.937   .     S
O1063  Zn1138  1.944   .     S
O1063  Zn1126  1.944   .     S
O1063  Zn1134  1.944   .     S
O1063  Zn1510  1.944   1_455 S
O1064  Zn1128  1.937   .     S
O1065  Zn1140  1.937   .     S
O1066  Zn1126  1.937   .     S
O1067  Zn1131  1.937   .     S
O1068  Zn1132  1.937   .     S
O1069  Zn1129  1.937   .     S
O1070  Zn1130  1.937   .     S
O1071  Zn1515  1.937   .     S
O1072  Zn1134  1.937   .     S
O1073  Zn377   1.937   1_565 S
O1074  Zn1520  1.944   1_455 S
O1074  Zn1129  1.944   .     S
O1074  Zn1135  1.944   .     S
O1074  Zn1139  1.944   .     S
O1075  Zn1136  1.937   .     S
O1076  Zn1139  1.937   .     S
O1077  Zn1518  1.937   .     S
O1078  Zn1133  1.937   .     S
O1079  Zn365   1.937   1_565 S
O1080  Zn1514  1.937   .     S
O1081  Zn1135  1.937   .     S
O1082  Zn1125  1.937   .     S
O1083  Zn373   1.937   1_565 S
O1084  Zn1138  1.937   .     S
O1085  Zn1132  1.935   .     S
O1085  C89     1.279   1_565 S
O1086  Zn1519  1.937   .     S
O1087  Zn376   1.937   1_565 S
O1088  Zn1137  1.937   .     S
O1096  Zn1131  1.935   .     S
O1107  Zn1126  1.935   .     S
O1118  Zn1140  1.935   .     S
O1118  C1232   1.279   .     S
O1124  Zn1128  1.935   .     S
Zn1127 O292    1.944   1_565 S
Zn1130 O1443   1.944   .     S
Zn1132 O281    1.944   1_565 S
Zn1134 O1460   1.937   1_455 S
Zn1135 O1451   1.937   1_455 S
Zn1138 O1457   1.937   1_455 S
Zn1139 O1466   1.937   1_455 S
Zn1140 O1454   1.944   .     S
C1141  C1202   1.397   .     A
C1141  H1293   1.084   .     S
C1141  C1220   1.398   .     A
C1142  H1294   1.084   .     S
C1142  C845    1.398   1_655 A
C1142  C1212   1.398   .     A
C1143  C1268   1.406   .     A
C1143  C1239   1.457   .     S
C1143  C1275   1.406   .     A
C1144  C1267   1.408   .     A
C1144  C1278   1.408   .     A
C1144  C1240   1.459   .     S
C1145  C1266   1.404   .     A
C1145  C1241   1.455   .     S
C1145  C1277   1.404   .     A
C1146  C1265   1.405   .     A
C1146  C1242   1.455   .     S
C1146  C1280   1.405   .     A
C1147  C1243   1.459   .     S
C1147  C1264   1.408   .     A
C1147  C1279   1.408   .     A
C1148  C1263   1.405   .     A
C1148  C1283   1.405   .     A
C1148  C1253   1.455   .     S
C1149  C1254   1.459   .     S
C1149  C1262   1.408   .     A
C1149  C1281   1.408   .     A
C1150  C1246   1.459   .     S
C1150  C1261   1.408   .     A
C1150  C1285   1.408   .     A
C1151  C1259   1.404   .     A
C1151  C1284   1.404   .     A
C1151  C1247   1.455   .     S
C1152  C1248   1.457   .     S
C1152  C1287   1.406   .     A
C1152  C1258   1.406   .     A
C1153  H1305   1.084   .     S
C1153  C1226   1.398   .     A
C1153  C1213   1.398   .     A
C1154  C1257   1.406   .     A
C1154  C1250   1.457   .     S
C1154  C1286   1.406   .     A
C1155  C1289   1.408   .     A
C1155  C1256   1.408   .     A
C1155  C1251   1.459   .     S
C1156  C1255   1.404   .     A
C1156  C1252   1.455   .     S
C1156  C1288   1.404   .     A
C1157  C1236   1.459   .     S
C1157  C1207   1.417   .     S
C1158  C1203   1.416   .     S
C1158  C1235   1.458   .     S
C1159  C1234   1.458   .     S
C1159  C1209   1.416   .     A
C1160  C1206   1.417   .     A
C1160  C1233   1.460   .     S
C1161  C1232   1.460   .     S
C1161  C1215   1.417   .     A
C1162  C1231   1.458   .     S
C1162  C1217   1.416   .     S
C1163  C1230   1.458   .     S
C1163  C1213   1.416   .     S
C1164  H1316   1.084   .     S
C1164  C1228   1.398   .     A
C1164  C1214   1.397   .     A
C1165  C1214   1.417   .     A
C1165  C1229   1.460   .     S
C1166  H1370   1.110   .     S
C1166  C1167   1.526   .     S
C1166  H1369   1.112   .     S
C1166  C1202   1.516   .     S
C1167  H1367   1.111   .     S
C1167  H1365   1.110   .     S
C1167  H1368   1.111   .     S
C1168  C1203   1.517   .     S
C1168  H1374   1.110   .     S
C1168  C1169   1.527   .     S
C1168  H1375   1.112   .     S
C1169  H1372   1.110   .     S
C1169  H1373   1.111   .     S
C1169  H1371   1.109   .     S
C1170  H1381   1.112   .     S
C1170  H1380   1.110   .     S
C1170  C1204   1.517   .     S
C1170  C1171   1.527   .     S
C1171  H1378   1.110   .     S
C1171  H1379   1.111   .     S
C1171  H1376   1.109   .     S
C1172  H1385   1.112   .     S
C1172  C1206   1.516   .     S
C1172  C1173   1.526   .     S
C1172  H1386   1.110   .     S
C1173  H1383   1.110   .     S
C1173  H1382   1.110   .     S
C1173  H1384   1.111   .     S
C1174  C1207   1.516   .     S
C1174  C1176   1.526   .     S
C1174  H1391   1.112   .     S
C1174  H1392   1.110   .     S
C1175  H1326   1.084   .     S
C1175  C1215   1.397   .     A
C1175  C1224   1.398   .     S
C1176  H1390   1.111   .     S
C1176  H1387   1.110   .     S
C1176  H1389   1.110   .     S
C1177  H1397   1.112   .     S
C1177  C1208   1.517   .     S
C1177  C1178   1.527   .     S
C1177  H1396   1.110   .     S
C1178  H1394   1.110   .     S
C1178  H1395   1.111   .     S
C1178  H1393   1.109   .     S
C1179  C1180   1.527   .     S
C1179  C1209   1.517   .     S
C1179  H1402   1.110   .     S
C1179  H1403   1.112   .     S
C1180  H1398   1.109   .     S
C1180  H1400   1.110   .     S
C1180  H1401   1.111   .     S
C1181  H1407   1.112   .     S
C1181  C1182   1.526   .     S
C1181  H1408   1.110   .     S
C1181  C1210   1.516   .     S
C1182  H1406   1.111   .     S
C1182  H1404   1.110   .     S
C1182  H1405   1.110   .     S
C1183  C1184   1.526   .     S
C1183  C1211   1.516   .     S
C1183  H1414   1.110   .     S
C1183  H1413   1.112   .     S
C1184  H1412   1.111   .     S
C1184  H1409   1.110   .     S
C1184  H1411   1.110   .     S
C1185  H1419   1.112   .     S
C1185  H1418   1.110   .     S
C1185  C1212   1.517   .     S
C1185  C807    1.527   1_655 S
C1186  C1217   1.398   .     A
C1186  H1327   1.084   .     S
C1186  C1225   1.398   .     S
C1187  H1417   1.111   .     S
C1187  H1416   1.110   .     S
C1187  H1415   1.109   .     S
C1188  H1298   1.112   .     S
C1188  C1213   1.517   .     S
C1188  H1297   1.110   .     S
C1189  H1420   1.109   .     S
C1189  H1295   1.110   .     S
C1189  H1296   1.111   .     S
C1189  C428    1.527   1_565 S
C1190  H1302   1.112   .     S
C1190  C1214   1.516   .     S
C1190  H1303   1.110   .     S
C1190  C1191   1.526   .     S
C1191  H1300   1.110   .     S
C1191  H1301   1.111   .     S
C1191  H1299   1.110   .     S
C1192  C1215   1.516   .     S
C1192  C1193   1.526   .     S
C1192  H1309   1.110   .     S
C1192  H1308   1.112   .     S
C1193  H1306   1.110   .     S
C1193  H1304   1.110   .     S
C1193  H1307   1.111   .     S
C1194  H1314   1.112   .     S
C1194  C1217   1.517   .     S
C1194  H1313   1.110   .     S
C1195  H1312   1.111   .     S
C1195  H1310   1.109   .     S
C1195  H1311   1.110   .     S
C1195  C814    1.527   1_655 S
C1196  C1218   1.517   .     S
C1196  H1320   1.112   .     S
C1196  H1319   1.110   .     S
C1196  C438    1.527   1_565 S
C1197  C1218   1.398   .     A
C1197  H1328   1.084   .     S
C1197  C466    1.398   1_565 S
C1198  H1318   1.111   .     S
C1198  H1315   1.109   .     S
C1199  C1200   1.526   .     S
C1199  H1325   1.110   .     S
C1199  C1219   1.516   .     S
C1199  H1324   1.112   .     S
C1200  H1321   1.110   .     S
C1200  H1323   1.111   .     S
C1200  H1322   1.111   .     S
C1201  H1329   1.084   .     S
C1201  C1219   1.397   .     A
C1201  C468    1.398   1_565 S
C1202  C397    1.417   1_565 A
C1203  C1205   1.398   .     A
C1204  C1216   1.398   .     A
C1204  C779    1.416   1_655 S
C1205  H1333   1.084   .     S
C1206  C1227   1.397   .     A
C1207  C1238   1.397   .     A
C1208  C398    1.416   1_565 A
C1208  C1249   1.398   .     A
C1209  C1260   1.398   .     A
C1210  C1271   1.397   .     A
C1210  C780    1.417   1_655 S
C1211  C1282   1.397   .     A
C1211  C781    1.417   1_655 S
C1212  C782    1.416   1_655 A
C1216  H1344   1.084   .     S
C1216  C842    1.398   1_655 S
C1218  C403    1.416   1_565 A
C1219  C405    1.417   1_565 S
C1220  C1221   1.468   1_554 S
C1220  C478    1.398   1_565 S
C1221  C1249   1.398   .     A
C1221  C1220   1.468   1_556 S
C1221  C445    1.398   1_565 S
C1222  C1260   1.398   .     A
C1222  C1223   1.468   1_554 S
C1223  C1227   1.398   .     A
C1223  C1222   1.468   1_556 S
C1224  C1225   1.468   .     S
C1226  C1228   1.468   .     S
C1227  H1355   1.084   .     S
C1229  O1504   1.279   .     A
C1230  O1476   1.278   .     S
C1231  O1487   1.278   .     S
C1232  O1424   1.279   .     A
C1233  O1429   1.279   .     A
C1233  O1425   1.279   .     S
C1234  O1430   1.278   .     A
C1234  O1426   1.278   .     A
C1235  O1427   1.278   .     S
C1235  O1431   1.278   .     S
C1236  O1428   1.279   .     S
C1236  O1433   1.279   .     S
C1237  O1434   1.278   .     A
C1237  C1292   1.457   .     S
C1237  O1462   1.278   .     A
C1238  H1366   1.084   .     S
C1239  O1435   1.278   .     A
C1239  O1463   1.278   .     A
C1240  O1436   1.278   .     A
C1240  O1460   1.278   .     A
C1241  O1437   1.277   .     A
C1241  O1461   1.277   .     A
C1242  O1467   1.277   .     A
C1242  O1438   1.277   .     A
C1243  O1439   1.278   .     A
C1243  O1468   1.278   .     A
C1244  C1290   1.459   .     S
C1244  O1440   1.279   .     A
C1244  O1464   1.278   .     A
C1245  C1291   1.455   .     S
C1245  O1441   1.277   .     A
C1245  O1466   1.277   .     A
C1246  O1453   1.278   .     A
C1246  O1442   1.278   .     A
C1247  O1455   1.277   .     A
C1247  O1444   1.277   .     A
C1248  O1445   1.278   .     A
C1248  O1451   1.278   .     A
C1249  H1377   1.084   .     S
C1250  O1452   1.278   .     A
C1250  O1446   1.278   .     A
C1251  O1447   1.278   .     A
C1251  O1458   1.279   .     A
C1252  O1459   1.277   .     A
C1252  O1448   1.277   .     A
C1253  O1449   1.277   .     A
C1253  O1456   1.277   .     A
C1254  O1457   1.278   .     A
C1254  O1450   1.278   .     A
C1255  C1272   1.409   .     A
C1255  O1469   1.383   .     S
C1256  C1270   1.409   .     A
C1256  O1470   1.382   .     S
C1257  C1269   1.410   .     A
C1257  O1471   1.382   .     S
C1258  O1472   1.382   .     S
C1258  C1268   1.410   .     A
C1259  O1473   1.383   .     S
C1259  C1267   1.409   .     A
C1260  H1388   1.084   .     S
C1261  O1474   1.382   .     S
C1261  C1266   1.409   .     A
C1262  O1475   1.382   .     S
C1262  C1265   1.410   .     A
C1263  C1264   1.410   .     A
C1263  O1477   1.383   .     S
C1264  O1478   1.382   .     S
C1265  O1479   1.383   .     S
C1266  O1480   1.383   .     S
C1267  O1481   1.382   .     S
C1268  O1482   1.383   .     S
C1269  O1483   1.383   .     S
C1269  C1292   1.406   .     A
C1270  O1484   1.383   .     S
C1270  C1291   1.404   .     A
C1271  H1399   1.084   .     S
C1271  C843    1.398   1_655 S
C1272  C1290   1.408   .     A
C1272  O1485   1.382   .     S
C1273  C1291   1.404   .     A
C1273  O1486   1.383   .     S
C1273  C1289   1.409   .     A
C1274  O1488   1.382   .     S
C1274  C1290   1.408   .     A
C1274  C1288   1.409   .     A
C1275  O1489   1.382   .     S
C1275  C1287   1.410   .     A
C1276  C1292   1.406   .     A
C1276  C1286   1.410   .     A
C1276  O1490   1.382   .     S
C1277  O1491   1.383   .     S
C1277  C1285   1.409   .     A
C1278  O1492   1.382   .     S
C1278  C1284   1.409   .     A
C1279  O1493   1.382   .     S
C1279  C1283   1.410   .     A
C1280  C1281   1.410   .     A
C1280  O1494   1.383   .     S
C1281  O1495   1.382   .     S
C1282  H1410   1.084   .     S
C1282  C844    1.398   1_655 A
C1283  O1496   1.383   .     S
C1284  O1497   1.383   .     S
C1285  O1499   1.382   .     S
C1286  O1500   1.383   .     S
C1287  O1501   1.383   .     S
C1288  O1502   1.383   .     S
C1289  O1503   1.382   .     S
H1317  C438    1.110   1_565 S
H1330  O1469   0.990   .     S
H1331  O1470   0.991   .     S
H1332  O1471   0.990   .     S
H1334  O1472   0.990   .     S
H1335  O1473   0.990   .     S
H1336  O1474   0.991   .     S
H1337  O1475   0.991   .     S
H1338  O1477   0.990   .     S
H1339  O1478   0.991   .     S
H1340  O1479   0.990   .     S
H1341  O1480   0.990   .     S
H1342  O1481   0.991   .     S
H1343  O1482   0.990   .     S
H1345  O1483   0.990   .     S
H1346  O1484   0.990   .     S
H1347  O1485   0.991   .     S
H1348  O1486   0.990   .     S
H1349  O1488   0.991   .     S
H1350  O1489   0.990   .     S
H1351  O1490   0.990   .     S
H1352  O1491   0.990   .     S
H1353  O1492   0.991   .     S
H1354  O1493   0.991   .     S
H1356  O1494   0.990   .     S
H1357  O1495   0.991   .     S
H1358  O1496   0.990   .     S
H1359  O1497   0.990   .     S
H1360  O1499   0.991   .     S
H1361  O1500   0.990   .     S
H1362  O1501   0.990   .     S
H1363  O1502   0.990   .     S
H1364  O1503   0.991   .     S
O1421  Zn1508  1.944   .     S
O1421  Zn1505  1.944   .     S
O1421  Zn1516  1.944   .     S
O1422  C470    1.278   1_565 A
O1422  Zn1507  1.935   .     S
O1423  C851    1.278   1_655 A
O1423  Zn1510  1.935   .     S
O1424  Zn1509  1.935   .     S
O1425  Zn1519  1.935   .     S
O1426  Zn1518  1.935   .     S
O1427  Zn1513  1.935   .     S
O1428  Zn1505  1.935   .     S
O1429  Zn1515  1.935   .     S
O1430  Zn1514  1.935   .     S
O1431  Zn1517  1.935   .     S
O1432  Zn1511  1.944   .     S
O1432  Zn1513  1.944   .     S
O1432  Zn1517  1.944   .     S
O1433  Zn1516  1.935   .     S
O1434  Zn1508  1.937   .     S
O1435  Zn1507  1.937   .     S
O1436  Zn1510  1.937   .     S
O1437  Zn1509  1.937   .     S
O1438  Zn1512  1.937   .     S
O1439  Zn1511  1.937   .     S
O1440  Zn1506  1.937   .     S
O1441  Zn1520  1.937   .     S
O1442  Zn1507  1.937   .     S
O1443  Zn1518  1.944   .     S
O1443  Zn1506  1.944   .     S
O1443  Zn1514  1.944   .     S
O1444  Zn1508  1.937   .     S
O1445  Zn1520  1.937   .     S
O1446  Zn1506  1.937   .     S
O1447  Zn1511  1.937   .     S
O1448  Zn1512  1.937   .     S
O1449  Zn1509  1.937   .     S
O1450  Zn1510  1.937   .     S
O1451  Zn1135  1.937   1_655 S
O1452  Zn1514  1.937   .     S
O1453  Zn757   1.937   1_565 S
O1454  Zn1509  1.944   .     S
O1454  Zn1515  1.944   .     S
O1454  Zn1519  1.944   .     S
O1455  Zn1516  1.937   .     S
O1456  Zn1519  1.937   .     S
O1457  Zn1138  1.937   1_655 S
O1458  Zn1513  1.937   .     S
O1459  Zn745   1.937   1_565 S
O1460  Zn1134  1.937   1_655 S
O1461  Zn1515  1.937   .     S
O1462  Zn1505  1.937   .     S
O1463  Zn753   1.937   1_565 S
O1464  Zn1518  1.937   .     S
O1465  Zn1512  1.935   .     S
O1465  C469    1.279   1_565 S
O1466  Zn1139  1.937   1_655 S
O1467  Zn756   1.937   1_565 S
O1468  Zn1517  1.937   .     S
O1476  Zn1511  1.935   .     S
O1487  Zn1506  1.935   .     S
O1498  Zn1520  1.935   .     S
O1498  C852    1.279   1_655 S
O1504  Zn1508  1.935   .     S
Zn1507 O672    1.944   1_565 S
Zn1510 O1063   1.944   1_655 S
Zn1512 O661    1.944   1_565 S
Zn1520 O1074   1.944   1_655 S
